data_image0
_chemical_formula_structural       FeHC2HFeHSHSFeSHSCHS2CHC2H2SH2CHFeH3SHC4H3NCH2SNH4C2H4C3FeC3HC2H4CFeCS2HC3H5CHSH3SNH2CHSHFeNFeCHCHCH4CHCSCH3SHC2H7CHCSCSH2FeH4FeS2FeS2Fe2S3NHFeS2FeS2FeSFeS4HC6H3C2H2C6H5C2H2C6H4C6H4CH2CH3C3HSH2FeH2SFeH3C2FeHNC4H13NH5CHCHNC2H6NC4H12C2HCH2CHNHCHCSHCH3SHC2HCH3C2HCHCSC2HCHC2HCH3SCH3C2H2C3H3CH2C2SCHFeHFeSNC3HSC2H2CHCNHC4HSNCHSNH2SHSH2NH4CH3FeHSHSC2HCH2CHNH3C5H3SCH3NCHFeCH2SC4HCH9CHCHCHFeCH2C2H3CH4C2H3C3H4SFeSH2SC2HFeS2FeS2FeSFeS3H2FeSHFeS2Fe2SHSH2CH2C3FeSH2CH3C2H4C3H3CH2C6H4CH2CHC2HCHFeC3HC2HNC2HSCH4NHC2HNH3CH3CH4CH2NC5H12CHCSH4SH5C2H2C2H3CHC2HNHNCH3CSC2H2CH2C2HNH3CH2CHSHSCH4C2HC2H3SCH4NHCH2CH2SH2FeCH2C2H2SNCH2FeHSFeS2FeSHS2FeCSH2FeSCSHSHC7H4C2SC2H2CHCH3SHCFeNH2CNCH3CH3C3HCHCHCHCH2C7H5SCH2NSHCHCH8CH2SH2FeHC2H3NHC2FeNHC2S3HFeS2HS2HS2H2C6H3SCHSH2Fe2HFe2HNFeH3CH2CHS2H2C2H3CH2CH3SH2C2H2SCH2CFeHNSH2C2HCNHCH2C2HCSHCH4Fe2H2SHSHFeSHCSC2HSHS2CHC5H2FeCFeHS2H2CH3CH4CH6CH4C3H4CH2SCNHCHCH2CS2CH2FeSCHCHCHCH2C2SNHS2CH3C4H12CHFeHCHNCH2FeCH5CHSH2SH2SCSFeC4SFeHSHCSFeC3H3Fe2H3C2H3SHC4H3C2H4C2H2CHNHFeCH2CH2CSHCHC2HNH2FeH2CH3FeHSFeS2FeCSCHCH2FeHCNSHNSNHCH2SCHC2HCHSFe2SHCHCHC2H2C2SC2S2FeC2H2CS2HFeH2CH2CH4SCH7CH3C3SCH3CSHC2H2SCHCH2FeSHSHCFe2SH2CH2CNHSHC2FeCS2H2C7H7SC2H4SCH3CH8SH2NC4H5SH8CHSCHC2H2C5H6C2H3CN2CHCFeSH4NHFeCH3CH2CSH5Fe2S2FeS2FeSFeS3FeS2CSFeSFeCSCH2NC2H3C2NCH2CH2C6H4C2HCHCNCHCH2CHC4SH6S2HCH3C2H2SH4C4HSHCHFeHC2NCH3CHC3H2NC2HCH2FeHCSCH2SH5CH2CH2FeS2H2S2H2CH2C2H4SH2S2C2HCHCH2CNH3C2HCH4CHCHS2CHFeCHNC2HCH6CHCNC3H3CHFe2HSHCH3CH7C2HCHFeSC2HFeSHS2C2HSCH3SHFeSC2SH4C2H4C6H2C2H5SFeHSH2SHCSCH3CFeCFeNH2C2H3C3H4CH2CH2CH2CNHSH2SH7SH2C2HSHFeSCFeS2FeHFeS3H4SHSH4C6H5FeHFeS2FeNH4CHC2HCH2C3H2FeH5SCSH3SH2FeHCNHSNHCH2FeS2FeS2FeCFeS3CSH3C2HSHC4HC6H3C6H5CNH3FeH2C3H5CHCHCSCS2H3CH3CHCH5CFeH3CH5C3FeHCHSH3SCH2S2FeSHSHS4HS2HC2H5CSFeH2CHCH5NFe2HC3FeH2C3H3CH10Fe2HNCSH2C3H2CHFeHC2HSC5H3CHCH2CHNH4FeS2FeSFeS2H3CNCH2FeH2SNSHC6H3NC6H6FeSH2S2C2H2CHCH2CHSCHNH3CHSHC2H5NH2C2HCHC2FeHCHCHFeH3CHSCHS2C5H2SHSCH4CH3FeC3SH2NCH2C3H2SCHC5HCH5C2FeCSC3H5SCHFeH5CH3C2H2CNC2HSC2S2FeSFeSCHNHCH3S2FeCH2CH5S2H2FeHC2SHC2HFe2SH3FeH2SHCS3H5CH3SCFeSCHSH3SCH2CHSCSC5H2C6H2FeH2C2NC3H9SH4C2H8CHCHCHCSH4SHC2NFeH3SC2HFeNC2H2CHS2CH2C4HCHFeCFeCH6CH4CH4CHCH4NH3SCSNHCHSC3H2CHC2H6CH2CSNCH2CH3CH2SHCH2FeHC2FeHSCSHCH2SC2H2CH2CH3C2H3CHSCHSNH2NSHFeH8NH9CHCSHC3H2CFeSCH3C2H4SH2NH2CH2C2SC5H4CHNC2SHCSHCH3SH4SC2H3CH5C2FeC3HSFe2CHFeSHFeSC3H2SC2H3CSHFeCH2SH3CFeHSHCSC2H2FeNH2SHCFeSFeS2CSFeSFeSHSFeS2FeSHFeCS2H3SHNCH6NH4NFeC6H4CH3C7H4CHCSNC2SH4C5H3SCNHSCNH2SHC2H2SFeCH2C2H2FeHSH6CH2C2FeH2NH2FeH5FeCSCHFeHCSC2S3HC2H4CHS2HCHSFe2CH5C2HC2HCH2CHCH3SH2CHSFeS2FeS2Fe2S3H2FeCH2CNHCH2C2HFeH2C3HCSC2H5C6H3C2SHSCH2CH2CSHCSCFeC3H2CH7CHC2FeC2HCH2CHCH2SH2CHSFeH2CHCSCH2NHC5HC2H3CH3CHCH2C3HCHSNSH4CHCHC2HCHCSHFeC2H3S2HS2CHCFeC2H2CH3C2H3C2H2C2H5SHCHC3HCH6CH2C2FeHSCNS2H4SCH4CHCFeS2HFeSCSFeSHCSH2SHSH3C2FeHFeS2HFeS2H3SH2SCNH5FeNC6FeH2C6H4C2HC2H3FeHC2FeHNH3S2H2CSCH2CNSH3CSHFeC2H2FeHC2HFeHSH2CH5SCH3CH2CHCHCSH2C2FeNC2SHCFeS2FeSCSH2C2H3C2HC2HC5H6C3HCHNHCHFeHNH2C2SH4SH5C2HC2HCHCHS2FeHFeHNSHCHC3H3SHNHSH2CSFeHSHCHSFeHSCH3CSHCH3C2HCHSFeSHC3HCH3CSHCHC3HSH2SHCH2CHSCHNFeHSNSFeSH2FeH2C4NSHCFeCH3FeSH5C2HCHCH5C3H2CH2FeH2CH2C5H8C4FeCSH2SHSCHCH2N2HCHFeHSHSHCHNHCHCH3SFe2H4CSHSCFeH2C5H2CFeSHC2H2CFeHSCH6FeHSH2S2CFeH2SCHSHSCHCH5C3H3CSCSCHCH3NH8SH2SHNFeS2FeHFeH2Fe2C2NH2CHC2HSCNH2CH4C2H4CH2CHS4H3SHCHC3H6CHSH2FeHCH3C7H2CHC2HNH3SCH2C3H4CH5C2SH5CHC2H2CFeC2H2C2HCSH2NHCSFeC3HSH3CNHFeCFeHCHFeH4SCSCHFe2SCS2CHSHC2H2CH5CSCFeNHCH3Fe2H4CSH2CSCHCSH2SC2SC2FeSHFeSHFeSFeHSFe2S3FeSFeS3HC4H4C2HC6H4SHCHC6H5C2H3NCH2CH2C5HCHSCHC2HFeCSNC4H12NC4H14SHCFeH5CHSH4CHCH3SCS2CHSC2HSHNHCH3S2CSNHC2SHCH5CHFeCHCH3C2HSH2SC3SHCH2C2HFeHCSHC2HC2H2SHCNCH2FeS4HCH3FeSFeS2FeS2FeSFeS3NC2H2C2H3C3H2C2H4CH2CH2SC3H3C2H6CHC6H6C2H3SC2FeNCHCNHCSH3CHFeH2FeHCH3CHCHFeH2CNH2NCH2SH5CH2CH4FeH6CH2CH3CH2CHCHCSH2C2HCSCH2SH2CH2CSNHCHC2H2CSH5CHC2H2CH3CHCHC2H2CH3FeCHS3NFeSCH3FeC6H4CHFeHCH3CSHSHSH6C2H2CHCHFeC2H3S2HNH3C2HC2HC3H5CH2SC2H4CHSFeSC5H2CFeCH4C5H4C2SHC3HCH5SC3H2FeH3FeS2CH2CFeS2HSFeSFeHSHNHCHCHFeC6H4CSCHNH2SCH3SH5CFeCH2CHFeHC2SCSH2CHFeHCH2SC2H2CHC2HCHFeHCHCNH3C2HSHFeS2FeS2FeSH2SC3HC2SHC4HSC2NHFeHCSH5CFeSH3CHFeHSH2CH2CH12CHCHCHCH2CHN2CSHC2SFeS2Fe2S3CH5CHCSCHCHSHFeH3C2H2NC2HC3H2C2H2C2H4FeCNH2CHSH2C2HNHCHCHCHSHSC3H2CHNFeHC2HSH2C2SHSFeC2NFeH2FeHNSH2S2CHFeH2SCH2CH3CH5C2HSHSCNHCHCHC2HCHCH5SHC2SNCHCH2SCSH10S2HCSHC2FeHCHFe2S2CHCFeCHCSHCH2C2H2CH3CH4CH5CHCH2Fe2S2H2CS2CHC2H3CHFeH2SFeH3SH4Fe2SHFeSFeSHCHSHFeSFeSFeSNSC6H4CSHC2HSH2S2HCHCSH2C2HSHFeH3CH2CH2CHSNCSHSC6H5C3HNHCHCH2CNSHNC2HCNC2H9SH2C2HNH2CHCNH2C2H4FeH2SC2H3FeHCH10SHCHCHC2S2HC2NH2CH2CHCH2SH6CH3CH3C2H2CH3SC2H4FeSHC2H2SHFeS2FeS2FeSFeS3HCSCH4SFeS2FeSCFeSFeS3FeS4C2H2C6H4CHCHC7H4C6H4C6H3C6H6C3FeHFeH4C2SCH3CHSH5CHS2C4SCH5C3NHNHCH3CH5NCHC2SCH3C2FeH3C2HCHFe2C2HC2H2C2NCH13CH5CSH2SHCHCSH3CH2C4SNH3NCHC2FeSCH5CSH2CH2SNH2S2HCFeHCH2SFe2H2SH4SCHCH2FeHCFeCFeSHFeS2CHNCFeC2HCH2CHSH2C3H5C2HCHCH5CH2CH2CHNC2H2FeCH6NC2H2CFeS2FeS2FeSFeS3HCH3NHC5SH5CHCHSHC6H6C2S2H4NC3H5FeCHC3H2CN2HC2FeSH3FeCH3SFeSFeSFeS3CHSFeS2CSCFe2HC2H2CHC6H5SCHC6H4CHCHC7H8CH5NC4H8SH4NCHCHSH7SNFeNC4H3CH13C2HC3FeSH13CHC4H3S2CSH2C2HCH5SCH2CHCH3SC2HNHCH2C2H4FeS2FeS2Fe2S3C4SCH3C2NCHC2HCHC2HC2HC2H4CHCSHCH8CSC2H2CH3NH2CHSHCNC2HC2H4CHCHCH2CH2C2HCH3SH3CHFeS2FeS2FeSFeS3FeH2CHC2HC3HCH3CH3NHC2H3CH2C6H6C2HC3HSH3NCH5NH3CH4C3H4CH3NH2C2H3CH3C2HNC4H3SH3SCSH2NC2H2SHCFeS2FeSFeSFeCSHS3CHCH2CH2CHCH2CH2C6H4C5H3CHCFeH3SH4CFeC2HC2HC2H2CHNC2H6CHNCH3FeCSHCHCHCSC3HSH4SHC3FeHCHC2H6C3H3FeSFeS2FeSFeS4C6H5CHC3H2SCHC3HCH3CHCH5SHSNC2H2NH2NH3SH2CH2C2SCFeHC2HCHCFeCH4CNH2CH6FeSCHCFeS2CFeSFeSHCFeSHFeS2HC3H9C2HCHCHNH2C2HCH2CH3CHCH2NHSC2H6C2HCHCHC2HC2H3FeH2CHCHCSH2C2HCHNH3C2H3CSH2SC2H3FeS2FeS2FeSFeHS2FeSFeS2FeSFeS3FeCH3C2SH2CSHCSHC6H4SC2NH3C2H2SHC2H2C6H4CHC2NCH2CHCH2C2NC4H12N2H3C2H4NH4SH3C2HCHCHSHCH8SH3CH3C2SH2CSCH3SFeSFeSFeSFeS2H2FeHCHNH2C3S2H2FeCNHCH2C6H3CH3CH2C2H2S2H3NH3C3H2CHFeCH8C3HCHFeC2H2FeHCH4S2HCS2HCFeC2HC2H2C2H5FeHNC2H7NCH4CFeCH2CH2C3H2CHCH4SH2C2H7FeSH9CHCHCHCHFeNC5HNHNHNCSH2CH2CHCH2SH2FeHSFeCNSH2CH2C3HFeH2CFeHSH2C2HCHFeHFeH4CS3HSHCSHFeSH2C3SH2FeH9C3SH2S2HCSH4CSH3S2HCSFeSH2SFeHSCSHS2CH5C2SHC5HC7H6FeHC6H4S2CSH2CFeHNCHCHCH2C2H4CHNCHCH5C2H2C3H3CH2C3HCHCHSHFeHSH4Fe2HSNC2HSC2H3SHCH2NH3CHCH2CHC3HC3SC2H2SHCH2C3FeSCSCHFeCH3CHSCH5CHC3SNHCH2FeSC6H3CH2NCH2C3H4CSHSH4SCH3C2H2FeHCHCFeSH2C2NC2H5SHCH2C2H3CSHC2HNH3FeCS2HNC2FeCH2FeCSCSHFeC3HCNS2CHCSCH2CH4SCHCH2Fe2HSFeSFeS3H2C3HC2HC3H2CH4C2H4SC2H3C2HSHSHFeH2CHCSHSH3FeHNCH2SH5CHC2HSH4CH2NCFeHC2H2CNC2H6CH2CH2S2H5CHFeHSHCFeH2NHC2H2C2H2C3H2CH2CHCHCHNC3H6C5H5S2C2SCFeSCNCSCSC2H2CH7CH2SCSCHCHC2NFeS2CFeH2CH4C3H6C2HSHCH2CSNCH2CH5FeSHSH2FeS2H3C2HSC2H3C6H4C2H3CFeH3CHCH7SHCHCH2SCH3NC4H11N2H2C2HFeH2SH2FeH8CHCHFeHCHCHC3H3CH3CH4C2H2CS2NFeS2FeS2Fe2S2HC6H3CSHSC2H4C2NH3CHC2S2H4CHCH2C3FeSHS3H2CFeC3H2SCH2CH2FeH3SHFeSFeH2SH2NHCH3CH4SHFeS2FeS2FeSFeS3CHSFeS2FeH2CFeHS2H2S3H2SHCHCHCH3CS2H4SH2SHSH4C8H4FeH2C3SCHC6H2C6H6CH2CHSHCNH2NC2HFeHSCFeH2SHSCH3NHC2H2CH2FeHFeC2H3CNHC2HCSCNC4H12NC4H10SHCHCHC5SCHCFeHSH2CNHFeCHSC2H2FeCHSC2HSH2CH2CHFeCH4CH2CHCSFeS2HSFe2CS2H2FeC2NCHS2C2H2SCHC2SCH3Fe2H5S2CFeCHCHCH4SCH3NH2C2SFeS2FeS2FeSFeS3C3HFeCSHS2HCFeSHCH4NHCSCH2C6H4C6H4C6HCH3CHCHCHCSH2NC5H16CH2NC4H2CH3SFeCH3CHCFeH2CH2SHC2HCH7C3NC4H12NHNH3CHCHFeNH2SHCH5SCH2CH7CH2SCFeSFe2S2FeSCSFe2SFeH4NC2H3NH2CHCS2HFeC3HFeC4HSHCHSHSHCSNHNSHSH3CH3SFeC2HFeH9CHC2NSHCH2CH2CHS3NCHCH4CFeCSH3SHNHC2HFeCHC2SC3H3C3H2CH5SCH2CH2CHNH2C3H7CHSHCH3C3FeCHCH2CH2NCH2CH2FeCH2C2H9CHCH2CH5C3HFeNCFeH4SHC2HC3H5CFeHFeCSNC3H2CFeSHSC2H4SHSHCSH2SH2FeS2CHSHC2HCHCH3FeS2H4C3SH4FeH4CH2CHC5HCHCHS2HCH2FeHC2NC2HCHC4H2NSHCFeCH6CH8CHC2H9C2HC2SH3CSCH4NH4CFeS2HS2H5C3NHS2FeSFeSCSFeC2H2CH3C3HCHC2SFeHFeSH3C2SH3C2H2NCH2SFeSFeSHNFeSCSH2NHFeS2FeSFeS2HSCFeSHS3FeS2C6HC2HC3HCH2C4HSH2SC6H3CHC6H4CHCHFeH4CH2SC3H2CSHNC4H14NH2C2HCSHCH2CH2FeHC3HC2H2NH7C2FeH3CHFeCH6CSHC2H4CHSFeSCHCSH2CH3SN2SC2H2CHCHCHC2SH2CH4CHC2H2CH2SH3C2HSFeH2FeCHSCH4SNH4Fe2CSCSHC4HFeH3C2H3SH3SCH9SCH4C4HCFeS2FeHFeS4HSCH2CSH5C6H5C2H5FeHCHFeSH9CH5CH4CH3CH3N2FeSC2H2CH2CH2CFeSFeS2FeSFeS3FeS3CSHSFeS2FeS2CH2CSHCSHCH4CHCH2FeNCHSHCH2CHCH6C7H4C6H4C6H4C6H4S2CSC2HCH2SNH3SH2CHC4HC2SHCHC2HNC4H12NC4H4CH3CHCH2SFeC2FeNCH2CH2CSNHFeSH3Fe2H2SH2CSC3H4CH2CH5CFeHC2HCSH3C3HCH5CHCH6CH2CHNC4NHC3HNC2HCHNHCHSHNH8SHCH4C3H2FeCSC2HSC2H2SH6CH3SCHCH2NHCH2CHCHNH2FeHC2H3CHNCH2SHCHCFeHFeHSHCHSC2HS2HCNFeSHSHCSFeHSH2CFeH2SH2C7H4CHFe2HFeC2HCHC2H3SCSH4SH2CHCFeCHCH5SFeH2C3H4CHFeNSHS4FeC2H3C6H4C4H3CSFeH2FeSHCH2SH2SH3FeCSC2H5SH2C3SHCSCFeHCHS3NH2FeHSCH3CFeCH3CSCHC5HCSH4CNH3C2HCHCH3S2H8CNHSCH3CH2CHCHNSCSCH2C2H2C2H2CFeCFeHSH5C2SCH3CSCNC2H2C2HC2HSFeHCHCS2H4FeHC3HCHCHCHNH2CSHFeHNC2H7CFeS2C2HCHC3SCSCH3FeCH3C2HSH7C3FeHCHSH4CHCH2CHCSHNS3CFeSHFeSCFeSFeHS2C3H2C6HNH3FeNH2CHSH2CS2NCH3CH5FeH2CH3SCHCHCH5C4H2NH4SHC3H2CSH3SFeH4CH3CHC2HCH3CNSC2HCSHCNSHCFeH3NCH4CFeNSCSFe2SCSHCHCFeS2FeS2Fe2S4HC2H3C6H3SH5CHCH2FeC3HCH2C6H3C2SHCH2NC4HCH10CHSH6SFeCHCH6C2H2CHC3H4CH2N2FeSHC3SHCHCHSHC2HC2H4C3FeCH2CH2CSHCHCH2C2H6SCHSHFeC2Fe2S2FeSHFeSFeS3H2SH2SCH2FeHSFeNH6SHCH2C2HSH3CSHC2NHSH8CSCH5C7H4SH2FeH3FeHC2HC6H3SC2SH3SH2CHC4SCH2CS2C2H2FeHNC3H5CH2NC4H13CHCHCH2C3HSHSFeH3C3SHNSH3SC2HCSHC3HCH3C2HC2H4CSHCHCH3FeC3HCHCH2C2HC3H2SCNCH3C2H3CH7CHS3C2FeH2SNH5SFeH2CH4S3HCFeH2FeSHFeS2CFeH2NCH6FeH2C3HCH2CH2CHCHSCHCHCH3CFeSFeS2FeNFeS3HCHCFeCSH5CSCH2CH2C2NHC2H5CHCHCHSC2H3NH2SH2FeSHCSFeH3CH2NHNHSHCH6CH3SH3CHCH5C5FeSFeSHFeSFeS3HCHCSHCFeCHC6H4C5SH3CH3SHCH5C2HCHC2SC2HNHSFeH4CHCH3CHCH4C2H2CH2NCHFeCHCHC2H4C2NSHC2FeCSHCH5C2H2SCH3CHNCHFeS2FeC2HC2HFeS2H3NCHC3H3C2HSCHCHCSFeH2C2SH2C3HSCHFeSH3CFeH2C2HFeHFeS2FeS2FeSFeS2CH4SHCHSH2SNC3HC3H3CHCHCHC2HFeHC3H2C2HCHS2HCHNH2NHCH2FeCH2CHCH2C2SHC3H8C2H2SC2SH2CNC2H2CSH3CH5SH5CH4C2HSH5FeS2FeHFeS2CSHSCFeHCHC2HCHFeS2Fe2C6H2SH2FeH2FeCH3CHFeHNHCH3CHSHCH4CH2CSHC2N2H2CH3FeSHC2H2CHC2HFeH4SC3H2SCHSFeSFeSFeS2HCHC2HFeS2FeS2FeSFeS2C2FeHSCFeS2H2CSCS2HFeS2HCHCH2CHSFeCH5C6H4C6H4FeH2FeHC2H2NC6H4C6H7SC2H7SC2H2CHSCHCH8S2H4FeNC4H12NC4H5S2H3C2HCH2CH2CHCH2C2SFeH3SH3CSHCNHC2NC2H5S2H2CH5CSH2C2NSH3SCSHFeSCS2HCH3C6H4CNH4CSHC2H5FeHSCHSHNCH4C6H2FeSC3H2SH4CSCFeH2FeH3CNC2FeHFeC3HC2HCHCHC4H2SC2H3CHCSCNHSHCH10CH4SH2CSCH4NCSFeS2HSFeSCHCH3CNSHC2SH2CFeH4C2HCHCHCHC2H2CSCHFeSFeHCH4CFeHFeCHCHNH3CFeH2C2HC2NHSH2SC2HNC4H13SC2H2FeSHCHC2H2C2S2H5CS2H2NCH2SHSFeC2H3SHSC2H6C3SHC2HCH3SCFeSCHCFeHSC3HSNCHSH3Fe3S2H4C2FeHC4HCH2CH2C3HFeH7SH2CHCHCHSHFeHSHFeCNH4CFeHSHSC2H2CH5C3SCHSHFeH2FeCHSH4C2HCHC2H2C2HNH2C2NS2H3CHNC2SH2SH3NFeS2HCSCHNFeCH2C2H3C2H4C3H2SH2C2H3CH5CH2CH3FeSCFe2SFeS2FeSFeS3H5FeSFeSFeSFeS3H2CHC2H3C6H4C2NCH3C2H2C2HC4SH2CHSHCHC2SHCHFeSFeC2HC4HCH2CHSH2SHSH5NCFeHCHNC4H13CH2SHCH2CH2C2NC2H4CH2NFeCHSHCHCFeH2SNCHSH3CS2HCH5C2NH2C3HCHC3H4CHCH2SCH2SH2CHCSC2HFeHFeH8SHCSCHCH2CNH4SFeS2FeS2FeHFeS2H3SHSHC7H3C3H2CHCH4NH3CHSH6CH2C2H6C2HCHCH3C2NH2CHFeH2CHC2H3CH2C2H2FeH2CSH2FeS2FeS4H3SCH3NHCSHCNH3C5H2CH7CH3CH2CH2CSCH6SHCH2C2FeHCFeCFeH2C2H2CHC2HCH2CH4C4H4CSHFeS2FeS2FeSFeS3HS2FeSFeSHCSCSH2NHNHCHCNC2SCH3CH2CH2CNCHC6H4C6H6NH4NCHC4H3C2HCH4CH5CHC5HNC4H11NCFeC4H3CH2NHCH2CH2SHSCH2FeCSH4CH4CH2SHCH2CH3CHS2H2CH2C3SCHFeCHCSCHSC2H2FeCS2FeSH4C2H5CNH6CHNHCH2CH2SHS2H2NSH4CHC2HCH2CSCH2CHC4H2FeHFeH3C2SFeHSH3FeHCH2C2HFe2NHCHCH2FeCHCFeHCFeNHCHCFeS2FeSFeCSCFeHCS2FeSH3C2H2SCH3CH2C4H6C3HCHC4H4CHCFeCSH5FeCH2SHCSHS2HCHNSH3CHC4H2CH2SCHCH6CH
_chemical_formula_sum              "Fe768 H6144 C3840 S1536 N384"
_cell_length_a       95.2534
_cell_length_b       96.2178
_cell_length_c       96.5326
_cell_angle_alpha    73.7378
_cell_angle_beta     73.7494
_cell_angle_gamma    73.7688

_space_group_name_H-M_alt    "P 1"
_space_group_IT_number       1

loop_
  _space_group_symop_operation_xyz
  'x, y, z'

loop_
  _atom_site_type_symbol
  _atom_site_label
  _atom_site_symmetry_multiplicity
  _atom_site_fract_x
  _atom_site_fract_y
  _atom_site_fract_z
  _atom_site_occupancy
  Fe  Fe1       1.0  0.00032  0.27926  0.18947  1.0000
  H   H1        1.0  0.08345  0.28174  0.17201  1.0000
  C   C1        1.0  0.05286  0.30518  0.17613  1.0000
  C   C2        1.0  0.16791  0.29928  0.12760  1.0000
  H   H2        1.0  0.26895  0.28921  0.13821  1.0000
  Fe  Fe2       1.0  0.12629  0.30068  0.22022  1.0000
  H   H3        1.0  0.00716  0.22905  0.22391  1.0000
  S   S1        1.0  0.19227  0.28901  0.97985  1.0000
  H   H4        1.0  0.15093  0.28365  0.97866  1.0000
  S   S2        1.0  0.19881  0.30677  0.07441  1.0000
  Fe  Fe3       1.0  0.01986  0.30098  0.17171  1.0000
  S   S3        1.0  0.11889  0.28916  0.20728  1.0000
  H   H5        1.0  0.29594  0.30831  0.03605  1.0000
  S   S4        1.0  0.31470  0.28235  0.98328  1.0000
  C   C3        1.0  0.10628  0.29312  0.17145  1.0000
  H   H6        1.0  0.24022  0.27110  0.02821  1.0000
  S   S5        1.0  0.04304  0.30589  0.16289  1.0000
  S   S6        1.0  0.01046  0.29417  0.19593  1.0000
  C   C4        1.0  0.14083  0.30917  0.14654  1.0000
  H   H7        1.0  0.24050  0.30975  0.15035  1.0000
  C   C5        1.0  0.16528  0.29266  0.14275  1.0000
  C   C6        1.0  0.27267  0.30979  0.09169  1.0000
  H   H8        1.0  0.23893  0.29790  0.01754  1.0000
  H   H9        1.0  0.20899  0.28223  0.04674  1.0000
  S   S7        1.0  0.23347  0.27939  0.98187  1.0000
  H   H10       1.0  0.20022  0.28014  0.02567  1.0000
  H   H11       1.0  0.30871  0.30680  0.19518  1.0000
  C   C7        1.0  0.30355  0.31204  0.20488  1.0000
  H   H12       1.0  0.25527  0.29987  0.12747  1.0000
  Fe  Fe4       1.0  0.10049  0.30946  0.20450  1.0000
  H   H13       1.0  0.13902  0.31661  0.99544  1.0000
  H   H14       1.0  0.26034  0.27234  0.99242  1.0000
  H   H15       1.0  0.09876  0.29129  0.18262  1.0000
  S   S8        1.0  0.31739  0.30103  0.06125  1.0000
  H   H16       1.0  0.22174  0.30985  0.01342  1.0000
  C   C8        1.0  0.15118  0.29356  0.98232  1.0000
  C   C9        1.0  0.27670  0.31323  0.14132  1.0000
  C   C10       1.0  0.22871  0.29840  0.01384  1.0000
  C   C11       1.0  0.21557  0.29025  0.03890  1.0000
  H   H17       1.0  0.28900  0.29100  0.08482  1.0000
  H   H18       1.0  0.26991  0.27861  0.08335  1.0000
  H   H19       1.0  0.15043  0.29047  0.99447  1.0000
  N   N1        1.0  0.22030  0.28729  0.02385  1.0000
  C   C12       1.0  0.09162  0.28344  0.16119  1.0000
  H   H20       1.0  0.11295  0.25839  0.16575  1.0000
  H   H21       1.0  0.19949  0.29948  0.01782  1.0000
  S   S9        1.0  0.23763  0.28777  0.08792  1.0000
  N   N2        1.0  0.10681  0.28210  0.16321  1.0000
  H   H22       1.0  0.31840  0.30287  0.00848  1.0000
  H   H23       1.0  0.29213  0.30969  0.20952  1.0000
  H   H24       1.0  0.27455  0.30111  0.12079  1.0000
  H   H25       1.0  0.00755  0.29647  0.22615  1.0000
  C   C13       1.0  0.26642  0.28906  0.08680  1.0000
  C   C14       1.0  0.26332  0.27497  0.98047  1.0000
  H   H26       1.0  0.04278  0.28851  0.19275  1.0000
  H   H27       1.0  0.13037  0.31301  0.15377  1.0000
  H   H28       1.0  0.20839  0.30158  0.03896  1.0000
  H   H29       1.0  0.05642  0.28806  0.21136  1.0000
  C   C15       1.0  0.05049  0.29573  0.19010  1.0000
  C   C16       1.0  0.11719  0.28481  0.14862  1.0000
  C   C17       1.0  0.20694  0.28827  0.01838  1.0000
  Fe  Fe5       1.0  0.18566  0.31321  0.97984  1.0000
  C   C18       1.0  0.25113  0.29566  0.09026  1.0000
  C   C19       1.0  0.28445  0.30877  0.04316  1.0000
  C   C20       1.0  0.00169  0.25273  0.22154  1.0000
  H   H30       1.0  0.10218  0.30463  0.16547  1.0000
  C   C21       1.0  0.31824  0.31399  0.00903  1.0000
  C   C22       1.0  0.27721  0.29613  0.08750  1.0000
  H   H31       1.0  0.25523  0.29938  0.15987  1.0000
  H   H32       1.0  0.23225  0.29662  0.00234  1.0000
  H   H33       1.0  0.22396  0.26360  0.03164  1.0000
  H   H34       1.0  0.23369  0.26969  0.01301  1.0000
  C   C23       1.0  0.06856  0.30452  0.19714  1.0000
  Fe  Fe6       1.0  0.21707  0.30581  0.08547  1.0000
  C   C24       1.0  0.11224  0.26705  0.17167  1.0000
  S   S10       1.0  0.01141  0.28456  0.16527  1.0000
  S   S11       1.0  0.32634  0.29322  0.09365  1.0000
  H   H35       1.0  0.08725  0.29465  0.15474  1.0000
  C   C25       1.0  0.25138  0.31003  0.15232  1.0000
  C   C26       1.0  0.15179  0.29763  0.15224  1.0000
  C   C27       1.0  0.22998  0.27226  0.02422  1.0000
  H   H36       1.0  0.12277  0.29951  0.99749  1.0000
  H   H37       1.0  0.22535  0.28954  0.04342  1.0000
  H   H38       1.0  0.12883  0.28352  0.14981  1.0000
  H   H39       1.0  0.11765  0.27690  0.14193  1.0000
  H   H40       1.0  0.17374  0.28366  0.14711  1.0000
  C   C28       1.0  0.25740  0.31623  0.09539  1.0000
  H   H41       1.0  0.28147  0.30273  0.14853  1.0000
  S   S12       1.0  0.00077  0.25602  0.20288  1.0000
  H   H42       1.0  0.17836  0.29539  0.12033  1.0000
  H   H43       1.0  0.02990  0.31626  0.20543  1.0000
  H   H44       1.0  0.09149  0.27516  0.15519  1.0000
  S   S13       1.0  0.07736  0.30447  0.21092  1.0000
  N   N3        1.0  0.26258  0.31251  0.13828  1.0000
  H   H45       1.0  0.12363  0.26582  0.17351  1.0000
  H   H46       1.0  0.11757  0.29245  0.17306  1.0000
  C   C29       1.0  0.12446  0.30249  0.98521  1.0000
  H   H47       1.0  0.11376  0.29625  0.14211  1.0000
  S   S14       1.0  0.14855  0.28853  0.17094  1.0000
  H   H48       1.0  0.21009  0.28611  0.00704  1.0000
  Fe  Fe7       1.0  0.13276  0.30143  0.18740  1.0000
  N   N4        1.0  0.13917  0.30638  0.97817  1.0000
  Fe  Fe8       1.0  0.30953  0.30994  0.08189  1.0000
  C   C30       1.0  0.05829  0.29543  0.20058  1.0000
  H   H49       1.0  0.28696  0.27136  0.97951  1.0000
  C   C31       1.0  0.26542  0.30014  0.13089  1.0000
  H   H50       1.0  0.10466  0.26463  0.18275  1.0000
  C   C32       1.0  0.24667  0.30912  0.09481  1.0000
  H   H51       1.0  0.26754  0.30686  0.98365  1.0000
  H   H52       1.0  0.27847  0.30321  0.03867  1.0000
  H   H53       1.0  0.04188  0.30757  0.22697  1.0000
  H   H54       1.0  0.02765  0.29178  0.22149  1.0000
  C   C33       1.0  0.14321  0.31537  0.13129  1.0000
  H   H55       1.0  0.12348  0.29284  0.98161  1.0000
  C   C34       1.0  0.06342  0.31399  0.17256  1.0000
  S   S15       1.0  0.20153  0.31578  0.10410  1.0000
  C   C35       1.0  0.15680  0.31052  0.12183  1.0000
  H   H56       1.0  0.23492  0.31420  0.09774  1.0000
  H   H57       1.0  0.21986  0.31341  0.21903  1.0000
  H   H58       1.0  0.11513  0.31192  0.98229  1.0000
  S   S16       1.0  0.14199  0.31113  0.20063  1.0000
  H   H59       1.0  0.28565  0.30204  0.05439  1.0000
  C   C36       1.0  0.32511  0.31614  0.01918  1.0000
  C   C37       1.0  0.07122  0.31372  0.18307  1.0000
  H   H60       1.0  0.31032  0.30640  0.21340  1.0000
  H   H61       1.0  0.28535  0.31521  0.13090  1.0000
  H   H62       1.0  0.16609  0.31733  0.03213  1.0000
  H   H63       1.0  0.26192  0.31785  0.06468  1.0000
  H   H64       1.0  0.00873  0.22352  0.25011  1.0000
  H   H65       1.0  0.09339  0.29229  0.23408  1.0000
  H   H66       1.0  0.03432  0.06794  0.46186  1.0000
  C   C38       1.0  0.31442  0.03668  0.46563  1.0000
  H   H67       1.0  0.02628  0.21556  0.30939  1.0000
  C   C39       1.0  0.11913  0.23264  0.47480  1.0000
  S   S17       1.0  0.00466  0.24180  0.27014  1.0000
  C   C40       1.0  0.15696  0.30863  0.44922  1.0000
  S   S18       1.0  0.00588  0.17060  0.42447  1.0000
  H   H68       1.0  0.21282  0.04547  0.41608  1.0000
  H   H69       1.0  0.02016  0.10132  0.42080  1.0000
  Fe  Fe9       1.0  0.25038  0.02413  0.47232  1.0000
  H   H70       1.0  0.13861  0.00352  0.44895  1.0000
  H   H71       1.0  0.14050  0.28309  0.28887  1.0000
  H   H72       1.0  0.00203  0.20739  0.37191  1.0000
  H   H73       1.0  0.22842  0.02085  0.41147  1.0000
  Fe  Fe10      1.0  0.12916  0.05748  0.44412  1.0000
  S   S19       1.0  0.10880  0.05214  0.46113  1.0000
  S   S20       1.0  0.15151  0.04273  0.44742  1.0000
  Fe  Fe11      1.0  0.11119  0.08666  0.42893  1.0000
  S   S21       1.0  0.08954  0.08344  0.44478  1.0000
  S   S22       1.0  0.10844  0.10751  0.41119  1.0000
  Fe  Fe12      1.0  0.10331  0.07623  0.46201  1.0000
  Fe  Fe13      1.0  0.09726  0.05993  0.44206  1.0000
  S   S23       1.0  0.08469  0.04687  0.43563  1.0000
  S   S24       1.0  0.12449  0.08093  0.44638  1.0000
  S   S25       1.0  0.11812  0.06362  0.42487  1.0000
  N   N5        1.0  0.20921  0.02421  0.42933  1.0000
  H   H74       1.0  0.14563  0.28479  0.32506  1.0000
  Fe  Fe14      1.0  0.12114  0.20772  0.42488  1.0000
  S   S26       1.0  0.13121  0.19892  0.40427  1.0000
  S   S27       1.0  0.13750  0.21464  0.43302  1.0000
  Fe  Fe15      1.0  0.09175  0.19846  0.42966  1.0000
  S   S28       1.0  0.09987  0.18831  0.40983  1.0000
  S   S29       1.0  0.06866  0.19655  0.44320  1.0000
  Fe  Fe16      1.0  0.12148  0.17930  0.41730  1.0000
  S   S30       1.0  0.13592  0.15632  0.41980  1.0000
  Fe  Fe17      1.0  0.10861  0.20902  0.39895  1.0000
  S   S31       1.0  0.11262  0.18750  0.43829  1.0000
  S   S32       1.0  0.09923  0.21982  0.41839  1.0000
  S   S33       1.0  0.02874  0.20244  0.39851  1.0000
  S   S34       1.0  0.01375  0.05967  0.45058  1.0000
  H   H75       1.0  0.08834  0.15674  0.42088  1.0000
  C   C41       1.0  0.05692  0.19875  0.43120  1.0000
  C   C42       1.0  0.06123  0.20516  0.41621  1.0000
  C   C43       1.0  0.05253  0.20601  0.40636  1.0000
  C   C44       1.0  0.03942  0.20056  0.41137  1.0000
  C   C45       1.0  0.03501  0.19414  0.42639  1.0000
  C   C46       1.0  0.04374  0.19331  0.43632  1.0000
  H   H76       1.0  0.07128  0.20951  0.41217  1.0000
  H   H77       1.0  0.05612  0.21068  0.39475  1.0000
  H   H78       1.0  0.04033  0.18837  0.44792  1.0000
  C   C47       1.0  0.13962  0.21944  0.45870  1.0000
  C   C48       1.0  0.13000  0.22044  0.44969  1.0000
  H   H79       1.0  0.06878  0.15647  0.42711  1.0000
  H   H80       1.0  0.15138  0.21427  0.45579  1.0000
  C   C49       1.0  0.06497  0.05102  0.43958  1.0000
  C   C50       1.0  0.05655  0.05924  0.45016  1.0000
  C   C51       1.0  0.04082  0.06187  0.45341  1.0000
  C   C52       1.0  0.03345  0.05653  0.44592  1.0000
  C   C53       1.0  0.04189  0.04863  0.43507  1.0000
  C   C54       1.0  0.05762  0.04577  0.43202  1.0000
  H   H81       1.0  0.06214  0.06324  0.45611  1.0000
  H   H82       1.0  0.12399  0.30055  0.30449  1.0000
  H   H83       1.0  0.03631  0.04443  0.42929  1.0000
  H   H84       1.0  0.06409  0.03940  0.42381  1.0000
  H   H85       1.0  0.08795  0.27326  0.27323  1.0000
  C   C55       1.0  0.11404  0.12140  0.46659  1.0000
  C   C56       1.0  0.10871  0.10886  0.46764  1.0000
  H   H86       1.0  0.11877  0.12754  0.45583  1.0000
  H   H87       1.0  0.10900  0.10569  0.45769  1.0000
  C   C57       1.0  0.11671  0.12101  0.41282  1.0000
  C   C58       1.0  0.12767  0.11706  0.42111  1.0000
  C   C59       1.0  0.13367  0.12797  0.42300  1.0000
  C   C60       1.0  0.12868  0.14290  0.41665  1.0000
  C   C61       1.0  0.11793  0.14689  0.40809  1.0000
  C   C62       1.0  0.11199  0.13593  0.40612  1.0000
  H   H88       1.0  0.13180  0.10558  0.42582  1.0000
  H   H89       1.0  0.14212  0.12483  0.42948  1.0000
  H   H90       1.0  0.11433  0.15838  0.40283  1.0000
  H   H91       1.0  0.10366  0.13902  0.39950  1.0000
  C   C63       1.0  0.15723  0.02682  0.44002  1.0000
  C   C64       1.0  0.16616  0.01404  0.44702  1.0000
  C   C65       1.0  0.17120  0.00129  0.44112  1.0000
  C   C66       1.0  0.16740  0.00130  0.42813  1.0000
  C   C67       1.0  0.15847  0.01408  0.42114  1.0000
  C   C68       1.0  0.15333  0.02682  0.42710  1.0000
  H   H92       1.0  0.16902  0.01391  0.45715  1.0000
  H   H93       1.0  0.12812  0.01529  0.42584  1.0000
  H   H94       1.0  0.15561  0.01415  0.41102  1.0000
  H   H95       1.0  0.14660  0.03672  0.42154  1.0000
  C   C69       1.0  0.28054  0.99670  0.44141  1.0000
  H   H96       1.0  0.07545  0.17155  0.42853  1.0000
  H   H97       1.0  0.03667  0.23928  0.36313  1.0000
  C   C70       1.0  0.23711  0.99988  0.46202  1.0000
  H   H98       1.0  0.28604  0.00852  0.41236  1.0000
  H   H99       1.0  0.30090  0.00279  0.45185  1.0000
  H   H100      1.0  0.21685  0.04098  0.43416  1.0000
  C   C71       1.0  0.14308  0.07951  0.47503  1.0000
  C   C72       1.0  0.23926  0.99099  0.45204  1.0000
  C   C73       1.0  0.11478  0.22689  0.45361  1.0000
  H   H101      1.0  0.14048  0.08981  0.46650  1.0000
  S   S35       1.0  0.00986  0.05112  0.41293  1.0000
  H   H102      1.0  0.10730  0.22760  0.44668  1.0000
  H   H103      1.0  0.22518  0.00429  0.42488  1.0000
  Fe  Fe18      1.0  0.00094  0.26019  0.28172  1.0000
  H   H104      1.0  0.19773  0.04623  0.43215  1.0000
  H   H105      1.0  0.20444  0.00543  0.44683  1.0000
  S   S36       1.0  0.10387  0.22118  0.37672  1.0000
  Fe  Fe19      1.0  0.00728  0.15714  0.40824  1.0000
  H   H106      1.0  0.30340  0.01328  0.41118  1.0000
  H   H107      1.0  0.20236  0.02805  0.40888  1.0000
  H   H108      1.0  0.17262  0.07781  0.47136  1.0000
  C   C74       1.0  0.01440  0.22005  0.30844  1.0000
  C   C75       1.0  0.09296  0.15598  0.44745  1.0000
  Fe  Fe20      1.0  0.01192  0.18811  0.40419  1.0000
  H   H109      1.0  0.07023  0.28342  0.24061  1.0000
  N   N6        1.0  0.06182  0.09655  0.41136  1.0000
  C   C76       1.0  0.05103  0.09466  0.42576  1.0000
  C   C77       1.0  0.05366  0.10102  0.39928  1.0000
  C   C78       1.0  0.07278  0.08238  0.41021  1.0000
  C   C79       1.0  0.06977  0.10815  0.41020  1.0000
  H   H110      1.0  0.04484  0.08597  0.42698  1.0000
  H   H111      1.0  0.04258  0.10517  0.42699  1.0000
  H   H112      1.0  0.05679  0.09121  0.43514  1.0000
  H   H113      1.0  0.04540  0.11177  0.39975  1.0000
  H   H114      1.0  0.06145  0.10241  0.38824  1.0000
  H   H115      1.0  0.04732  0.09263  0.39996  1.0000
  H   H116      1.0  0.07907  0.07864  0.41920  1.0000
  H   H117      1.0  0.08118  0.08338  0.39953  1.0000
  H   H118      1.0  0.06717  0.07335  0.41106  1.0000
  H   H119      1.0  0.07824  0.10969  0.39958  1.0000
  H   H120      1.0  0.07593  0.10522  0.41922  1.0000
  H   H121      1.0  0.06185  0.11905  0.41082  1.0000
  H   H122      1.0  0.11717  0.03033  0.43451  1.0000
  N   N7        1.0  0.10195  0.31162  0.38461  1.0000
  H   H123      1.0  0.16802  0.30996  0.44871  1.0000
  H   H124      1.0  0.06348  0.16708  0.45535  1.0000
  H   H125      1.0  0.10977  0.31543  0.36098  1.0000
  H   H126      1.0  0.13116  0.28858  0.47038  1.0000
  H   H127      1.0  0.09893  0.30874  0.40812  1.0000
  C   C80       1.0  0.22811  0.99659  0.47620  1.0000
  H   H128      1.0  0.30196  0.99427  0.41647  1.0000
  C   C81       1.0  0.30419  0.00221  0.43999  1.0000
  H   H129      1.0  0.11130  0.28827  0.38601  1.0000
  N   N8        1.0  0.08071  0.15137  0.44450  1.0000
  C   C82       1.0  0.06684  0.15495  0.45568  1.0000
  C   C83       1.0  0.08480  0.13522  0.44528  1.0000
  H   H130      1.0  0.09517  0.15020  0.45861  1.0000
  H   H131      1.0  0.10817  0.02039  0.42771  1.0000
  H   H132      1.0  0.11741  0.30391  0.45090  1.0000
  H   H133      1.0  0.09580  0.13198  0.43775  1.0000
  H   H134      1.0  0.07632  0.13149  0.44212  1.0000
  H   H135      1.0  0.08570  0.12886  0.45667  1.0000
  N   N9        1.0  0.15815  0.16760  0.44587  1.0000
  C   C84       1.0  0.15280  0.17786  0.45606  1.0000
  C   C85       1.0  0.14859  0.15666  0.45040  1.0000
  C   C86       1.0  0.17380  0.15974  0.44635  1.0000
  C   C87       1.0  0.15740  0.17610  0.43065  1.0000
  H   H136      1.0  0.15957  0.18647  0.45276  1.0000
  H   H137      1.0  0.15358  0.17185  0.46758  1.0000
  H   H138      1.0  0.14092  0.18376  0.45614  1.0000
  H   H139      1.0  0.15242  0.14857  0.44311  1.0000
  H   H140      1.0  0.14861  0.15028  0.46192  1.0000
  H   H141      1.0  0.13673  0.16209  0.44989  1.0000
  H   H142      1.0  0.17836  0.15233  0.43837  1.0000
  H   H143      1.0  0.17464  0.15271  0.45754  1.0000
  H   H144      1.0  0.18123  0.16766  0.44370  1.0000
  H   H145      1.0  0.16105  0.16869  0.42268  1.0000
  H   H146      1.0  0.14577  0.18221  0.42998  1.0000
  H   H147      1.0  0.10363  0.15354  0.43921  1.0000
  C   C88       1.0  0.07821  0.15935  0.42961  1.0000
  C   C89       1.0  0.99809  0.11801  0.38963  1.0000
  H   H148      1.0  0.13747  0.27607  0.31613  1.0000
  C   C90       1.0  0.14979  0.28838  0.28809  1.0000
  H   H149      1.0  0.09018  0.16809  0.44702  1.0000
  H   H150      1.0  0.16448  0.18447  0.42682  1.0000
  C   C91       1.0  0.19883  0.02331  0.42089  1.0000
  H   H151      1.0  0.19828  0.01162  0.42206  1.0000
  N   N10       1.0  0.11545  0.00860  0.44787  1.0000
  H   H152      1.0  0.02480  0.19003  0.43034  1.0000
  C   C92       1.0  0.11734  0.01909  0.43334  1.0000
  H   H153      1.0  0.23271  0.01725  0.42928  1.0000
  C   C93       1.0  0.01417  0.10603  0.41198  1.0000
  S   S37       1.0  0.01521  0.17388  0.38814  1.0000
  H   H154      1.0  0.05733  0.15168  0.45379  1.0000
  C   C94       1.0  0.20915  0.03994  0.42785  1.0000
  H   H155      1.0  0.12591  0.00058  0.46655  1.0000
  H   H156      1.0  0.12139  0.23544  0.38663  1.0000
  H   H157      1.0  0.12732  0.01913  0.45652  1.0000
  S   S38       1.0  0.01786  0.13267  0.41339  1.0000
  H   H158      1.0  0.21180  0.01809  0.45183  1.0000
  C   C95       1.0  0.00511  0.23805  0.22938  1.0000
  C   C96       1.0  0.14942  0.25076  0.42981  1.0000
  H   H159      1.0  0.19274  0.02298  0.44984  1.0000
  C   C97       1.0  0.01781  0.29707  0.22914  1.0000
  H   H160      1.0  0.24636  0.99326  0.44114  1.0000
  H   H161      1.0  0.17147  0.29202  0.29875  1.0000
  H   H162      1.0  0.13200  0.30920  0.31368  1.0000
  C   C98       1.0  0.22454  0.01632  0.42348  1.0000
  C   C99       1.0  0.01151  0.12134  0.40607  1.0000
  H   H163      1.0  0.01062  0.08498  0.41170  1.0000
  C   C100      1.0  0.20432  0.01739  0.44513  1.0000
  H   H164      1.0  0.18723  0.02947  0.42478  1.0000
  C   C101      1.0  0.10038  0.29641  0.38599  1.0000
  S   S39       1.0  0.99921  0.28441  0.27132  1.0000
  C   C102      1.0  0.10934  0.23307  0.46615  1.0000
  C   C103      1.0  0.00860  0.09677  0.40695  1.0000
  H   H165      1.0  0.27298  0.02571  0.42976  1.0000
  C   C104      1.0  0.09398  0.28923  0.24591  1.0000
  H   H166      1.0  0.09945  0.02490  0.45897  1.0000
  C   C105      1.0  0.13383  0.30502  0.30354  1.0000
  C   C106      1.0  0.04563  0.25977  0.37070  1.0000
  H   H167      1.0  0.03789  0.26491  0.36298  1.0000
  C   C107      1.0  0.00354  0.12734  0.39480  1.0000
  H   H168      1.0  0.05592  0.25158  0.34456  1.0000
  H   H169      1.0  0.15942  0.30432  0.31037  1.0000
  H   H170      1.0  0.03878  0.25880  0.38221  1.0000
  S   S40       1.0  0.13165  0.28758  0.24204  1.0000
  C   C108      1.0  0.16061  0.30022  0.30030  1.0000
  H   H171      1.0  0.05846  0.30569  0.26034  1.0000
  H   H172      1.0  0.12769  0.98957  0.43873  1.0000
  H   H173      1.0  0.09227  0.29270  0.39629  1.0000
  C   C109      1.0  0.28321  0.02208  0.43441  1.0000
  C   C110      1.0  0.12444  0.29867  0.25510  1.0000
  H   H174      1.0  0.31034  0.99065  0.43923  1.0000
  H   H175      1.0  0.27959  0.02316  0.44612  1.0000
  C   C111      1.0  0.10060  0.01368  0.45711  1.0000
  C   C112      1.0  0.11184  0.30144  0.28009  1.0000
  C   C113      1.0  0.11876  0.29237  0.26986  1.0000
  H   H176      1.0  0.27596  0.99780  0.45309  1.0000
  H   H177      1.0  0.10709  0.29659  0.29132  1.0000
  H   H178      1.0  0.11935  0.28054  0.27327  1.0000
  C   C114      1.0  0.04901  0.30175  0.29554  1.0000
  H   H179      1.0  0.06837  0.14919  0.46707  1.0000
  H   H180      1.0  0.09945  0.29722  0.24763  1.0000
  C   C115      1.0  0.07151  0.27981  0.25229  1.0000
  C   C116      1.0  0.00600  0.23493  0.24422  1.0000
  S   S41       1.0  0.30174  0.03182  0.45864  1.0000
  C   C117      1.0  0.05424  0.29981  0.30833  1.0000
  H   H181      1.0  0.06898  0.30928  0.24159  1.0000
  Fe  Fe21      1.0  0.01422  0.28334  0.28600  1.0000
  H   H182      1.0  0.13566  0.28783  0.42741  1.0000
  Fe  Fe22      1.0  0.00148  0.05471  0.43615  1.0000
  S   S42       1.0  0.03314  0.29510  0.27933  1.0000
  N   N11       1.0  0.14787  0.29365  0.30163  1.0000
  C   C118      1.0  0.03420  0.28337  0.30848  1.0000
  C   C119      1.0  0.11656  0.99370  0.44567  1.0000
  C   C120      1.0  0.01534  0.20179  0.29526  1.0000
  H   H183      1.0  0.15013  0.07062  0.46918  1.0000
  S   S43       1.0  0.01769  0.25880  0.29469  1.0000
  C   C121      1.0  0.03909  0.29339  0.29554  1.0000
  C   C122      1.0  0.00009  0.22843  0.35640  1.0000
  H   H184      1.0  0.07213  0.22794  0.37647  1.0000
  H   H185      1.0  0.00847  0.22548  0.31791  1.0000
  C   C123      1.0  0.99980  0.26120  0.24369  1.0000
  H   H186      1.0  0.07806  0.26814  0.25390  1.0000
  C   C124      1.0  0.06998  0.30498  0.25333  1.0000
  N   N12       1.0  0.07897  0.28961  0.25572  1.0000
  H   H187      1.0  0.08524  0.29213  0.27450  1.0000
  C   C125      1.0  0.12850  0.30519  0.45038  1.0000
  C   C126      1.0  0.11098  0.31675  0.27563  1.0000
  C   C127      1.0  0.12731  0.00794  0.45532  1.0000
  C   C128      1.0  0.00339  0.24645  0.25144  1.0000
  H   H188      1.0  0.11816  0.30498  0.39823  1.0000
  S   S44       1.0  0.17330  0.98534  0.42078  1.0000
  N   N13       1.0  0.00728  0.20832  0.30824  1.0000
  C   C129      1.0  0.08046  0.28447  0.27128  1.0000
  H   H189      1.0  0.00829  0.23179  0.35985  1.0000
  S   S45       1.0  0.25877  0.04507  0.46246  1.0000
  N   N14       1.0  0.05470  0.24518  0.36802  1.0000
  H   H190      1.0  0.16239  0.25854  0.44720  1.0000
  H   H191      1.0  0.10780  0.99382  0.44002  1.0000
  S   S46       1.0  0.24420  0.01606  0.45562  1.0000
  H   H192      1.0  0.02661  0.27681  0.30866  1.0000
  S   S47       1.0  0.16067  0.28716  0.47424  1.0000
  H   H193      1.0  0.29067  0.02997  0.42849  1.0000
  H   H194      1.0  0.27082  0.99919  0.43619  1.0000
  N   N15       1.0  0.01814  0.31258  0.22826  1.0000
  H   H195      1.0  0.15751  0.27223  0.31365  1.0000
  H   H196      1.0  0.16049  0.28006  0.28603  1.0000
  H   H197      1.0  0.06011  0.27986  0.25954  1.0000
  H   H198      1.0  0.06206  0.30612  0.30819  1.0000
  C   C130      1.0  0.99895  0.26435  0.22874  1.0000
  H   H199      1.0  0.07293  0.24630  0.37650  1.0000
  H   H200      1.0  0.15406  0.24120  0.43810  1.0000
  H   H201      1.0  0.01498  0.21033  0.28473  1.0000
  Fe  Fe23      1.0  0.10186  0.29919  0.34063  1.0000
  H   H202      1.0  0.09630  0.29567  0.37654  1.0000
  S   S48       1.0  0.11942  0.28452  0.35288  1.0000
  H   H203      1.0  0.14788  0.27858  0.41330  1.0000
  S   S49       1.0  0.07825  0.30426  0.35350  1.0000
  C   C131      1.0  0.03923  0.28161  0.32132  1.0000
  C   C132      1.0  0.15054  0.29817  0.46080  1.0000
  H   H204      1.0  0.06943  0.28370  0.27895  1.0000
  C   C133      1.0  0.14713  0.28111  0.31465  1.0000
  H   H205      1.0  0.13391  0.31474  0.29399  1.0000
  H   H206      1.0  0.02734  0.19692  0.29553  1.0000
  C   C134      1.0  0.13624  0.29652  0.46141  1.0000
  H   H207      1.0  0.14986  0.29771  0.27815  1.0000
  N   N16       1.0  0.29093  0.00666  0.43335  1.0000
  H   H208      1.0  0.01432  0.22884  0.29812  1.0000
  H   H209      1.0  0.10152  0.27805  0.24787  1.0000
  H   H210      1.0  0.12882  0.27363  0.45292  1.0000
  C   C135      1.0  0.13915  0.27714  0.42371  1.0000
  C   C136      1.0  0.11544  0.26675  0.35963  1.0000
  C   C137      1.0  0.12088  0.25700  0.37173  1.0000
  C   C138      1.0  0.10344  0.24822  0.35815  1.0000
  C   C139      1.0  0.10661  0.26235  0.35299  1.0000
  H   H211      1.0  0.12775  0.26032  0.37690  1.0000
  H   H212      1.0  0.10240  0.26967  0.34368  1.0000
  H   H213      1.0  0.03534  0.27385  0.33127  1.0000
  S   S50       1.0  0.09585  0.29415  0.32197  1.0000
  C   C140      1.0  0.04929  0.28978  0.32126  1.0000
  H   H214      1.0  0.15494  0.27810  0.44233  1.0000
  H   H215      1.0  0.16128  0.30988  0.29074  1.0000
  H   H216      1.0  0.12927  0.27530  0.42103  1.0000
  N   N17       1.0  0.14485  0.26468  0.43517  1.0000
  C   C141      1.0  0.10862  0.23855  0.37035  1.0000
  H   H217      1.0  0.09694  0.24476  0.35269  1.0000
  Fe  Fe24      1.0  0.07216  0.30121  0.33392  1.0000
  C   C142      1.0  0.00044  0.10273  0.39585  1.0000
  H   H218      1.0  0.09867  0.00601  0.46812  1.0000
  H   H219      1.0  0.07072  0.23636  0.35021  1.0000
  S   S51       1.0  0.05563  0.28720  0.33740  1.0000
  C   C143      1.0  0.15791  0.26759  0.43842  1.0000
  C   C144      1.0  0.11730  0.24295  0.37723  1.0000
  C   C145      1.0  0.13415  0.22536  0.47136  1.0000
  C   C146      1.0  0.06510  0.23897  0.37819  1.0000
  H   H220      1.0  0.05897  0.23743  0.38998  1.0000
  C   C147      1.0  0.04471  0.23496  0.37058  1.0000
  H   H221      1.0  0.03801  0.23320  0.38218  1.0000
  H   H222      1.0  0.12310  0.26041  0.44691  1.0000
  H   H223      1.0  0.16720  0.26861  0.42845  1.0000
  H   H224      1.0  0.15819  0.25149  0.41939  1.0000
  H   H225      1.0  0.13978  0.24792  0.42763  1.0000
  H   H226      1.0  0.13698  0.25429  0.45780  1.0000
  H   H227      1.0  0.07073  0.25506  0.35019  1.0000
  H   H228      1.0  0.05118  0.22382  0.36867  1.0000
  H   H229      1.0  0.01029  0.19287  0.29473  1.0000
  C   C148      1.0  0.03114  0.31275  0.23369  1.0000
  H   H230      1.0  0.09137  0.01457  0.45170  1.0000
  C   C149      1.0  0.14923  0.31726  0.43813  1.0000
  H   H231      1.0  0.05286  0.26771  0.36892  1.0000
  C   C150      1.0  0.00792  0.19667  0.32196  1.0000
  H   H232      1.0  0.16280  0.09694  0.46864  1.0000
  Fe  Fe25      1.0  0.27840  0.03294  0.47258  1.0000
  C   C151      1.0  0.29577  0.00568  0.41764  1.0000
  H   H233      1.0  0.00235  0.18777  0.32237  1.0000
  H   H234      1.0  0.09766  0.23855  0.46890  1.0000
  C   C152      1.0  0.06341  0.24707  0.35257  1.0000
  C   C153      1.0  0.13291  0.26322  0.44876  1.0000
  H   H235      1.0  0.17778  0.99136  0.44680  1.0000
  H   H236      1.0  0.00221  0.20129  0.33197  1.0000
  H   H237      1.0  0.01968  0.19139  0.32297  1.0000
  C   C154      1.0  0.12339  0.31396  0.25062  1.0000
  H   H238      1.0  0.01786  0.29015  0.24049  1.0000
  H   H239      1.0  0.31216  0.00966  0.43430  1.0000
  H   H240      1.0  0.05269  0.30969  0.28569  1.0000
  H   H241      1.0  0.00157  0.13914  0.39007  1.0000
  C   C155      1.0  0.10689  0.31224  0.39761  1.0000
  C   C156      1.0  0.99644  0.21462  0.36335  1.0000
  H   H242      1.0  0.07517  0.31264  0.25606  1.0000
  H   H243      1.0  0.00277  0.31347  0.24926  1.0000
  H   H244      1.0  0.03049  0.30659  0.24542  1.0000
  C   C157      1.0  0.13499  0.31552  0.43867  1.0000
  C   C158      1.0  0.11318  0.31576  0.37099  1.0000
  C   C159      1.0  0.16481  0.08647  0.47711  1.0000
  H   H245      1.0  0.12431  0.30800  0.37108  1.0000
  H   H246      1.0  0.32644  0.00432  0.46408  1.0000
  H   H247      1.0  0.99753  0.27015  0.24922  1.0000
  H   H248      1.0  0.11522  0.98547  0.45640  1.0000
  S   S52       1.0  0.99817  0.25502  0.33666  1.0000
  Fe  Fe26      1.0  0.99765  0.26417  0.31266  1.0000
  S   S53       1.0  0.12062  0.14134  0.47778  1.0000
  H   H249      1.0  0.28615  0.98488  0.44165  1.0000
  H   H250      1.0  0.13048  0.21886  0.61376  1.0000
  S   S54       1.0  0.11406  0.10355  0.62273  1.0000
  C   C160      1.0  0.18757  0.24145  0.57948  1.0000
  C   C161      1.0  0.14903  0.23181  0.57884  1.0000
  H   H251      1.0  0.21735  0.19357  0.62491  1.0000
  Fe  Fe27      1.0  0.18930  0.17121  0.60247  1.0000
  S   S55       1.0  0.16453  0.17862  0.60406  1.0000
  S   S56       1.0  0.20349  0.18066  0.61088  1.0000
  Fe  Fe28      1.0  0.19268  0.14495  0.58921  1.0000
  S   S57       1.0  0.16814  0.14981  0.58976  1.0000
  S   S58       1.0  0.20722  0.12600  0.57881  1.0000
  Fe  Fe29      1.0  0.16994  0.17356  0.58155  1.0000
  S   S59       1.0  0.15949  0.18810  0.56277  1.0000
  Fe  Fe30      1.0  0.16468  0.15436  0.61211  1.0000
  S   S60       1.0  0.19486  0.16845  0.57906  1.0000
  S   S61       1.0  0.18905  0.14720  0.61248  1.0000
  S   S62       1.0  0.18299  0.21526  0.50126  1.0000
  H   H252      1.0  0.21237  0.02020  0.56851  1.0000
  H   H253      1.0  0.08173  0.02697  0.67238  1.0000
  Fe  Fe31      1.0  0.16290  0.14640  0.49524  1.0000
  S   S63       1.0  0.13861  0.15751  0.49993  1.0000
  H   H254      1.0  0.23141  0.01185  0.54085  1.0000
  Fe  Fe32      1.0  0.15756  0.11568  0.51057  1.0000
  S   S64       1.0  0.13263  0.12398  0.51685  1.0000
  S   S65       1.0  0.16799  0.09128  0.51584  1.0000
  Fe  Fe33      1.0  0.13503  0.13805  0.49386  1.0000
  Fe  Fe34      1.0  0.13845  0.14259  0.52244  1.0000
  S   S66       1.0  0.12642  0.15062  0.54326  1.0000
  H   H255      1.0  0.21216  0.01068  0.54713  1.0000
  S   S67       1.0  0.16318  0.13300  0.51827  1.0000
  H   H256      1.0  0.20151  0.15393  0.55196  1.0000
  H   H257      1.0  0.15542  0.28535  0.50705  1.0000
  C   C162      1.0  0.10505  0.23451  0.72242  1.0000
  H   H258      1.0  0.18852  0.14964  0.51464  1.0000
  H   H259      1.0  0.29135  0.08828  0.50717  1.0000
  C   C163      1.0  0.16784  0.18293  0.49411  1.0000
  C   C164      1.0  0.16815  0.19590  0.49796  1.0000
  C   C165      1.0  0.18190  0.19958  0.49610  1.0000
  Fe  Fe35      1.0  0.20017  0.98647  0.65723  1.0000
  S   S68       1.0  0.11266  0.24179  0.48945  1.0000
  H   H260      1.0  0.14163  0.22444  0.47831  1.0000
  H   H261      1.0  0.15787  0.20295  0.50252  1.0000
  C   C166      1.0  0.14072  0.09371  0.49286  1.0000
  H   H262      1.0  0.13524  0.29614  0.53465  1.0000
  H   H263      1.0  0.17024  0.15001  0.53841  1.0000
  H   H264      1.0  0.15598  0.28636  0.71162  1.0000
  C   C167      1.0  0.10179  0.10547  0.49425  1.0000
  C   C168      1.0  0.10726  0.11794  0.49322  1.0000
  H   H265      1.0  0.09704  0.09932  0.50498  1.0000
  H   H266      1.0  0.10665  0.12143  0.50314  1.0000
  H   H267      1.0  0.30982  0.01852  0.62140  1.0000
  H   H268      1.0  0.05212  0.09931  0.71002  1.0000
  C   C169      1.0  0.19473  0.09795  0.49902  1.0000
  C   C170      1.0  0.18704  0.08680  0.50725  1.0000
  C   C171      1.0  0.19455  0.07188  0.50847  1.0000
  H   H269      1.0  0.14332  0.06440  0.50304  1.0000
  H   H270      1.0  0.26889  0.00540  0.64306  1.0000
  H   H271      1.0  0.18902  0.10949  0.49804  1.0000
  C   C172      1.0  0.15597  0.29599  0.50903  1.0000
  H   H272      1.0  0.20779  0.22547  0.59578  1.0000
  H   H273      1.0  0.04363  0.08841  0.61602  1.0000
  C   C173      1.0  0.14960  0.17837  0.55730  1.0000
  C   C174      1.0  0.15015  0.18006  0.54227  1.0000
  C   C175      1.0  0.14354  0.17114  0.53781  1.0000
  C   C176      1.0  0.13564  0.16117  0.54844  1.0000
  C   C177      1.0  0.13449  0.16005  0.56347  1.0000
  C   C178      1.0  0.14168  0.16843  0.56788  1.0000
  H   H274      1.0  0.15603  0.18796  0.53407  1.0000
  H   H275      1.0  0.14445  0.17206  0.52618  1.0000
  H   H276      1.0  0.12824  0.15247  0.57173  1.0000
  H   H277      1.0  0.14087  0.16734  0.57952  1.0000
  C   C179      1.0  0.99697  0.28543  0.70567  1.0000
  H   H278      1.0  0.13914  0.14506  0.60676  1.0000
  H   H279      1.0  0.12612  0.12788  0.60297  1.0000
  C   C180      1.0  0.04803  0.08269  0.63795  1.0000
  H   H280      1.0  0.21064  0.24691  0.55676  1.0000
  C   C181      1.0  0.22130  0.11379  0.58773  1.0000
  C   C182      1.0  0.22347  0.11584  0.60071  1.0000
  H   H281      1.0  0.14258  0.23158  0.60786  1.0000
  C   C183      1.0  0.20661  0.20090  0.62378  1.0000
  H   H282      1.0  0.21691  0.12537  0.60515  1.0000
  Fe  Fe36      1.0  0.16264  0.23385  0.50149  1.0000
  C   C184      1.0  0.17900  0.22001  0.62088  1.0000
  C   C185      1.0  0.18324  0.20665  0.61595  1.0000
  C   C186      1.0  0.19715  0.19716  0.61731  1.0000
  H   H283      1.0  0.22411  0.00943  0.58112  1.0000
  C   C187      1.0  0.02380  0.08476  0.63275  1.0000
  C   C188      1.0  0.24094  0.09121  0.58921  1.0000
  H   H284      1.0  0.17589  0.20375  0.61100  1.0000
  N   N18       1.0  0.20126  0.24547  0.58001  1.0000
  C   C189      1.0  0.23429  0.10553  0.60798  1.0000
  C   C190      1.0  0.17847  0.08185  0.62066  1.0000
  H   H285      1.0  0.06378  0.03959  0.67144  1.0000
  S   S69       1.0  0.15423  0.24661  0.48102  1.0000
  C   C191      1.0  0.12837  0.12656  0.61371  1.0000
  H   H286      1.0  0.18313  0.07786  0.61017  1.0000
  H   H287      1.0  0.19946  0.26405  0.56155  1.0000
  H   H288      1.0  0.06855  0.12873  0.66445  1.0000
  H   H289      1.0  0.19608  0.09890  0.60017  1.0000
  N   N19       1.0  0.17652  0.09811  0.61793  1.0000
  H   H290      1.0  0.13600  0.29184  0.68169  1.0000
  C   C192      1.0  0.27112  0.00014  0.60987  1.0000
  C   C193      1.0  0.16607  0.10549  0.60794  1.0000
  H   H291      1.0  0.16759  0.07841  0.62584  1.0000
  N   N20       1.0  0.11436  0.23974  0.70777  1.0000
  H   H292      1.0  0.12145  0.25977  0.69508  1.0000
  H   H293      1.0  0.22840  0.09972  0.57204  1.0000
  H   H294      1.0  0.18999  0.23442  0.57132  1.0000
  C   C194      1.0  0.17038  0.10293  0.63211  1.0000
  H   H295      1.0  0.15927  0.22271  0.57849  1.0000
  H   H296      1.0  0.17805  0.09772  0.63987  1.0000
  H   H297      1.0  0.11915  0.25689  0.71480  1.0000
  C   C195      1.0  0.19116  0.10219  0.61100  1.0000
  H   H298      1.0  0.15492  0.10255  0.61274  1.0000
  H   H299      1.0  0.16126  0.05889  0.49129  1.0000
  H   H300      1.0  0.28981  0.05817  0.50451  1.0000
  H   H301      1.0  0.02639  0.22199  0.67113  1.0000
  C   C196      1.0  0.31966  0.00914  0.62277  1.0000
  H   H302      1.0  0.02484  0.11029  0.71767  1.0000
  H   H303      1.0  0.27141  0.07303  0.48867  1.0000
  N   N21       1.0  0.10905  0.19999  0.51663  1.0000
  C   C197      1.0  0.10035  0.21212  0.52423  1.0000
  C   C198      1.0  0.10314  0.20125  0.50360  1.0000
  C   C199      1.0  0.10779  0.18554  0.52691  1.0000
  C   C200      1.0  0.12495  0.20102  0.51179  1.0000
  C   C201      1.0  0.31826  0.00353  0.49328  1.0000
  H   H304      1.0  0.10462  0.21152  0.53405  1.0000
  H   H305      1.0  0.08829  0.21170  0.52805  1.0000
  H   H306      1.0  0.10968  0.19245  0.49743  1.0000
  H   H307      1.0  0.09123  0.20027  0.50684  1.0000
  H   H308      1.0  0.10363  0.21216  0.49576  1.0000
  H   H309      1.0  0.11202  0.18423  0.53696  1.0000
  H   H310      1.0  0.11440  0.17611  0.52163  1.0000
  H   H311      1.0  0.09598  0.18424  0.53069  1.0000
  H   H312      1.0  0.12977  0.20019  0.52133  1.0000
  H   H313      1.0  0.09623  0.24458  0.69670  1.0000
  H   H314      1.0  0.13186  0.19202  0.50605  1.0000
  H   H315      1.0  0.07276  0.05591  0.63959  1.0000
  C   C202      1.0  0.13862  0.13464  0.62972  1.0000
  H   H316      1.0  0.16826  0.22722  0.61994  1.0000
  C   C203      1.0  0.24310  0.09323  0.60222  1.0000
  S   S70       1.0  0.14841  0.14618  0.63253  1.0000
  H   H317      1.0  0.22632  0.99483  0.54246  1.0000
  H   H318      1.0  0.18259  0.13535  0.54821  1.0000
  H   H319      1.0  0.15165  0.24150  0.58096  1.0000
  H   H320      1.0  0.19945  0.09678  0.61811  1.0000
  S   S71       1.0  0.01253  0.08805  0.62002  1.0000
  H   H321      1.0  0.21498  0.15341  0.53475  1.0000
  H   H322      1.0  0.17529  0.15269  0.55390  1.0000
  H   H323      1.0  0.20850  0.13698  0.54565  1.0000
  H   H324      1.0  0.21533  0.22428  0.57682  1.0000
  H   H325      1.0  0.17933  0.17299  0.52302  1.0000
  C   C204      1.0  0.23004  0.10143  0.58203  1.0000
  C   C205      1.0  0.17962  0.14758  0.54407  1.0000
  H   H326      1.0  0.18628  0.07592  0.62819  1.0000
  H   H327      1.0  0.19008  0.11439  0.60885  1.0000
  C   C206      1.0  0.18835  0.16960  0.52931  1.0000
  C   C207      1.0  0.03895  0.08554  0.62777  1.0000
  H   H328      1.0  0.16862  0.11519  0.63042  1.0000
  H   H329      1.0  0.22279  0.23440  0.58513  1.0000
  H   H330      1.0  0.19796  0.17435  0.52194  1.0000
  C   C208      1.0  0.12296  0.23939  0.59032  1.0000
  H   H331      1.0  0.24715  0.00725  0.58718  1.0000
  C   C209      1.0  0.19749  0.25496  0.59078  1.0000
  C   C210      1.0  0.18867  0.22385  0.62712  1.0000
  H   H332      1.0  0.18418  0.17501  0.53894  1.0000
  N   N22       1.0  0.15063  0.08192  0.48537  1.0000
  H   H333      1.0  0.05968  0.08336  0.63405  1.0000
  N   N23       1.0  0.19263  0.15328  0.53403  1.0000
  C   C211      1.0  0.20497  0.14924  0.54189  1.0000
  H   H334      1.0  0.20736  0.15076  0.51303  1.0000
  H   H335      1.0  0.16422  0.11778  0.60578  1.0000
  H   H336      1.0  0.32488  0.03547  0.62249  1.0000
  C   C212      1.0  0.13581  0.13624  0.61583  1.0000
  S   S72       1.0  0.14008  0.23180  0.51601  1.0000
  C   C213      1.0  0.12372  0.11528  0.62548  1.0000
  C   C214      1.0  0.20236  0.21413  0.62872  1.0000
  H   H337      1.0  0.18943  0.26551  0.58756  1.0000
  H   H338      1.0  0.21792  0.25703  0.56523  1.0000
  C   C215      1.0  0.19757  0.14669  0.52087  1.0000
  H   H339      1.0  0.20078  0.13437  0.52398  1.0000
  H   H340      1.0  0.27845  0.09910  0.49562  1.0000
  C   C216      1.0  0.15381  0.06806  0.49654  1.0000
  C   C217      1.0  0.20764  0.25370  0.56522  1.0000
  H   H341      1.0  0.10297  0.26255  0.70681  1.0000
  N   N24       1.0  0.13624  0.22696  0.59019  1.0000
  H   H342      1.0  0.05709  0.02284  0.66005  1.0000
  H   H343      1.0  0.12505  0.24905  0.59304  1.0000
  H   H344      1.0  0.17044  0.10230  0.59704  1.0000
  C   C218      1.0  0.21230  0.23182  0.58459  1.0000
  H   H345      1.0  0.14655  0.23520  0.56759  1.0000
  H   H346      1.0  0.19228  0.24930  0.60197  1.0000
  C   C219      1.0  0.12644  0.11379  0.63939  1.0000
  H   H347      1.0  0.23596  0.10719  0.61798  1.0000
  S   S73       1.0  0.23723  0.03099  0.49358  1.0000
  H   H348      1.0  0.14990  0.21287  0.60531  1.0000
  S   S74       1.0  0.28442  0.00777  0.61292  1.0000
  C   C220      1.0  0.14002  0.22231  0.60491  1.0000
  H   H349      1.0  0.15937  0.09993  0.63769  1.0000
  H   H350      1.0  0.15558  0.99076  0.68611  1.0000
  H   H351      1.0  0.07494  0.01026  0.66094  1.0000
  H   H352      1.0  0.02144  0.09032  0.69946  1.0000
  C   C221      1.0  0.06902  0.02030  0.65404  1.0000
  C   C222      1.0  0.13380  0.12351  0.64151  1.0000
  H   H353      1.0  0.11979  0.24324  0.57937  1.0000
  C   C223      1.0  0.07553  0.03647  0.66519  1.0000
  C   C224      1.0  0.25255  0.03158  0.64910  1.0000
  H   H354      1.0  0.18254  0.23514  0.59044  1.0000
  H   H355      1.0  0.08075  0.04599  0.66328  1.0000
  H   H356      1.0  0.20298  0.99719  0.57243  1.0000
  S   S75       1.0  0.09689  0.06846  0.64303  1.0000
  C   C225      1.0  0.25056  0.03433  0.53086  1.0000
  H   H357      1.0  0.11309  0.23618  0.59881  1.0000
  H   H358      1.0  0.09317  0.24081  0.72359  1.0000
  H   H359      1.0  0.07439  0.13351  0.67820  1.0000
  H   H360      1.0  0.17893  0.25152  0.57627  1.0000
  N   N25       1.0  0.22574  0.99954  0.56318  1.0000
  H   H361      1.0  0.09707  0.14390  0.63290  1.0000
  C   C226      1.0  0.09187  0.02921  0.64311  1.0000
  H   H362      1.0  0.17810  0.17685  0.66597  1.0000
  H   H363      1.0  0.02318  0.25009  0.69229  1.0000
  C   C227      1.0  0.25843  0.00501  0.65178  1.0000
  H   H364      1.0  0.03765  0.12260  0.67701  1.0000
  H   H365      1.0  0.16244  0.19221  0.66405  1.0000
  S   S76       1.0  0.11806  0.07613  0.66094  1.0000
  H   H366      1.0  0.16547  0.03220  0.67471  1.0000
  H   H367      1.0  0.12342  0.31668  0.49940  1.0000
  Fe  Fe37      1.0  0.01883  0.15662  0.68738  1.0000
  C   C228      1.0  0.13837  0.02638  0.66160  1.0000
  H   H368      1.0  0.25335  0.02229  0.62536  1.0000
  H   H369      1.0  0.00611  0.08049  0.65187  1.0000
  C   C229      1.0  0.09908  0.14253  0.66000  1.0000
  C   C230      1.0  0.14661  0.01380  0.65601  1.0000
  H   H370      1.0  0.09661  0.12518  0.64278  1.0000
  H   H371      1.0  0.12268  0.10531  0.64860  1.0000
  S   S77       1.0  0.04359  0.14888  0.68576  1.0000
  N   N26       1.0  0.24687  0.01876  0.64906  1.0000
  C   C231      1.0  0.15206  0.18316  0.64571  1.0000
  H   H372      1.0  0.20585  0.19323  0.48890  1.0000
  H   H373      1.0  0.07205  0.14882  0.69155  1.0000
  Fe  Fe38      1.0  0.08835  0.18669  0.70613  1.0000
  H   H374      1.0  0.13353  0.29877  0.49593  1.0000
  S   S78       1.0  0.06411  0.19562  0.70549  1.0000
  Fe  Fe39      1.0  0.11980  0.19201  0.69612  1.0000
  S   S79       1.0  0.12896  0.17143  0.71141  1.0000
  S   S80       1.0  0.13605  0.20583  0.68224  1.0000
  Fe  Fe40      1.0  0.11510  0.16098  0.70356  1.0000
  S   S81       1.0  0.12691  0.14110  0.69359  1.0000
  H   H375      1.0  0.23541  0.01606  0.67196  1.0000
  S   S82       1.0  0.10727  0.18139  0.68713  1.0000
  S   S83       1.0  0.10014  0.19961  0.71325  1.0000
  Fe  Fe41      1.0  0.09629  0.08354  0.67647  1.0000
  C   C232      1.0  0.17036  0.18342  0.65854  1.0000
  S   S84       1.0  0.09010  0.09480  0.69555  1.0000
  H   H376      1.0  0.22858  0.00810  0.66110  1.0000
  H   H377      1.0  0.10515  0.15056  0.65146  1.0000
  Fe  Fe42      1.0  0.07714  0.07567  0.66052  1.0000
  S   S85       1.0  0.05310  0.07364  0.66630  1.0000
  C   C233      1.0  0.13083  0.21702  0.66603  1.0000
  S   S86       1.0  0.08828  0.06295  0.67926  1.0000
  H   H378      1.0  0.17716  0.18908  0.64821  1.0000
  S   S87       1.0  0.11925  0.03282  0.66101  1.0000
  H   H379      1.0  0.10105  0.22319  0.51677  1.0000
  C   C234      1.0  0.16029  0.02714  0.66932  1.0000
  C   C235      1.0  0.11629  0.12872  0.69378  1.0000
  C   C236      1.0  0.12283  0.11764  0.68563  1.0000
  C   C237      1.0  0.11474  0.10740  0.68579  1.0000
  C   C238      1.0  0.10020  0.10798  0.69444  1.0000
  C   C239      1.0  0.09359  0.11916  0.70246  1.0000
  C   C240      1.0  0.10156  0.12962  0.70201  1.0000
  H   H380      1.0  0.13426  0.11687  0.67933  1.0000
  H   H381      1.0  0.11992  0.09879  0.67961  1.0000
  H   H382      1.0  0.08232  0.11967  0.70914  1.0000
  H   H383      1.0  0.09643  0.13813  0.70832  1.0000
  C   C241      1.0  0.16170  0.00803  0.65690  1.0000
  C   C242      1.0  0.11618  0.21982  0.66407  1.0000
  S   S88       1.0  0.08379  0.09661  0.65883  1.0000
  C   C243      1.0  0.14154  0.22358  0.65505  1.0000
  C   C244      1.0  0.32054  0.04419  0.48488  1.0000
  H   H384      1.0  0.13002  0.21868  0.70858  1.0000
  H   H385      1.0  0.18126  0.15545  0.65493  1.0000
  C   C245      1.0  0.07511  0.15607  0.65441  1.0000
  H   H386      1.0  0.04005  0.23736  0.68608  1.0000
  C   C246      1.0  0.05107  0.10408  0.69835  1.0000
  H   H387      1.0  0.13902  0.04281  0.67251  1.0000
  H   H388      1.0  0.14349  0.19169  0.65115  1.0000
  H   H389      1.0  0.16085  0.15941  0.67706  1.0000
  S   S89       1.0  0.18690  0.00658  0.66647  1.0000
  H   H390      1.0  0.13593  0.12229  0.65227  1.0000
  C   C247      1.0  0.16850  0.01450  0.66382  1.0000
  Fe  Fe43      1.0  0.10857  0.05684  0.66175  1.0000
  N   N27       1.0  0.03593  0.10502  0.69646  1.0000
  H   H391      1.0  0.09279  0.02641  0.63242  1.0000
  H   H392      1.0  0.15404  0.30579  0.71009  1.0000
  C   C248      1.0  0.02686  0.07806  0.65807  1.0000
  N   N28       1.0  0.16232  0.17393  0.65541  1.0000
  C   C249      1.0  0.06785  0.04605  0.64190  1.0000
  H   H393      1.0  0.09612  0.14606  0.67070  1.0000
  H   H394      1.0  0.15291  0.22141  0.65645  1.0000
  H   H395      1.0  0.25497  0.07768  0.52704  1.0000
  C   C250      1.0  0.04200  0.07874  0.65312  1.0000
  H   H396      1.0  0.14601  0.17626  0.64294  1.0000
  H   H397      1.0  0.14135  0.00860  0.65085  1.0000
  H   H398      1.0  0.25450  0.99509  0.65194  1.0000
  C   C251      1.0  0.26649  0.98790  0.62012  1.0000
  C   C252      1.0  0.22351  0.01270  0.56925  1.0000
  C   C253      1.0  0.02468  0.11468  0.70574  1.0000
  H   H399      1.0  0.05386  0.11522  0.69515  1.0000
  C   C254      1.0  0.24338  0.02082  0.63452  1.0000
  H   H400      1.0  0.02215  0.07499  0.66979  1.0000
  C   C255      1.0  0.17330  0.16259  0.64794  1.0000
  H   H401      1.0  0.08004  0.16450  0.64527  1.0000
  C   C256      1.0  0.03271  0.09003  0.70096  1.0000
  H   H402      1.0  0.30959  0.01129  0.48744  1.0000
  C   C257      1.0  0.09006  0.13680  0.64162  1.0000
  H   H403      1.0  0.01607  0.21269  0.71189  1.0000
  H   H404      1.0  0.13795  0.29785  0.71757  1.0000
  C   C258      1.0  0.01776  0.08116  0.64793  1.0000
  C   C259      1.0  0.04892  0.16060  0.69348  1.0000
  C   C260      1.0  0.03837  0.17271  0.69817  1.0000
  C   C261      1.0  0.04292  0.18306  0.70268  1.0000
  C   C262      1.0  0.05807  0.18161  0.70204  1.0000
  C   C263      1.0  0.06849  0.16909  0.69821  1.0000
  C   C264      1.0  0.06387  0.15845  0.69425  1.0000
  H   H405      1.0  0.02671  0.17424  0.69823  1.0000
  H   H406      1.0  0.03473  0.19220  0.70652  1.0000
  H   H407      1.0  0.08018  0.16767  0.69803  1.0000
  H   H408      1.0  0.16800  0.99848  0.65239  1.0000
  H   H409      1.0  0.22634  0.00348  0.48394  1.0000
  S   S90       1.0  0.26147  0.04660  0.59540  1.0000
  C   C265      1.0  0.03527  0.11127  0.68076  1.0000
  H   H410      1.0  0.07207  0.16027  0.66470  1.0000
  H   H411      1.0  0.09751  0.03859  0.64062  1.0000
  N   N29       1.0  0.08566  0.14147  0.65586  1.0000
  S   S91       1.0  0.00773  0.17984  0.67783  1.0000
  H   H412      1.0  0.10711  0.13162  0.66142  1.0000
  C   C266      1.0  0.15354  0.16657  0.66942  1.0000
  H   H413      1.0  0.02681  0.12606  0.70270  1.0000
  C   C267      1.0  0.14531  0.03317  0.66808  1.0000
  H   H414      1.0  0.01497  0.23069  0.71434  1.0000
  H   H415      1.0  0.99772  0.22562  0.69559  1.0000
  H   H416      1.0  0.15827  0.18908  0.63515  1.0000
  H   H417      1.0  0.16763  0.15518  0.64546  1.0000
  H   H418      1.0  0.10786  0.21471  0.67255  1.0000
  H   H419      1.0  0.18006  0.16777  0.63728  1.0000
  H   H420      1.0  0.05589  0.04923  0.64758  1.0000
  H   H421      1.0  0.17068  0.08846  0.48465  1.0000
  C   C268      1.0  0.10808  0.23835  0.69595  1.0000
  H   H422      1.0  0.14519  0.17483  0.67537  1.0000
  H   H423      1.0  0.06918  0.01742  0.64359  1.0000
  S   S92       1.0  0.27089  0.01149  0.48100  1.0000
  H   H424      1.0  0.10499  0.22258  0.72441  1.0000
  H   H425      1.0  0.06807  0.04397  0.63106  1.0000
  Fe  Fe44      1.0  0.15253  0.26691  0.48893  1.0000
  H   H426      1.0  0.09850  0.01963  0.64985  1.0000
  C   C269      1.0  0.18122  0.17398  0.48802  1.0000
  C   C270      1.0  0.25019  0.04538  0.53784  1.0000
  H   H427      1.0  0.14725  0.15937  0.66745  1.0000
  H   H428      1.0  0.08011  0.13717  0.63752  1.0000
  H   H429      1.0  0.08640  0.11949  0.66932  1.0000
  N   N30       1.0  0.01998  0.22902  0.69173  1.0000
  H   H430      1.0  0.06444  0.15544  0.65224  1.0000
  C   C271      1.0  0.20992  0.09418  0.49212  1.0000
  C   C272      1.0  0.07839  0.13034  0.66739  1.0000
  Fe  Fe45      1.0  0.10490  0.08814  0.64344  1.0000
  N   N31       1.0  0.07607  0.03300  0.65105  1.0000
  H   H431      1.0  0.02402  0.11210  0.67890  1.0000
  C   C273      1.0  0.02796  0.24132  0.68574  1.0000
  C   C274      1.0  0.19487  0.17778  0.48609  1.0000
  S   S93       1.0  0.13440  0.28894  0.60850  1.0000
  S   S94       1.0  0.14448  0.26661  0.63851  1.0000
  S   S95       1.0  0.16701  0.28386  0.57172  1.0000
  H   H432      1.0  0.01311  0.11569  0.70456  1.0000
  Fe  Fe46      1.0  0.13988  0.25332  0.52095  1.0000
  S   S96       1.0  0.16325  0.25420  0.50803  1.0000
  S   S97       1.0  0.13015  0.25781  0.54381  1.0000
  H   H433      1.0  0.12530  0.31673  0.69965  1.0000
  S   S98       1.0  0.12908  0.26759  0.50233  1.0000
  S   S99       1.0  0.28235  0.07038  0.57438  1.0000
  H   H434      1.0  0.26996  0.08418  0.52907  1.0000
  S   S100      1.0  0.11774  0.25127  0.62590  1.0000
  S   S101      1.0  0.18452  0.24083  0.63253  1.0000
  H   H435      1.0  0.14276  0.20479  0.58643  1.0000
  H   H436      1.0  0.00422  0.19392  0.64707  1.0000
  C   C275      1.0  0.15666  0.27722  0.56356  1.0000
  C   C276      1.0  0.14202  0.27581  0.57068  1.0000
  C   C277      1.0  0.13388  0.27020  0.56429  1.0000
  C   C278      1.0  0.14049  0.26550  0.55102  1.0000
  C   C279      1.0  0.15517  0.26684  0.54392  1.0000
  C   C280      1.0  0.16319  0.27287  0.55009  1.0000
  H   H437      1.0  0.13686  0.27927  0.58102  1.0000
  H   H438      1.0  0.12241  0.26953  0.56967  1.0000
  H   H439      1.0  0.16043  0.26312  0.53379  1.0000
  S   S102      1.0  0.09495  0.16531  0.72200  1.0000
  C   C281      1.0  0.11345  0.12588  0.47938  1.0000
  H   H440      1.0  0.20985  0.21695  0.63360  1.0000
  S   S103      1.0  0.23652  0.07496  0.48464  1.0000
  H   H441      1.0  0.31833  0.00403  0.63482  1.0000
  H   H442      1.0  0.10839  0.22658  0.69655  1.0000
  Fe  Fe47      1.0  0.15762  0.28015  0.59626  1.0000
  Fe  Fe48      1.0  0.16653  0.25917  0.62382  1.0000
  H   H443      1.0  0.17456  0.27386  0.54460  1.0000
  Fe  Fe49      1.0  0.13155  0.24613  0.49610  1.0000
  Fe  Fe50      1.0  0.13484  0.26518  0.62037  1.0000
  H   H444      1.0  0.14589  0.23848  0.63412  1.0000
  N   N32       1.0  0.14094  0.30587  0.51140  1.0000
  Fe  Fe51      1.0  0.14621  0.28960  0.62556  1.0000
  H   H445      1.0  0.15947  0.06958  0.50452  1.0000
  H   H446      1.0  0.02089  0.20814  0.68713  1.0000
  H   H447      1.0  0.20759  0.25791  0.59181  1.0000
  C   C282      1.0  0.02110  0.22258  0.70728  1.0000
  H   H448      1.0  0.15729  0.18002  0.49554  1.0000
  H   H449      1.0  0.17021  0.30304  0.63210  1.0000
  C   C283      1.0  0.13099  0.29850  0.52440  1.0000
  H   H450      1.0  0.24969  0.99675  0.55678  1.0000
  S   S104      1.0  0.15684  0.25648  0.60649  1.0000
  S   S105      1.0  0.16949  0.28232  0.61242  1.0000
  H   H451      1.0  0.24763  0.08174  0.58470  1.0000
  H   H452      1.0  0.12332  0.21041  0.59490  1.0000
  C   C284      1.0  0.12278  0.23697  0.64070  1.0000
  C   C285      1.0  0.13296  0.21436  0.58666  1.0000
  H   H453      1.0  0.13021  0.21749  0.57553  1.0000
  H   H454      1.0  0.31709  0.04795  0.49512  1.0000
  H   H455      1.0  0.26148  0.00322  0.66258  1.0000
  C   C286      1.0  0.21745  0.07926  0.49332  1.0000
  H   H456      1.0  0.12734  0.28979  0.70107  1.0000
  H   H457      1.0  0.29201  0.08320  0.49040  1.0000
  C   C287      1.0  0.13469  0.30910  0.49815  1.0000
  H   H458      1.0  0.25777  0.08873  0.49421  1.0000
  H   H459      1.0  0.32573  0.03024  0.59856  1.0000
  H   H460      1.0  0.05985  0.09693  0.69144  1.0000
  S   S106      1.0  0.29222  0.04736  0.60424  1.0000
  H   H461      1.0  0.04361  0.10419  0.67347  1.0000
  H   H462      1.0  0.12630  0.21177  0.50398  1.0000
  C   C288      1.0  0.16535  0.31159  0.63840  1.0000
  C   C289      1.0  0.13754  0.23336  0.64237  1.0000
  H   H463      1.0  0.03881  0.21274  0.68355  1.0000
  H   H464      1.0  0.04109  0.08241  0.69427  1.0000
  S   S107      1.0  0.00072  0.26608  0.71228  1.0000
  C   C290      1.0  0.11213  0.22987  0.65136  1.0000
  H   H465      1.0  0.16109  0.29331  0.51878  1.0000
  H   H466      1.0  0.10067  0.23261  0.65010  1.0000
  C   C291      1.0  0.26361  0.08428  0.52093  1.0000
  Fe  Fe52      1.0  0.24749  0.05100  0.48435  1.0000
  H   H467      1.0  0.16568  0.30910  0.68274  1.0000
  N   N33       1.0  0.27355  0.07811  0.50828  1.0000
  S   S108      1.0  0.32644  0.05337  0.56950  1.0000
  H   H468      1.0  0.20522  0.17091  0.48134  1.0000
  H   H469      1.0  0.14211  0.31433  0.48804  1.0000
  C   C292      1.0  0.22379  0.00441  0.54775  1.0000
  C   C293      1.0  0.16005  0.30035  0.68287  1.0000
  H   H470      1.0  0.13701  0.23381  0.69552  1.0000
  C   C294      1.0  0.25943  0.04259  0.54776  1.0000
  N   N34       1.0  0.14570  0.30079  0.69394  1.0000
  H   H471      1.0  0.02720  0.24665  0.67409  1.0000
  C   C295      1.0  0.19523  0.19040  0.49034  1.0000
  H   H472      1.0  0.11465  0.24256  0.68475  1.0000
  H   H473      1.0  0.00563  0.21904  0.63125  1.0000
  C   C296      1.0  0.13826  0.28964  0.69294  1.0000
  C   C297      1.0  0.02683  0.21748  0.68297  1.0000
  H   H474      1.0  0.21547  0.05660  0.50259  1.0000
  C   C298      1.0  0.20973  0.06811  0.50150  1.0000
  S   S109      1.0  0.13756  0.30808  0.63810  1.0000
  H   H475      1.0  0.13515  0.23196  0.71503  1.0000
  C   C299      1.0  0.26439  0.07756  0.49844  1.0000
  H   H476      1.0  0.03297  0.21901  0.70845  1.0000
  H   H477      1.0  0.16800  0.28947  0.68507  1.0000
  H   H478      1.0  0.27412  0.05532  0.51941  1.0000
  H   H479      1.0  0.26800  0.01619  0.58971  1.0000
  Fe  Fe53      1.0  0.27151  0.06371  0.59832  1.0000
  Fe  Fe54      1.0  0.30220  0.05250  0.57986  1.0000
  H   H480      1.0  0.31906  0.06160  0.59811  1.0000
  H   H481      1.0  0.03300  0.08501  0.71278  1.0000
  S   S110      1.0  0.00427  0.15567  0.71014  1.0000
  H   H482      1.0  0.21584  0.10284  0.48580  1.0000
  S   S111      1.0  0.15952  0.12823  0.48706  1.0000
  H   H483      1.0  0.99941  0.31747  0.71247  1.0000
  Fe  Fe55      1.0  0.25875  0.02027  0.50133  1.0000
  S   S112      1.0  0.26810  0.04076  0.49364  1.0000
  H   H484      1.0  0.25529  0.03044  0.65991  1.0000
  C   C300      1.0  0.23316  0.01766  0.66083  1.0000
  S   S113      1.0  0.25660  0.08039  0.61148  1.0000
  C   C301      1.0  0.00402  0.23468  0.69105  1.0000
  C   C302      1.0  0.28184  0.06295  0.51373  1.0000
  H   H485      1.0  0.24313  0.05628  0.53512  1.0000
  S   S114      1.0  0.29445  0.03478  0.57484  1.0000
  H   H486      1.0  0.28824  0.06278  0.52184  1.0000
  S   S115      1.0  0.18135  0.15809  0.48244  1.0000
  S   S116      1.0  0.00543  0.14584  0.67943  1.0000
  C   C303      1.0  0.26434  0.00686  0.59781  1.0000
  H   H487      1.0  0.15831  0.30219  0.67150  1.0000
  C   C304      1.0  0.26828  0.02839  0.55147  1.0000
  C   C305      1.0  0.24741  0.98992  0.60699  1.0000
  C   C306      1.0  0.28432  0.08761  0.50000  1.0000
  C   C307      1.0  0.25991  0.02034  0.53401  1.0000
  C   C308      1.0  0.26846  0.01720  0.54463  1.0000
  H   H488      1.0  0.11944  0.30546  0.52638  1.0000
  H   H489      1.0  0.31901  0.00079  0.61712  1.0000
  Fe  Fe56      1.0  0.27359  0.05213  0.57178  1.0000
  C   C309      1.0  0.25255  0.00170  0.59632  1.0000
  Fe  Fe57      1.0  0.28316  0.03086  0.59882  1.0000
  H   H490      1.0  0.24375  0.03675  0.52283  1.0000
  S   S117      1.0  0.26080  0.05751  0.55395  1.0000
  S   S118      1.0  0.26130  0.00716  0.52405  1.0000
  H   H491      1.0  0.18864  0.06323  0.51486  1.0000
  H   H492      1.0  0.25620  0.07038  0.50436  1.0000
  C   C310      1.0  0.11451  0.25546  0.70601  1.0000
  H   H493      1.0  0.27537  0.02616  0.55920  1.0000
  H   H494      1.0  0.27568  0.00636  0.54712  1.0000
  H   H495      1.0  0.23222  0.01926  0.56318  1.0000
  C   C311      1.0  0.14857  0.29749  0.70894  1.0000
  H   H496      1.0  0.13223  0.07623  0.48092  1.0000
  H   H497      1.0  0.25756  0.09589  0.51728  1.0000
  H   H498      1.0  0.12987  0.09071  0.49912  1.0000
  H   H499      1.0  0.14584  0.09575  0.50090  1.0000
  C   C312      1.0  0.00000  0.29483  0.71268  1.0000
  H   H500      1.0  0.23971  0.01110  0.63378  1.0000
  H   H501      1.0  0.29818  0.04409  0.48407  1.0000
  H   H502      1.0  0.23433  0.03082  0.63233  1.0000
  H   H503      1.0  0.00486  0.29026  0.72228  1.0000
  H   H504      1.0  0.22415  0.02783  0.65918  1.0000
  H   H505      1.0  0.24417  0.04219  0.64696  1.0000
  C   C313      1.0  0.12982  0.23070  0.70669  1.0000
  H   H506      1.0  0.26293  0.03266  0.64035  1.0000
  H   H507      1.0  0.13012  0.28770  0.52297  1.0000
  H   H508      1.0  0.14537  0.27826  0.69513  1.0000
  H   H509      1.0  0.16374  0.30106  0.49915  1.0000
  C   C314      1.0  0.30985  0.04198  0.47866  1.0000
  C   C315      1.0  0.24102  0.99042  0.56352  1.0000
  C   C316      1.0  0.21465  0.99061  0.57220  1.0000
  H   H510      1.0  0.21597  0.98659  0.58387  1.0000
  H   H511      1.0  0.18672  0.31444  0.63938  1.0000
  H   H512      1.0  0.24654  0.99180  0.68887  1.0000
  H   H513      1.0  0.31249  0.99979  0.50495  1.0000
  C   C317      1.0  0.99630  0.21425  0.63221  1.0000
  H   H514      1.0  0.00269  0.23966  0.67951  1.0000
  H   H515      1.0  0.13834  0.10440  0.48479  1.0000
  S   S119      1.0  0.09672  0.08453  0.48305  1.0000
  C   C318      1.0  0.10272  0.10075  0.48147  1.0000
  N   N35       1.0  0.32589  0.99088  0.48611  1.0000
  H   H516      1.0  0.99849  0.24333  0.69768  1.0000
  C   C319      1.0  0.13587  0.31570  0.69099  1.0000
  H   H517      1.0  0.24291  0.98666  0.57500  1.0000
  C   C320      1.0  0.14977  0.31623  0.64242  1.0000
  H   H518      1.0  0.32634  0.00998  0.49326  1.0000
  H   H519      1.0  0.14689  0.31779  0.52393  1.0000
  C   C321      1.0  0.22069  0.98480  0.48007  1.0000
  S   S120      1.0  0.31247  0.98529  0.70549  1.0000
  S   S121      1.0  0.22451  0.98537  0.64679  1.0000
  C   C322      1.0  0.99692  0.31025  0.70710  1.0000
  H   H520      1.0  0.30643  0.99103  0.47894  1.0000
  H   H521      1.0  0.00380  0.17788  0.72738  1.0000
  Fe  Fe58      1.0  0.10803  0.17804  0.72804  1.0000
  S   S122      1.0  0.23119  0.98492  0.60645  1.0000
  C   C323      1.0  0.09766  0.31140  0.82441  1.0000
  H   H522      1.0  0.05334  0.20487  0.76897  1.0000
  C   C324      1.0  0.12787  0.21632  0.75174  1.0000
  H   H523      1.0  0.25457  0.31103  0.95750  1.0000
  C   C325      1.0  0.04643  0.20138  0.76353  1.0000
  H   H524      1.0  0.15571  0.22343  0.86177  1.0000
  C   C326      1.0  0.14499  0.20413  0.78831  1.0000
  H   H525      1.0  0.01547  0.27389  0.93118  1.0000
  H   H526      1.0  0.13471  0.18821  0.77613  1.0000
  C   C327      1.0  0.14641  0.18225  0.80799  1.0000
  C   C328      1.0  0.12245  0.19581  0.80248  1.0000
  S   S123      1.0  0.00921  0.20551  0.76069  1.0000
  N   N36       1.0  0.05586  0.19307  0.75220  1.0000
  H   H527      1.0  0.14413  0.21112  0.79609  1.0000
  S   S124      1.0  0.10510  0.18050  0.75124  1.0000
  S   S125      1.0  0.02638  0.23628  0.73558  1.0000
  C   C329      1.0  0.14037  0.18182  0.78538  1.0000
  H   H528      1.0  0.14190  0.17219  0.81407  1.0000
  H   H529      1.0  0.13165  0.19012  0.73256  1.0000
  H   H530      1.0  0.03897  0.19469  0.77219  1.0000
  C   C330      1.0  0.13399  0.20758  0.74116  1.0000
  C   C331      1.0  0.12685  0.19679  0.74079  1.0000
  C   C332      1.0  0.11381  0.19434  0.75132  1.0000
  C   C333      1.0  0.10774  0.20298  0.76199  1.0000
  H   H531      1.0  0.10798  0.28227  0.82559  1.0000
  H   H532      1.0  0.09750  0.20129  0.77000  1.0000
  H   H533      1.0  0.15137  0.21204  0.84373  1.0000
  H   H534      1.0  0.14513  0.18894  0.81621  1.0000
  H   H535      1.0  0.15863  0.17855  0.80356  1.0000
  H   H536      1.0  0.11728  0.18618  0.80865  1.0000
  H   H537      1.0  0.07316  0.20547  0.74588  1.0000
  H   H538      1.0  0.03906  0.21158  0.75850  1.0000
  H   H539      1.0  0.03346  0.25404  0.90058  1.0000
  H   H540      1.0  0.13545  0.17188  0.79075  1.0000
  H   H541      1.0  0.19209  0.30276  0.86758  1.0000
  H   H542      1.0  0.11613  0.20224  0.79375  1.0000
  C   C334      1.0  0.06543  0.17949  0.75923  1.0000
  H   H543      1.0  0.10955  0.22106  0.76995  1.0000
  Fe  Fe59      1.0  0.00904  0.25744  0.73340  1.0000
  H   H544      1.0  0.29970  0.30086  0.92022  1.0000
  C   C335      1.0  0.11463  0.21410  0.76206  1.0000
  H   H545      1.0  0.05836  0.25017  0.82967  1.0000
  N   N37       1.0  0.13856  0.19098  0.79604  1.0000
  C   C336      1.0  0.04620  0.18900  0.74502  1.0000
  H   H546      1.0  0.15239  0.17791  0.78035  1.0000
  H   H547      1.0  0.13905  0.21121  0.77952  1.0000
  Fe  Fe60      1.0  0.00504  0.25889  0.76523  1.0000
  C   C337      1.0  0.28235  0.27744  0.95774  1.0000
  H   H548      1.0  0.12069  0.20304  0.81034  1.0000
  H   H549      1.0  0.02835  0.28081  0.81629  1.0000
  H   H550      1.0  0.15703  0.20098  0.78293  1.0000
  H   H551      1.0  0.03621  0.28719  0.92084  1.0000
  H   H552      1.0  0.09003  0.27754  0.82981  1.0000
  C   C338      1.0  0.14481  0.22290  0.84520  1.0000
  H   H553      1.0  0.04879  0.26339  0.89318  1.0000
  S   S126      1.0  0.13216  0.22267  0.82319  1.0000
  H   H554      1.0  0.03021  0.27319  0.89132  1.0000
  H   H555      1.0  0.03905  0.25467  0.79998  1.0000
  S   S127      1.0  0.02168  0.23749  0.77043  1.0000
  H   H556      1.0  0.27425  0.28356  0.93764  1.0000
  H   H557      1.0  0.02928  0.24259  0.81494  1.0000
  S   S128      1.0  0.07747  0.26902  0.78904  1.0000
  C   C339      1.0  0.03819  0.28347  0.91040  1.0000
  S   S129      1.0  0.00912  0.26011  0.87548  1.0000
  Fe  Fe61      1.0  0.12871  0.24172  0.77059  1.0000
  C   C340      1.0  0.13898  0.24344  0.85736  1.0000
  C   C341      1.0  0.14057  0.29895  0.76218  1.0000
  C   C342      1.0  0.00589  0.18981  0.74237  1.0000
  C   C343      1.0  0.09588  0.28574  0.83060  1.0000
  S   S130      1.0  0.07918  0.30277  0.88579  1.0000
  Fe  Fe62      1.0  0.21541  0.29292  0.96962  1.0000
  H   H558      1.0  0.05547  0.25642  0.91755  1.0000
  S   S131      1.0  0.17472  0.28358  0.95022  1.0000
  H   H559      1.0  0.05231  0.23575  0.82585  1.0000
  C   C344      1.0  0.15330  0.30339  0.90974  1.0000
  S   S132      1.0  0.06049  0.24174  0.74514  1.0000
  Fe  Fe63      1.0  0.12904  0.30637  0.85193  1.0000
  C   C345      1.0  0.16698  0.29125  0.93431  1.0000
  C   C346      1.0  0.15947  0.28294  0.93011  1.0000
  C   C347      1.0  0.15274  0.28894  0.91781  1.0000
  H   H560      1.0  0.17694  0.30870  0.88202  1.0000
  H   H561      1.0  0.15891  0.27178  0.93637  1.0000
  H   H562      1.0  0.14704  0.28241  0.91466  1.0000
  Fe  Fe64      1.0  0.01116  0.22907  0.75711  1.0000
  Fe  Fe65      1.0  0.03556  0.24623  0.74843  1.0000
  H   H563      1.0  0.16770  0.27496  0.83397  1.0000
  H   H564      1.0  0.16211  0.30482  0.75550  1.0000
  H   H565      1.0  0.08828  0.23877  0.75266  1.0000
  C   C348      1.0  0.15121  0.30700  0.75301  1.0000
  C   C349      1.0  0.06935  0.29586  0.87724  1.0000
  H   H566      1.0  0.01071  0.27875  0.91346  1.0000
  H   H567      1.0  0.17196  0.25046  0.80855  1.0000
  H   H568      1.0  0.18693  0.30618  0.82315  1.0000
  S   S133      1.0  0.30112  0.27690  0.94842  1.0000
  H   H569      1.0  0.17191  0.28935  0.80774  1.0000
  C   C350      1.0  0.16066  0.25776  0.81107  1.0000
  C   C351      1.0  0.05429  0.30259  0.87706  1.0000
  C   C352      1.0  0.04602  0.29687  0.87085  1.0000
  C   C353      1.0  0.07346  0.30518  0.83052  1.0000
  H   H570      1.0  0.03441  0.30217  0.87071  1.0000
  H   H571      1.0  0.04421  0.27611  0.82461  1.0000
  H   H572      1.0  0.07323  0.26808  0.86009  1.0000
  C   C354      1.0  0.17122  0.27944  0.80436  1.0000
  C   C355      1.0  0.00054  0.18833  0.73078  1.0000
  H   H573      1.0  0.05027  0.28282  0.90498  1.0000
  H   H574      1.0  0.07276  0.18218  0.76485  1.0000
  H   H575      1.0  0.06697  0.29724  0.83036  1.0000
  H   H576      1.0  0.07297  0.17315  0.75090  1.0000
  C   C356      1.0  0.01804  0.27042  0.92052  1.0000
  C   C357      1.0  0.32906  0.29641  0.89089  1.0000
  H   H577      1.0  0.29937  0.30505  0.90103  1.0000
  H   H578      1.0  0.15611  0.26124  0.80089  1.0000
  C   C358      1.0  0.02821  0.25513  0.83654  1.0000
  H   H579      1.0  0.02069  0.26182  0.80978  1.0000
  N   N38       1.0  0.16131  0.27073  0.81606  1.0000
  H   H580      1.0  0.13836  0.27396  0.82797  1.0000
  Fe  Fe66      1.0  0.01771  0.28094  0.86510  1.0000
  C   C359      1.0  0.16725  0.26554  0.82968  1.0000
  H   H581      1.0  0.03155  0.29232  0.90304  1.0000
  H   H582      1.0  0.14612  0.29008  0.82283  1.0000
  C   C360      1.0  0.03944  0.27309  0.81683  1.0000
  H   H583      1.0  0.19402  0.31500  0.87767  1.0000
  H   H584      1.0  0.08763  0.27790  0.87158  1.0000
  C   C361      1.0  0.04329  0.25766  0.92278  1.0000
  S   S134      1.0  0.11835  0.26605  0.76651  1.0000
  H   H585      1.0  0.15337  0.25088  0.81968  1.0000
  C   C362      1.0  0.30584  0.29792  0.90941  1.0000
  H   H586      1.0  0.14126  0.28414  0.80908  1.0000
  C   C363      1.0  0.16764  0.30566  0.92615  1.0000
  C   C364      1.0  0.03150  0.25396  0.81114  1.0000
  H   H587      1.0  0.04690  0.27526  0.80568  1.0000
  N   N39       1.0  0.03407  0.26907  0.91316  1.0000
  H   H588      1.0  0.16011  0.25882  0.83869  1.0000
  H   H589      1.0  0.06066  0.24898  0.81092  1.0000
  Fe  Fe67      1.0  0.12602  0.23950  0.80328  1.0000
  H   H590      1.0  0.09511  0.24997  0.76914  1.0000
  H   H591      1.0  0.02632  0.24362  0.84040  1.0000
  C   C365      1.0  0.06505  0.24987  0.75695  1.0000
  H   H592      1.0  0.11714  0.25039  0.83255  1.0000
  H   H593      1.0  0.18281  0.27270  0.80175  1.0000
  H   H594      1.0  0.05859  0.21302  0.73565  1.0000
  Fe  Fe68      1.0  0.31532  0.30649  0.97586  1.0000
  H   H595      1.0  0.27878  0.30367  0.96602  1.0000
  S   S135      1.0  0.11559  0.28910  0.85785  1.0000
  Fe  Fe69      1.0  0.10443  0.29782  0.87836  1.0000
  S   S136      1.0  0.14436  0.24363  0.78326  1.0000
  S   S137      1.0  0.21235  0.29728  0.94633  1.0000
  Fe  Fe70      1.0  0.31497  0.28403  0.95945  1.0000
  C   C366      1.0  0.13420  0.23060  0.83667  1.0000
  S   S138      1.0  0.12076  0.28272  0.89201  1.0000
  C   C367      1.0  0.14609  0.28014  0.81912  1.0000
  H   H596      1.0  0.24755  0.28495  0.95056  1.0000
  C   C368      1.0  0.18605  0.31239  0.87274  1.0000
  H   H597      1.0  0.01457  0.25970  0.92292  1.0000
  H   H598      1.0  0.16138  0.30127  0.83119  1.0000
  Fe  Fe71      1.0  0.13397  0.30069  0.88324  1.0000
  H   H599      1.0  0.14431  0.20912  0.73324  1.0000
  C   C369      1.0  0.09072  0.30149  0.80747  1.0000
  N   N40       1.0  0.32140  0.29999  0.90546  1.0000
  S   S139      1.0  0.14741  0.29192  0.86305  1.0000
  H   H600      1.0  0.05859  0.17200  0.76759  1.0000
  N   N41       1.0  0.08943  0.30096  0.82324  1.0000
  S   S140      1.0  0.31342  0.30851  0.95278  1.0000
  N   N42       1.0  0.03804  0.25744  0.82163  1.0000
  H   H601      1.0  0.09487  0.28489  0.84253  1.0000
  C   C370      1.0  0.14726  0.22935  0.85542  1.0000
  H   H602      1.0  0.09683  0.31137  0.83617  1.0000
  H   H603      1.0  0.30551  0.28620  0.91043  1.0000
  S   S141      1.0  0.01985  0.26834  0.74406  1.0000
  C   C371      1.0  0.12654  0.30172  0.75887  1.0000
  H   H604      1.0  0.11812  0.29589  0.76614  1.0000
  C   C372      1.0  0.25610  0.28204  0.95689  1.0000
  C   C373      1.0  0.08365  0.25266  0.76811  1.0000
  H   H605      1.0  0.03836  0.18243  0.75325  1.0000
  C   C374      1.0  0.27121  0.28121  0.94960  1.0000
  H   H606      1.0  0.28299  0.31574  0.97457  1.0000
  S   S142      1.0  0.14339  0.25152  0.86943  1.0000
  Fe  Fe72      1.0  0.18833  0.29580  0.95669  1.0000
  Fe  Fe73      1.0  0.13280  0.27530  0.87074  1.0000
  S   S143      1.0  0.11141  0.23545  0.79096  1.0000
  H   H607      1.0  0.04151  0.26057  0.93361  1.0000
  C   C375      1.0  0.12799  0.25096  0.84918  1.0000
  H   H608      1.0  0.04953  0.27378  0.78013  1.0000
  C   C376      1.0  0.05797  0.26600  0.77431  1.0000
  H   H609      1.0  0.04267  0.26253  0.76344  1.0000
  C   C377      1.0  0.05410  0.25970  0.76479  1.0000
  C   C378      1.0  0.07615  0.28341  0.87110  1.0000
  H   H610      1.0  0.08473  0.29365  0.80617  1.0000
  H   H611      1.0  0.17875  0.25846  0.82778  1.0000
  C   C379      1.0  0.07272  0.26227  0.77619  1.0000
  C   C380      1.0  0.12569  0.24461  0.83875  1.0000
  S   S144      1.0  0.04285  0.27701  0.85683  1.0000
  C   C381      1.0  0.05300  0.24762  0.82206  1.0000
  C   C382      1.0  0.05285  0.28447  0.86466  1.0000
  S   S145      1.0  0.14501  0.28501  0.77743  1.0000
  S   S146      1.0  0.11487  0.26347  0.80223  1.0000
  Fe  Fe74      1.0  0.10202  0.25995  0.78773  1.0000
  C   C383      1.0  0.06794  0.27780  0.86472  1.0000
  C   C384      1.0  0.06541  0.20248  0.74097  1.0000
  H   H612      1.0  0.03300  0.25726  0.84483  1.0000
  H   H613      1.0  0.04051  0.24662  0.92504  1.0000
  C   C385      1.0  0.07982  0.24643  0.75858  1.0000
  S   S147      1.0  0.13702  0.22992  0.75166  1.0000
  S   S148      1.0  0.00257  0.28965  0.84901  1.0000
  H   H614      1.0  0.16706  0.28345  0.79393  1.0000
  Fe  Fe75      1.0  0.13218  0.26741  0.78127  1.0000
  H   H615      1.0  0.03923  0.19903  0.73914  1.0000
  H   H616      1.0  0.12123  0.26160  0.85092  1.0000
  C   C386      1.0  0.03677  0.26470  0.89896  1.0000
  H   H617      1.0  0.01703  0.26273  0.83665  1.0000
  H   H618      1.0  0.32330  0.30373  0.88205  1.0000
  C   C387      1.0  0.25217  0.27880  0.97234  1.0000
  H   H619      1.0  0.01318  0.18044  0.74791  1.0000
  H   H620      1.0  0.10265  0.29847  0.80161  1.0000
  H   H621      1.0  0.26150  0.31274  0.93085  1.0000
  H   H622      1.0  0.16237  0.29610  0.97696  1.0000
  S   S149      1.0  0.00236  0.29323  0.88231  1.0000
  C   C388      1.0  0.00197  0.20343  0.74664  1.0000
  H   H623      1.0  0.14060  0.30066  0.95770  1.0000
  H   H624      1.0  0.04899  0.31225  0.88179  1.0000
  H   H625      1.0  0.32412  0.29266  0.92781  1.0000
  H   H626      1.0  0.10980  0.30853  0.81920  1.0000
  H   H627      1.0  0.23393  0.31602  0.93894  1.0000
  H   H628      1.0  0.10937  0.23574  0.73150  1.0000
  H   H629      1.0  0.05296  0.18231  0.73672  1.0000
  C   C389      1.0  0.14797  0.31740  0.74021  1.0000
  H   H630      1.0  0.08587  0.31279  0.80156  1.0000
  H   H631      1.0  0.17339  0.31217  0.92925  1.0000
  H   H632      1.0  0.07229  0.19665  0.73210  1.0000
  C   C390      1.0  0.27838  0.27440  0.97319  1.0000
  C   C391      1.0  0.14100  0.31018  0.96191  1.0000
  C   C392      1.0  0.16077  0.31171  0.91398  1.0000
  S   S150      1.0  0.14487  0.31166  0.89433  1.0000
  C   C393      1.0  0.16294  0.31233  0.82573  1.0000
  H   H633      1.0  0.17436  0.31145  0.85126  1.0000
  H   H634      1.0  0.15204  0.31306  0.95621  1.0000
  H   H635      1.0  0.07213  0.30534  0.84232  1.0000
  C   C394      1.0  0.12329  0.31213  0.74613  1.0000
  S   S151      1.0  0.11650  0.31647  0.87131  1.0000
  H   H636      1.0  0.11247  0.31410  0.74351  1.0000
  C   C395      1.0  0.27362  0.31224  0.97272  1.0000
  C   C396      1.0  0.17737  0.31513  0.82121  1.0000
  H   H637      1.0  0.06808  0.31644  0.82501  1.0000
  H   H638      1.0  0.17697  0.31710  0.77361  1.0000
  S   S152      1.0  0.20904  0.31677  0.97099  1.0000
  C   C397      1.0  0.32125  0.31555  0.90486  1.0000
  H   H639      1.0  0.24413  0.31542  0.97482  1.0000
  C   C398      1.0  0.32513  0.48298  0.15121  1.0000
  H   H640      1.0  0.07800  0.54233  0.21884  1.0000
  H   H641      1.0  0.22424  0.58440  0.98753  1.0000
  Fe  Fe76      1.0  0.12203  0.32984  0.19808  1.0000
  S   S153      1.0  0.12510  0.35331  0.19133  1.0000
  H   H642      1.0  0.29851  0.33043  0.17932  1.0000
  S   S154      1.0  0.18709  0.34179  0.07805  1.0000
  H   H643      1.0  0.06484  0.56853  0.21834  1.0000
  C   C399      1.0  0.23445  0.44110  0.22655  1.0000
  Fe  Fe77      1.0  0.20602  0.33733  0.08942  1.0000
  Fe  Fe78      1.0  0.20326  0.32904  0.06165  1.0000
  S   S155      1.0  0.20787  0.33541  0.03668  1.0000
  H   H644      1.0  0.31816  0.34291  0.19126  1.0000
  H   H645      1.0  0.00991  0.32084  0.20821  1.0000
  C   C400      1.0  0.00396  0.56756  0.21677  1.0000
  H   H646      1.0  0.32771  0.44964  0.16125  1.0000
  H   H647      1.0  0.24910  0.31905  0.15828  1.0000
  C   C401      1.0  0.12900  0.35995  0.20476  1.0000
  N   N43       1.0  0.06044  0.55422  0.20723  1.0000
  H   H648      1.0  0.32554  0.32560  0.20254  1.0000
  S   S156      1.0  0.00645  0.50963  0.19600  1.0000
  H   H649      1.0  0.07219  0.53136  0.21008  1.0000
  C   C402      1.0  0.25680  0.32667  0.12861  1.0000
  C   C403      1.0  0.00761  0.56338  0.20319  1.0000
  Fe  Fe79      1.0  0.32733  0.58218  0.05833  1.0000
  C   C404      1.0  0.17206  0.35828  0.20114  1.0000
  S   S157      1.0  0.32366  0.54430  0.98250  1.0000
  S   S158      1.0  0.22139  0.34034  0.16311  1.0000
  H   H650      1.0  0.30259  0.32982  0.22249  1.0000
  H   H651      1.0  0.32253  0.33574  0.10235  1.0000
  C   C405      1.0  0.21456  0.33381  0.14027  1.0000
  C   C406      1.0  0.13297  0.35040  0.21764  1.0000
  C   C407      1.0  0.21945  0.36027  0.12045  1.0000
  C   C408      1.0  0.05526  0.56605  0.21568  1.0000
  C   C409      1.0  0.19161  0.33221  0.00355  1.0000
  C   C410      1.0  0.19978  0.33573  0.01164  1.0000
  C   C411      1.0  0.19611  0.33234  0.02712  1.0000
  H   H652      1.0  0.31801  0.35386  0.01076  1.0000
  H   H653      1.0  0.32844  0.50222  0.17445  1.0000
  H   H654      1.0  0.16303  0.33246  0.21491  1.0000
  H   H655      1.0  0.20914  0.34094  0.00585  1.0000
  H   H656      1.0  0.25045  0.55861  0.98144  1.0000
  H   H657      1.0  0.13121  0.32911  0.98034  1.0000
  H   H658      1.0  0.28615  0.32497  0.06095  1.0000
  S   S159      1.0  0.21124  0.35452  0.09798  1.0000
  C   C412      1.0  0.03319  0.47224  0.18804  1.0000
  C   C413      1.0  0.32234  0.33679  0.14757  1.0000
  H   H659      1.0  0.28613  0.33308  0.02113  1.0000
  H   H660      1.0  0.17304  0.33701  0.22567  1.0000
  H   H661      1.0  0.22109  0.37066  0.11289  1.0000
  H   H662      1.0  0.03663  0.48987  0.20357  1.0000
  S   S160      1.0  0.00256  0.53616  0.16657  1.0000
  C   C414      1.0  0.02348  0.46661  0.21442  1.0000
  H   H663      1.0  0.13459  0.32402  0.12680  1.0000
  H   H664      1.0  0.18875  0.32623  0.18929  1.0000
  H   H665      1.0  0.26124  0.56056  0.00767  1.0000
  C   C415      1.0  0.21825  0.40573  0.22415  1.0000
  H   H666      1.0  0.26579  0.50238  0.13448  1.0000
  H   H667      1.0  0.27628  0.49577  0.98008  1.0000
  H   H668      1.0  0.14482  0.34399  0.13286  1.0000
  H   H669      1.0  0.17061  0.33792  0.18774  1.0000
  H   H670      1.0  0.21972  0.56893  0.01285  1.0000
  H   H671      1.0  0.18737  0.34488  0.17857  1.0000
  H   H672      1.0  0.32024  0.55958  0.00368  1.0000
  H   H673      1.0  0.17073  0.36236  0.21126  1.0000
  S   S161      1.0  0.01545  0.57697  0.22045  1.0000
  H   H674      1.0  0.28204  0.33354  0.19373  1.0000
  H   H675      1.0  0.21561  0.39310  0.19562  1.0000
  N   N44       1.0  0.16606  0.34794  0.13242  1.0000
  C   C416      1.0  0.14950  0.35199  0.13565  1.0000
  C   C417      1.0  0.17182  0.34780  0.11656  1.0000
  C   C418      1.0  0.17106  0.33304  0.14140  1.0000
  C   C419      1.0  0.17187  0.35892  0.13605  1.0000
  H   H676      1.0  0.14472  0.35204  0.14758  1.0000
  H   H677      1.0  0.26878  0.34440  0.02861  1.0000
  H   H678      1.0  0.14534  0.36319  0.12910  1.0000
  H   H679      1.0  0.18426  0.34465  0.11376  1.0000
  H   H680      1.0  0.32374  0.32768  0.14245  1.0000
  S   S162      1.0  0.28958  0.54281  0.98234  1.0000
  H   H681      1.0  0.16705  0.32449  0.13877  1.0000
  H   H682      1.0  0.16673  0.33263  0.15345  1.0000
  H   H683      1.0  0.18349  0.32962  0.13930  1.0000
  H   H684      1.0  0.18434  0.35618  0.13372  1.0000
  H   H685      1.0  0.16770  0.35938  0.14793  1.0000
  H   H686      1.0  0.16843  0.37025  0.12933  1.0000
  H   H687      1.0  0.20466  0.40962  0.20181  1.0000
  H   H688      1.0  0.20946  0.32849  0.12228  1.0000
  C   C420      1.0  0.10865  0.56676  0.22450  1.0000
  H   H689      1.0  0.32356  0.35670  0.08100  1.0000
  S   S163      1.0  0.17039  0.31938  0.00079  1.0000
  C   C421      1.0  0.27496  0.33272  0.02861  1.0000
  H   H690      1.0  0.30539  0.35621  0.07932  1.0000
  C   C422      1.0  0.04435  0.47872  0.20427  1.0000
  C   C423      1.0  0.19652  0.34278  0.20301  1.0000
  H   H691      1.0  0.30761  0.33676  0.11828  1.0000
  H   H692      1.0  0.02542  0.48327  0.18683  1.0000
  C   C424      1.0  0.12843  0.57743  0.22565  1.0000
  C   C425      1.0  0.22169  0.35731  0.13488  1.0000
  C   C426      1.0  0.99905  0.55515  0.20043  1.0000
  C   C427      1.0  0.21911  0.34413  0.14485  1.0000
  C   C428      1.0  0.17434  0.33309  0.21547  1.0000
  H   H693      1.0  0.25412  0.33617  0.13405  1.0000
  H   H694      1.0  0.25800  0.51751  0.05592  1.0000
  H   H695      1.0  0.02745  0.46436  0.18647  1.0000
  H   H696      1.0  0.26094  0.57143  0.05352  1.0000
  H   H697      1.0  0.32508  0.44988  0.13651  1.0000
  H   H698      1.0  0.16299  0.47995  0.21658  1.0000
  C   C429      1.0  0.21276  0.33660  0.12572  1.0000
  C   C430      1.0  0.21493  0.34995  0.11582  1.0000
  H   H699      1.0  0.22736  0.55826  0.12434  1.0000
  H   H700      1.0  0.30886  0.37313  0.08073  1.0000
  H   H701      1.0  0.28438  0.33284  0.21873  1.0000
  C   C431      1.0  0.30552  0.43817  0.15995  1.0000
  N   N45       1.0  0.21778  0.39429  0.21688  1.0000
  N   N46       1.0  0.03719  0.46764  0.20264  1.0000
  C   C432      1.0  0.31129  0.36087  0.08482  1.0000
  H   H702      1.0  0.32679  0.35930  0.10476  1.0000
  C   C433      1.0  0.23841  0.33709  0.22309  1.0000
  Fe  Fe80      1.0  0.23778  0.35159  0.16626  1.0000
  S   S164      1.0  0.23138  0.36572  0.18295  1.0000
  H   H703      1.0  0.12561  0.38251  0.19225  1.0000
  H   H704      1.0  0.22497  0.36546  0.13836  1.0000
  H   H705      1.0  0.21258  0.32357  0.14792  1.0000
  H   H706      1.0  0.05451  0.48009  0.19530  1.0000
  N   N47       1.0  0.18122  0.34299  0.20212  1.0000
  H   H707      1.0  0.10685  0.58848  0.11679  1.0000
  Fe  Fe81      1.0  0.26853  0.48953  0.18803  1.0000
  C   C434      1.0  0.06379  0.54282  0.15755  1.0000
  H   H708      1.0  0.07203  0.50284  0.18105  1.0000
  H   H709      1.0  0.23321  0.61467  0.05638  1.0000
  H   H710      1.0  0.26893  0.32767  0.02365  1.0000
  C   C435      1.0  0.24594  0.59281  0.05405  1.0000
  H   H711      1.0  0.05099  0.44917  0.21463  1.0000
  H   H712      1.0  0.13579  0.54615  0.11344  1.0000
  C   C436      1.0  0.23538  0.58448  0.98906  1.0000
  S   S165      1.0  0.22258  0.32720  0.07147  1.0000
  H   H713      1.0  0.17472  0.50615  0.19026  1.0000
  H   H714      1.0  0.11252  0.57022  0.13930  1.0000
  H   H715      1.0  0.19059  0.49012  0.17287  1.0000
  H   H716      1.0  0.19299  0.55181  0.00525  1.0000
  H   H717      1.0  0.20747  0.54654  0.02467  1.0000
  Fe  Fe82      1.0  0.24101  0.53841  0.07285  1.0000
  Fe  Fe83      1.0  0.10868  0.54237  0.16981  1.0000
  S   S166      1.0  0.11442  0.56291  0.17132  1.0000
  S   S167      1.0  0.09093  0.54812  0.15656  1.0000
  Fe  Fe84      1.0  0.13124  0.52239  0.18798  1.0000
  S   S168      1.0  0.13835  0.54151  0.19081  1.0000
  S   S169      1.0  0.14371  0.50001  0.19785  1.0000
  Fe  Fe85      1.0  0.11375  0.55176  0.19513  1.0000
  S   S170      1.0  0.09913  0.56146  0.21439  1.0000
  Fe  Fe86      1.0  0.13834  0.55025  0.16668  1.0000
  S   S171      1.0  0.15788  0.55971  0.15140  1.0000
  S   S172      1.0  0.10659  0.53191  0.19394  1.0000
  S   S173      1.0  0.13266  0.53042  0.16357  1.0000
  Fe  Fe87      1.0  0.22917  0.53920  0.04635  1.0000
  S   S174      1.0  0.21076  0.55916  0.05002  1.0000
  S   S175      1.0  0.23674  0.52705  0.02774  1.0000
  C   C437      1.0  0.17299  0.51550  0.16174  1.0000
  S   S176      1.0  0.22366  0.55814  0.07900  1.0000
  Fe  Fe88      1.0  0.20775  0.54762  0.07417  1.0000
  S   S177      1.0  0.18511  0.54428  0.08828  1.0000
  Fe  Fe89      1.0  0.22832  0.56778  0.05456  1.0000
  C   C438      1.0  0.24259  0.50873  0.13306  1.0000
  S   S178      1.0  0.22493  0.52692  0.07003  1.0000
  C   C439      1.0  0.23871  0.57872  0.10190  1.0000
  H   H718      1.0  0.20417  0.52492  0.16352  1.0000
  H   H719      1.0  0.24887  0.61784  0.07140  1.0000
  N   N48       1.0  0.28640  0.60421  0.01758  1.0000
  C   C440      1.0  0.22218  0.52537  0.99283  1.0000
  C   C441      1.0  0.18083  0.51503  0.18358  1.0000
  H   H720      1.0  0.31672  0.52015  0.12118  1.0000
  H   H721      1.0  0.10437  0.56125  0.10771  1.0000
  H   H722      1.0  0.01937  0.33280  0.21168  1.0000
  C   C442      1.0  0.12239  0.56426  0.13220  1.0000
  C   C443      1.0  0.13317  0.55820  0.10826  1.0000
  N   N49       1.0  0.24142  0.57059  0.99890  1.0000
  C   C444      1.0  0.05617  0.51951  0.16967  1.0000
  H   H723      1.0  0.12657  0.58703  0.10914  1.0000
  H   H724      1.0  0.24058  0.43831  0.21568  1.0000
  C   C445      1.0  0.06959  0.51409  0.17469  1.0000
  H   H725      1.0  0.20077  0.49837  0.15510  1.0000
  H   H726      1.0  0.09050  0.51861  0.17486  1.0000
  C   C446      1.0  0.16636  0.55437  0.13436  1.0000
  C   C447      1.0  0.16131  0.54425  0.13007  1.0000
  C   C448      1.0  0.16764  0.54080  0.11614  1.0000
  C   C449      1.0  0.17907  0.54745  0.10634  1.0000
  C   C450      1.0  0.18457  0.55717  0.11079  1.0000
  C   C451      1.0  0.17819  0.56063  0.12478  1.0000
  H   H727      1.0  0.15236  0.53923  0.13732  1.0000
  H   H728      1.0  0.16351  0.53313  0.11279  1.0000
  H   H729      1.0  0.19332  0.56242  0.10325  1.0000
  H   H730      1.0  0.18218  0.56847  0.12802  1.0000
  C   C452      1.0  0.23205  0.38309  0.21624  1.0000
  C   C453      1.0  0.14599  0.50018  0.21527  1.0000
  H   H731      1.0  0.26814  0.56562  0.09375  1.0000
  C   C454      1.0  0.22241  0.32111  0.22378  1.0000
  H   H732      1.0  0.24569  0.58718  0.09732  1.0000
  C   C455      1.0  0.25995  0.55831  0.09838  1.0000
  N   N50       1.0  0.11978  0.56619  0.11733  1.0000
  C   C456      1.0  0.32593  0.56380  0.03523  1.0000
  H   H733      1.0  0.10840  0.54813  0.12426  1.0000
  C   C457      1.0  0.20875  0.53605  0.99318  1.0000
  H   H734      1.0  0.04284  0.53826  0.15742  1.0000
  H   H735      1.0  0.12430  0.55237  0.13796  1.0000
  C   C458      1.0  0.10668  0.56013  0.11869  1.0000
  H   H736      1.0  0.13159  0.55926  0.09699  1.0000
  C   C459      1.0  0.21167  0.54070  0.01576  1.0000
  C   C460      1.0  0.19401  0.52595  0.15942  1.0000
  C   C461      1.0  0.23502  0.32725  0.21688  1.0000
  C   C462      1.0  0.12174  0.57202  0.21759  1.0000
  S   S179      1.0  0.19852  0.54014  0.97923  1.0000
  H   H737      1.0  0.23401  0.37737  0.22750  1.0000
  H   H738      1.0  0.12645  0.57232  0.20596  1.0000
  H   H739      1.0  0.06161  0.55388  0.15072  1.0000
  H   H740      1.0  0.25379  0.32689  0.09841  1.0000
  H   H741      1.0  0.19432  0.39504  0.22622  1.0000
  H   H742      1.0  0.25619  0.55702  0.08896  1.0000
  S   S180      1.0  0.04414  0.50737  0.17315  1.0000
  S   S181      1.0  0.32345  0.32701  0.07358  1.0000
  H   H743      1.0  0.12906  0.52014  0.21756  1.0000
  C   C463      1.0  0.18199  0.33779  0.18883  1.0000
  H   H744      1.0  0.20620  0.49783  0.17157  1.0000
  H   H745      1.0  0.07899  0.32091  0.18040  1.0000
  H   H746      1.0  0.01704  0.56651  0.19475  1.0000
  C   C464      1.0  0.20530  0.38694  0.22541  1.0000
  C   C465      1.0  0.23791  0.52074  0.10855  1.0000
  H   H747      1.0  0.23496  0.57735  0.09251  1.0000
  H   H748      1.0  0.23010  0.52578  0.10135  1.0000
  S   S182      1.0  0.23375  0.59021  0.04474  1.0000
  H   H749      1.0  0.09637  0.56588  0.12551  1.0000
  H   H750      1.0  0.18665  0.53711  0.16015  1.0000
  H   H751      1.0  0.16522  0.52649  0.16219  1.0000
  H   H752      1.0  0.24123  0.46715  0.22027  1.0000
  C   C466      1.0  0.25182  0.60789  0.06712  1.0000
  C   C467      1.0  0.23256  0.51534  0.12368  1.0000
  C   C468      1.0  0.23722  0.55393  0.11609  1.0000
  C   C469      1.0  0.07734  0.53726  0.16231  1.0000
  H   H753      1.0  0.17646  0.51458  0.14996  1.0000
  S   S183      1.0  0.11375  0.32093  0.18330  1.0000
  H   H754      1.0  0.22066  0.51618  0.12806  1.0000
  C   C470      1.0  0.05313  0.53402  0.16137  1.0000
  H   H755      1.0  0.19451  0.33496  0.99163  1.0000
  Fe  Fe90      1.0  0.18376  0.31932  0.09160  1.0000
  H   H756      1.0  0.23792  0.49635  0.21334  1.0000
  C   C471      1.0  0.04745  0.55135  0.20383  1.0000
  C   C472      1.0  0.23045  0.52255  0.00366  1.0000
  N   N51       1.0  0.32183  0.43219  0.15568  1.0000
  C   C473      1.0  0.22529  0.53023  0.01512  1.0000
  H   H757      1.0  0.11494  0.58402  0.09893  1.0000
  H   H758      1.0  0.19781  0.52562  0.14748  1.0000
  H   H759      1.0  0.08080  0.56146  0.19533  1.0000
  C   C474      1.0  0.19631  0.49942  0.16682  1.0000
  H   H760      1.0  0.13235  0.56845  0.13172  1.0000
  C   C475      1.0  0.11690  0.58214  0.11021  1.0000
  C   C476      1.0  0.20346  0.54364  0.00477  1.0000
  C   C477      1.0  0.08006  0.52300  0.17119  1.0000
  H   H761      1.0  0.14325  0.56259  0.10690  1.0000
  H   H762      1.0  0.24217  0.32429  0.20679  1.0000
  N   N52       1.0  0.18605  0.51397  0.16789  1.0000
  C   C478      1.0  0.25631  0.57098  0.00044  1.0000
  C   C479      1.0  0.17545  0.32253  0.02639  1.0000
  H   H763      1.0  0.24088  0.51433  0.00316  1.0000
  C   C480      1.0  0.24290  0.60607  0.05870  1.0000
  H   H764      1.0  0.04773  0.47557  0.21506  1.0000
  H   H765      1.0  0.26603  0.54714  0.10336  1.0000
  Fe  Fe91      1.0  0.01948  0.51502  0.17277  1.0000
  H   H766      1.0  0.16648  0.50684  0.16808  1.0000
  C   C481      1.0  0.23113  0.56904  0.01359  1.0000
  S   S184      1.0  0.23581  0.50220  0.15199  1.0000
  C   C482      1.0  0.31820  0.33084  0.19446  1.0000
  H   H767      1.0  0.22785  0.41114  0.21823  1.0000
  H   H768      1.0  0.17297  0.52584  0.18478  1.0000
  S   S185      1.0  0.00946  0.50106  0.16460  1.0000
  H   H769      1.0  0.19037  0.51394  0.18862  1.0000
  H   H770      1.0  0.23292  0.55158  0.10759  1.0000
  H   H771      1.0  0.23006  0.57828  0.01893  1.0000
  H   H772      1.0  0.16761  0.33972  0.11337  1.0000
  H   H773      1.0  0.06049  0.53669  0.22678  1.0000
  C   C483      1.0  0.25623  0.49542  0.22277  1.0000
  H   H774      1.0  0.25563  0.58033  0.00542  1.0000
  H   H775      1.0  0.22859  0.58342  0.10967  1.0000
  C   C484      1.0  0.25284  0.56715  0.12094  1.0000
  H   H776      1.0  0.27240  0.51221  0.02514  1.0000
  H   H777      1.0  0.17716  0.36615  0.19145  1.0000
  Fe  Fe92      1.0  0.27055  0.35311  0.15881  1.0000
  S   S186      1.0  0.25111  0.36664  0.14867  1.0000
  S   S187      1.0  0.29294  0.34330  0.14589  1.0000
  H   H778      1.0  0.32817  0.53608  0.09791  1.0000
  H   H779      1.0  0.25102  0.44799  0.16936  1.0000
  S   S188      1.0  0.26707  0.36743  0.17468  1.0000
  S   S189      1.0  0.25769  0.33688  0.17502  1.0000
  H   H780      1.0  0.32148  0.43393  0.13306  1.0000
  H   H781      1.0  0.24323  0.54311  0.12187  1.0000
  C   C485      1.0  0.24592  0.42882  0.16606  1.0000
  H   H782      1.0  0.06546  0.56912  0.18614  1.0000
  H   H783      1.0  0.28889  0.49038  0.03831  1.0000
  C   C486      1.0  0.30838  0.34657  0.15011  1.0000
  C   C487      1.0  0.30679  0.35850  0.15643  1.0000
  H   H784      1.0  0.15108  0.32238  0.97819  1.0000
  H   H785      1.0  0.27916  0.34279  0.05016  1.0000
  H   H786      1.0  0.29629  0.36649  0.15779  1.0000
  H   H787      1.0  0.27752  0.53230  0.05032  1.0000
  S   S190      1.0  0.27181  0.47002  0.15689  1.0000
  H   H788      1.0  0.01526  0.47746  0.21380  1.0000
  H   H789      1.0  0.32367  0.32631  0.18434  1.0000
  S   S191      1.0  0.23911  0.40453  0.16212  1.0000
  S   S192      1.0  0.28649  0.46938  0.18417  1.0000
  C   C488      1.0  0.25232  0.43608  0.17268  1.0000
  C   C489      1.0  0.25539  0.40527  0.18129  1.0000
  H   H790      1.0  0.20787  0.41468  0.22431  1.0000
  C   C490      1.0  0.31074  0.34060  0.00060  1.0000
  H   H791      1.0  0.01768  0.45848  0.21342  1.0000
  C   C491      1.0  0.18379  0.32590  0.03452  1.0000
  H   H792      1.0  0.13325  0.33872  0.21963  1.0000
  H   H793      1.0  0.30509  0.35009  0.99353  1.0000
  C   C492      1.0  0.28488  0.33112  0.04958  1.0000
  N   N53       1.0  0.24716  0.56453  0.10933  1.0000
  H   H794      1.0  0.29559  0.49229  0.05320  1.0000
  H   H795      1.0  0.30286  0.45050  0.15736  1.0000
  H   H796      1.0  0.26430  0.57232  0.98950  1.0000
  C   C493      1.0  0.31883  0.36010  0.16108  1.0000
  C   C494      1.0  0.29022  0.36213  0.10565  1.0000
  H   H797      1.0  0.28695  0.37441  0.10209  1.0000
  C   C495      1.0  0.12867  0.37507  0.20218  1.0000
  H   H798      1.0  0.26275  0.50005  0.05082  1.0000
  H   H799      1.0  0.26771  0.40616  0.19654  1.0000
  H   H800      1.0  0.23181  0.55706  0.99132  1.0000
  H   H801      1.0  0.30927  0.49375  0.16788  1.0000
  C   C496      1.0  0.29256  0.49823  0.04240  1.0000
  H   H802      1.0  0.22614  0.51908  0.98436  1.0000
  C   C497      1.0  0.31800  0.34273  0.01036  1.0000
  H   H803      1.0  0.31205  0.37565  0.10431  1.0000
  S   S193      1.0  0.26828  0.43665  0.19220  1.0000
  S   S194      1.0  0.24996  0.47985  0.18739  1.0000
  C   C498      1.0  0.15658  0.48898  0.22193  1.0000
  H   H804      1.0  0.30293  0.50097  0.03446  1.0000
  Fe  Fe93      1.0  0.32655  0.58726  0.08795  1.0000
  C   C499      1.0  0.26165  0.41251  0.18803  1.0000
  H   H805      1.0  0.31988  0.61247  0.98737  1.0000
  N   N54       1.0  0.30658  0.35666  0.10110  1.0000
  C   C500      1.0  0.29374  0.33514  0.18939  1.0000
  C   C501      1.0  0.31447  0.36334  0.10787  1.0000
  H   H806      1.0  0.05091  0.54244  0.19748  1.0000
  C   C502      1.0  0.31036  0.34033  0.10603  1.0000
  H   H807      1.0  0.18079  0.32336  0.04648  1.0000
  H   H808      1.0  0.26946  0.50207  0.06573  1.0000
  H   H809      1.0  0.02601  0.46318  0.22562  1.0000
  H   H810      1.0  0.28632  0.35922  0.11789  1.0000
  H   H811      1.0  0.30107  0.43443  0.17202  1.0000
  H   H812      1.0  0.19644  0.34614  0.21318  1.0000
  C   C503      1.0  0.13758  0.51169  0.22238  1.0000
  H   H813      1.0  0.26838  0.52975  0.02998  1.0000
  C   C504      1.0  0.06810  0.54052  0.21612  1.0000
  N   N55       1.0  0.27640  0.32423  0.04367  1.0000
  C   C505      1.0  0.32093  0.49092  0.16239  1.0000
  C   C506      1.0  0.17956  0.32539  0.01087  1.0000
  C   C507      1.0  0.04773  0.45302  0.20375  1.0000
  H   H814      1.0  0.31899  0.53228  0.13125  1.0000
  H   H815      1.0  0.13838  0.58179  0.22021  1.0000
  H   H816      1.0  0.25494  0.33577  0.05417  1.0000
  C   C508      1.0  0.07094  0.55896  0.19326  1.0000
  H   H817      1.0  0.25645  0.39345  0.18481  1.0000
  Fe  Fe94      1.0  0.26827  0.46064  0.18131  1.0000
  Fe  Fe95      1.0  0.24639  0.37967  0.16620  1.0000
  H   H818      1.0  0.29914  0.43462  0.15398  1.0000
  S   S195      1.0  0.25349  0.34562  0.21388  1.0000
  H   H819      1.0  0.32645  0.51272  0.13595  1.0000
  C   C509      1.0  0.32489  0.41580  0.15930  1.0000
  H   H820      1.0  0.16845  0.35887  0.10937  1.0000
  H   H821      1.0  0.32599  0.43356  0.17599  1.0000
  H   H822      1.0  0.20380  0.33148  0.20331  1.0000
  C   C510      1.0  0.32718  0.43753  0.13961  1.0000
  H   H823      1.0  0.05818  0.45348  0.19498  1.0000
  H   H824      1.0  0.31744  0.36911  0.16634  1.0000
  H   H825      1.0  0.26673  0.59576  0.02085  1.0000
  H   H826      1.0  0.13183  0.39241  0.21032  1.0000
  H   H827      1.0  0.29637  0.33120  0.04257  1.0000
  H   H828      1.0  0.04266  0.44446  0.20247  1.0000
  H   H829      1.0  0.04321  0.47325  0.17882  1.0000
  C   C511      1.0  0.24756  0.41338  0.17024  1.0000
  C   C512      1.0  0.26023  0.42790  0.18364  1.0000
  H   H830      1.0  0.23974  0.43518  0.15762  1.0000
  C   C513      1.0  0.21552  0.40138  0.20172  1.0000
  H   H831      1.0  0.32101  0.41139  0.17134  1.0000
  Fe  Fe96      1.0  0.25254  0.35243  0.19002  1.0000
  S   S196      1.0  0.28577  0.31897  0.09267  1.0000
  C   C514      1.0  0.26718  0.50761  0.05455  1.0000
  C   C515      1.0  0.14009  0.31918  0.98325  1.0000
  H   H832      1.0  0.22449  0.40740  0.19511  1.0000
  Fe  Fe97      1.0  0.28872  0.48037  0.16022  1.0000
  S   S197      1.0  0.31166  0.47832  0.14509  1.0000
  H   H833      1.0  0.25796  0.45480  0.21330  1.0000
  S   S198      1.0  0.24684  0.54893  0.04889  1.0000
  S   S199      1.0  0.27341  0.59825  0.08319  1.0000
  C   C516      1.0  0.25846  0.58168  0.05717  1.0000
  C   C517      1.0  0.25330  0.51966  0.10284  1.0000
  H   H834      1.0  0.27524  0.51215  0.10782  1.0000
  S   S200      1.0  0.15971  0.31873  0.10291  1.0000
  C   C518      1.0  0.27953  0.61226  0.02967  1.0000
  H   H835      1.0  0.26037  0.57516  0.11615  1.0000
  H   H836      1.0  0.26724  0.61652  0.03054  1.0000
  H   H837      1.0  0.24749  0.54716  0.99964  1.0000
  S   S201      1.0  0.30951  0.60872  0.08504  1.0000
  H   H838      1.0  0.04925  0.57650  0.20937  1.0000
  Fe  Fe98      1.0  0.32300  0.61345  0.06178  1.0000
  S   S202      1.0  0.31435  0.57433  0.08113  1.0000
  C   C519      1.0  0.28452  0.61442  0.00327  1.0000
  C   C520      1.0  0.28605  0.52183  0.04934  1.0000
  S   S203      1.0  0.27230  0.50145  0.16418  1.0000
  H   H839      1.0  0.28998  0.62391  0.00098  1.0000
  H   H840      1.0  0.31916  0.41158  0.15325  1.0000
  H   H841      1.0  0.23520  0.55850  0.02113  1.0000
  H   H842      1.0  0.27746  0.57517  0.06744  1.0000
  C   C521      1.0  0.26426  0.59678  0.07036  1.0000
  C   C522      1.0  0.30254  0.59831  0.01729  1.0000
  H   H843      1.0  0.28377  0.58559  0.01108  1.0000
  H   H844      1.0  0.20199  0.35031  0.19324  1.0000
  H   H845      1.0  0.31119  0.36048  0.12014  1.0000
  H   H846      1.0  0.28966  0.60866  0.99391  1.0000
  C   C523      1.0  0.30470  0.55679  0.02476  1.0000
  C   C524      1.0  0.31809  0.55969  0.01520  1.0000
  C   C525      1.0  0.24283  0.55781  0.99255  1.0000
  C   C526      1.0  0.13678  0.35598  0.22781  1.0000
  C   C527      1.0  0.31232  0.56140  0.04476  1.0000
  C   C528      1.0  0.30178  0.55766  0.03957  1.0000
  H   H847      1.0  0.31000  0.56223  0.05616  1.0000
  H   H848      1.0  0.29134  0.55562  0.04698  1.0000
  C   C529      1.0  0.25798  0.50754  0.12731  1.0000
  C   C530      1.0  0.26333  0.51305  0.11221  1.0000
  H   H849      1.0  0.24350  0.57184  0.12941  1.0000
  H   H850      1.0  0.25934  0.55668  0.12671  1.0000
  H   H851      1.0  0.30848  0.60736  0.01533  1.0000
  H   H852      1.0  0.28057  0.58371  0.03062  1.0000
  H   H853      1.0  0.24636  0.32643  0.12572  1.0000
  S   S204      1.0  0.29147  0.55254  0.01804  1.0000
  Fe  Fe99      1.0  0.30006  0.55322  0.99376  1.0000
  H   H854      1.0  0.29638  0.52500  0.04170  1.0000
  S   S205      1.0  0.26852  0.50032  0.20581  1.0000
  H   H855      1.0  0.28701  0.52228  0.02096  1.0000
  H   H856      1.0  0.30807  0.59197  0.00843  1.0000
  S   S206      1.0  0.26007  0.52707  0.08414  1.0000
  H   H857      1.0  0.28854  0.51668  0.06049  1.0000
  C   C531      1.0  0.27903  0.59181  0.02010  1.0000
  S   S207      1.0  0.31029  0.60294  0.05269  1.0000
  C   C532      1.0  0.27699  0.51928  0.02935  1.0000
  H   H858      1.0  0.30435  0.59066  0.02796  1.0000
  H   H859      1.0  0.28108  0.60490  0.04056  1.0000
  H   H860      1.0  0.27246  0.61908  0.00308  1.0000
  C   C533      1.0  0.01939  0.32098  0.21274  1.0000
  Fe  Fe100     1.0  0.29835  0.59623  0.07625  1.0000
  C   C534      1.0  0.26785  0.58382  0.06499  1.0000
  Fe  Fe101     1.0  0.25504  0.49015  0.16312  1.0000
  N   N56       1.0  0.28068  0.51175  0.04391  1.0000
  H   H861      1.0  0.28462  0.62186  0.02805  1.0000
  H   H862      1.0  0.30415  0.33492  0.10162  1.0000
  C   C535      1.0  0.13640  0.37117  0.22518  1.0000
  C   C536      1.0  0.32507  0.33053  0.01977  1.0000
  H   H863      1.0  0.03908  0.54803  0.21408  1.0000
  H   H864      1.0  0.06532  0.32130  0.16174  1.0000
  H   H865      1.0  0.28395  0.35719  0.10080  1.0000
  C   C537      1.0  0.32463  0.52229  0.12653  1.0000
  C   C538      1.0  0.25039  0.45777  0.22360  1.0000
  C   C539      1.0  0.13221  0.38067  0.21241  1.0000
  H   H866      1.0  0.23402  0.59432  0.99360  1.0000
  H   H867      1.0  0.24177  0.38818  0.21000  1.0000
  H   H868      1.0  0.29506  0.34692  0.21088  1.0000
  H   H869      1.0  0.25164  0.33271  0.98487  1.0000
  C   C540      1.0  0.29595  0.33471  0.21378  1.0000
  H   H870      1.0  0.14595  0.55199  0.98252  1.0000
  H   H871      1.0  0.32178  0.63823  0.07783  1.0000
  C   C541      1.0  0.26129  0.32431  0.05330  1.0000
  H   H872      1.0  0.20466  0.37824  0.22020  1.0000
  H   H873      1.0  0.23214  0.37435  0.21071  1.0000
  C   C542      1.0  0.24181  0.49398  0.22343  1.0000
  H   H874      1.0  0.04730  0.56281  0.22629  1.0000
  H   H875      1.0  0.07523  0.55019  0.18675  1.0000
  C   C543      1.0  0.31090  0.32625  0.99987  1.0000
  N   N57       1.0  0.30288  0.32817  0.20063  1.0000
  H   H876      1.0  0.29314  0.34729  0.18586  1.0000
  S   S208      1.0  0.10695  0.32030  0.21891  1.0000
  H   H877      1.0  0.00205  0.55183  0.18998  1.0000
  H   H878      1.0  0.16062  0.35890  0.19991  1.0000
  S   S209      1.0  0.30093  0.32383  0.98827  1.0000
  H   H879      1.0  0.18133  0.32159  0.21699  1.0000
  H   H880      1.0  0.27497  0.32243  0.14693  1.0000
  H   H881      1.0  0.26511  0.32909  0.11806  1.0000
  H   H882      1.0  0.04156  0.56150  0.19705  1.0000
  H   H883      1.0  0.15422  0.52547  0.98134  1.0000
  H   H884      1.0  0.26353  0.42888  0.22592  1.0000
  H   H885      1.0  0.22471  0.45044  0.22455  1.0000
  S   S210      1.0  0.99986  0.31933  0.16788  1.0000
  H   H886      1.0  0.25453  0.31929  0.04912  1.0000
  H   H887      1.0  0.31985  0.59041  0.97877  1.0000
  C   C544      1.0  0.32881  0.56291  0.02047  1.0000
  C   C545      1.0  0.32857  0.60900  0.97832  1.0000
  H   H888      1.0  0.99859  0.57044  0.46188  1.0000
  S   S211      1.0  0.19626  0.43837  0.24517  1.0000
  H   H889      1.0  0.00655  0.57898  0.39082  1.0000
  Fe  Fe102     1.0  0.15579  0.36359  0.25258  1.0000
  S   S212      1.0  0.15525  0.33961  0.26142  1.0000
  C   C546      1.0  0.06250  0.62753  0.38250  1.0000
  Fe  Fe103     1.0  0.17976  0.36194  0.26874  1.0000
  S   S213      1.0  0.18129  0.33772  0.27865  1.0000
  S   S214      1.0  0.19417  0.37197  0.27626  1.0000
  Fe  Fe104     1.0  0.18026  0.33636  0.25622  1.0000
  H   H890      1.0  0.00032  0.53444  0.45370  1.0000
  Fe  Fe105     1.0  0.15625  0.34374  0.28283  1.0000
  S   S215      1.0  0.18081  0.36019  0.24578  1.0000
  S   S216      1.0  0.15474  0.36812  0.27446  1.0000
  S   S217      1.0  0.19572  0.31971  0.24363  1.0000
  H   H891      1.0  0.18243  0.53104  0.26093  1.0000
  H   H892      1.0  0.08640  0.59632  0.25827  1.0000
  H   H893      1.0  0.11617  0.33481  0.25735  1.0000
  H   H894      1.0  0.20901  0.33826  0.25273  1.0000
  S   S218      1.0  0.00913  0.61042  0.34011  1.0000
  H   H895      1.0  0.15432  0.32519  0.42915  1.0000
  S   S219      1.0  0.14041  0.33747  0.30436  1.0000
  H   H896      1.0  0.16910  0.38467  0.29886  1.0000
  H   H897      1.0  0.15256  0.49630  0.32912  1.0000
  H   H898      1.0  0.05545  0.57752  0.26449  1.0000
  H   H899      1.0  0.12425  0.36762  0.29721  1.0000
  C   C547      1.0  0.19436  0.42047  0.25488  1.0000
  C   C548      1.0  0.20242  0.41292  0.26584  1.0000
  C   C549      1.0  0.20226  0.39799  0.27240  1.0000
  C   C550      1.0  0.19375  0.39073  0.26825  1.0000
  C   C551      1.0  0.18528  0.39841  0.25764  1.0000
  C   C552      1.0  0.18575  0.41325  0.25080  1.0000
  H   H900      1.0  0.20915  0.41845  0.26895  1.0000
  H   H901      1.0  0.20884  0.39203  0.28060  1.0000
  H   H902      1.0  0.17856  0.39286  0.25455  1.0000
  H   H903      1.0  0.17944  0.41915  0.24236  1.0000
  H   H904      1.0  0.21931  0.40093  0.23583  1.0000
  Fe  Fe106     1.0  0.18128  0.45949  0.29164  1.0000
  H   H905      1.0  0.03358  0.64055  0.38986  1.0000
  Fe  Fe107     1.0  0.19164  0.45364  0.26052  1.0000
  S   S220      1.0  0.16891  0.46059  0.27454  1.0000
  S   S221      1.0  0.20371  0.45011  0.27852  1.0000
  Fe  Fe108     1.0  0.20512  0.47394  0.26908  1.0000
  N   N58       1.0  0.10581  0.37006  0.28743  1.0000
  H   H906      1.0  0.09040  0.35555  0.29730  1.0000
  H   H907      1.0  0.10667  0.35052  0.30499  1.0000
  H   H908      1.0  0.09970  0.38971  0.27116  1.0000
  H   H909      1.0  0.10905  0.38302  0.30071  1.0000
  C   C553      1.0  0.11682  0.32298  0.26089  1.0000
  H   H910      1.0  0.09187  0.36600  0.30939  1.0000
  C   C554      1.0  0.00414  0.31952  0.23748  1.0000
  C   C555      1.0  0.09835  0.36014  0.30035  1.0000
  H   H911      1.0  0.07486  0.57500  0.26411  1.0000
  C   C556      1.0  0.14002  0.51220  0.23589  1.0000
  H   H912      1.0  0.12127  0.36849  0.26651  1.0000
  H   H913      1.0  0.08727  0.38879  0.28917  1.0000
  C   C557      1.0  0.11496  0.36152  0.27615  1.0000
  C   C558      1.0  0.21626  0.33512  0.24277  1.0000
  C   C559      1.0  0.11558  0.37648  0.29222  1.0000
  H   H914      1.0  0.10787  0.35701  0.27185  1.0000
  H   H915      1.0  0.08684  0.37756  0.27730  1.0000
  Fe  Fe109     1.0  0.17302  0.48351  0.26553  1.0000
  H   H916      1.0  0.16716  0.48074  0.24052  1.0000
  H   H917      1.0  0.12322  0.35187  0.28082  1.0000
  H   H918      1.0  0.23180  0.34838  0.24105  1.0000
  H   H919      1.0  0.15403  0.36868  0.31973  1.0000
  H   H920      1.0  0.10761  0.32370  0.39723  1.0000
  S   S222      1.0  0.10140  0.64851  0.40891  1.0000
  C   C560      1.0  0.09439  0.38210  0.28099  1.0000
  S   S223      1.0  0.19480  0.47679  0.25004  1.0000
  H   H921      1.0  0.12150  0.38394  0.28274  1.0000
  H   H922      1.0  0.10720  0.63011  0.35456  1.0000
  H   H923      1.0  0.16577  0.39801  0.30994  1.0000
  S   S224      1.0  0.18361  0.48311  0.28369  1.0000
  H   H924      1.0  0.15014  0.38295  0.32990  1.0000
  H   H925      1.0  0.11457  0.40248  0.40312  1.0000
  Fe  Fe110     1.0  0.02537  0.65045  0.35059  1.0000
  H   H926      1.0  0.20361  0.44974  0.36570  1.0000
  C   C561      1.0  0.18408  0.43821  0.38923  1.0000
  N   N59       1.0  0.17350  0.37531  0.32063  1.0000
  H   H927      1.0  0.19510  0.36336  0.31092  1.0000
  S   S225      1.0  0.13187  0.44471  0.41667  1.0000
  N   N60       1.0  0.20005  0.43733  0.38822  1.0000
  H   H928      1.0  0.18266  0.42953  0.38448  1.0000
  C   C562      1.0  0.20141  0.44940  0.39414  1.0000
  H   H929      1.0  0.17954  0.35792  0.30866  1.0000
  H   H930      1.0  0.10264  0.39673  0.39533  1.0000
  Fe  Fe111     1.0  0.14862  0.37010  0.39105  1.0000
  S   S226      1.0  0.15834  0.34540  0.39555  1.0000
  S   S227      1.0  0.16081  0.38799  0.38884  1.0000
  Fe  Fe112     1.0  0.12223  0.36685  0.38141  1.0000
  S   S228      1.0  0.12957  0.34223  0.38476  1.0000
  S   S229      1.0  0.10162  0.38077  0.37354  1.0000
  Fe  Fe113     1.0  0.13452  0.34306  0.40588  1.0000
  C   C563      1.0  0.04008  0.63811  0.39855  1.0000
  Fe  Fe114     1.0  0.15254  0.34634  0.37429  1.0000
  S   S230      1.0  0.16867  0.33484  0.35696  1.0000
  S   S231      1.0  0.12527  0.36775  0.40331  1.0000
  S   S232      1.0  0.14474  0.37097  0.36893  1.0000
  C   C564      1.0  0.11235  0.43012  0.38594  1.0000
  S   S233      1.0  0.06680  0.34694  0.35155  1.0000
  H   H931      1.0  0.19669  0.46051  0.38774  1.0000
  H   H932      1.0  0.09523  0.41184  0.40465  1.0000
  H   H933      1.0  0.16310  0.45822  0.36519  1.0000
  C   C565      1.0  0.16043  0.33406  0.34316  1.0000
  C   C566      1.0  0.14500  0.33917  0.34413  1.0000
  H   H934      1.0  0.13793  0.34297  0.35380  1.0000
  S   S234      1.0  0.14144  0.47644  0.38197  1.0000
  H   H935      1.0  0.20723  0.43008  0.36767  1.0000
  C   C567      1.0  0.18819  0.47222  0.33554  1.0000
  C   C568      1.0  0.17318  0.38746  0.30729  1.0000
  C   C569      1.0  0.17972  0.46971  0.35009  1.0000
  C   C570      1.0  0.20818  0.43888  0.37257  1.0000
  H   H936      1.0  0.19641  0.47899  0.33248  1.0000
  C   C571      1.0  0.09254  0.37133  0.36677  1.0000
  C   C572      1.0  0.07707  0.37605  0.36797  1.0000
  C   C573      1.0  0.06941  0.36854  0.36308  1.0000
  C   C574      1.0  0.07719  0.35643  0.35665  1.0000
  C   C575      1.0  0.09278  0.35198  0.35491  1.0000
  C   C576      1.0  0.10045  0.35931  0.36017  1.0000
  H   H937      1.0  0.07092  0.38537  0.37297  1.0000
  H   H938      1.0  0.09887  0.34281  0.34972  1.0000
  H   H939      1.0  0.11244  0.35587  0.35894  1.0000
  C   C577      1.0  0.13983  0.42906  0.40877  1.0000
  C   C578      1.0  0.15005  0.42994  0.39514  1.0000
  C   C579      1.0  0.15633  0.41727  0.38912  1.0000
  C   C580      1.0  0.15220  0.40372  0.39652  1.0000
  C   C581      1.0  0.14163  0.40294  0.40994  1.0000
  C   C582      1.0  0.13554  0.41557  0.41608  1.0000
  H   H940      1.0  0.15303  0.44041  0.38925  1.0000
  H   H941      1.0  0.16434  0.41797  0.37862  1.0000
  H   H942      1.0  0.13849  0.39251  0.41578  1.0000
  H   H943      1.0  0.12757  0.41485  0.42661  1.0000
  H   H944      1.0  0.05737  0.37206  0.36437  1.0000
  C   C583      1.0  0.13877  0.33975  0.33237  1.0000
  N   N61       1.0  0.10928  0.41710  0.38300  1.0000
  H   H945      1.0  0.12684  0.34385  0.33309  1.0000
  H   H946      1.0  0.12534  0.47941  0.32258  1.0000
  H   H947      1.0  0.19253  0.46820  0.31364  1.0000
  Fe  Fe115     1.0  0.07826  0.32764  0.34082  1.0000
  H   H948      1.0  0.19523  0.44870  0.40587  1.0000
  H   H949      1.0  0.11532  0.43838  0.37555  1.0000
  C   C584      1.0  0.09672  0.42196  0.37533  1.0000
  C   C585      1.0  0.15822  0.37270  0.32725  1.0000
  C   C586      1.0  0.17535  0.45741  0.32872  1.0000
  H   H950      1.0  0.08634  0.42759  0.38213  1.0000
  H   H951      1.0  0.09410  0.41235  0.37303  1.0000
  H   H952      1.0  0.09942  0.42980  0.36455  1.0000
  H   H953      1.0  0.13238  0.40551  0.37921  1.0000
  H   H954      1.0  0.12642  0.41737  0.36297  1.0000
  C   C587      1.0  0.18597  0.46615  0.32485  1.0000
  H   H955      1.0  0.19053  0.38143  0.32688  1.0000
  C   C588      1.0  0.16959  0.32929  0.33051  1.0000
  H   H956      1.0  0.00571  0.63556  0.31494  1.0000
  C   C589      1.0  0.10524  0.40659  0.39715  1.0000
  S   S235      1.0  0.12771  0.48726  0.41323  1.0000
  C   C590      1.0  0.16344  0.33022  0.31862  1.0000
  S   S236      1.0  0.16260  0.46891  0.40634  1.0000
  S   S237      1.0  0.18269  0.47740  0.36336  1.0000
  H   H957      1.0  0.21856  0.42171  0.39641  1.0000
  H   H958      1.0  0.20057  0.42134  0.40881  1.0000
  H   H959      1.0  0.15061  0.48523  0.29589  1.0000
  C   C591      1.0  0.18359  0.36164  0.31650  1.0000
  H   H960      1.0  0.22029  0.43827  0.37134  1.0000
  H   H961      1.0  0.20549  0.41349  0.39282  1.0000
  H   H962      1.0  0.12078  0.40000  0.37094  1.0000
  C   C592      1.0  0.16714  0.45461  0.34333  1.0000
  H   H963      1.0  0.99601  0.51738  0.30538  1.0000
  C   C593      1.0  0.01167  0.61171  0.32107  1.0000
  H   H964      1.0  0.17441  0.52374  0.25043  1.0000
  H   H965      1.0  0.15237  0.54283  0.28097  1.0000
  H   H966      1.0  0.08221  0.60076  0.24037  1.0000
  H   H967      1.0  0.12774  0.31882  0.23922  1.0000
  H   H968      1.0  0.10253  0.43584  0.39329  1.0000
  C   C594      1.0  0.16931  0.46073  0.35396  1.0000
  Fe  Fe116     1.0  0.14010  0.46601  0.40600  1.0000
  H   H969      1.0  0.18456  0.38962  0.30194  1.0000
  H   H970      1.0  0.14868  0.53555  0.24643  1.0000
  H   H971      1.0  0.21331  0.44909  0.39359  1.0000
  C   C595      1.0  0.20648  0.42282  0.39694  1.0000
  H   H972      1.0  0.17877  0.44915  0.38309  1.0000
  H   H973      1.0  0.12189  0.42682  0.39151  1.0000
  H   H974      1.0  0.15905  0.44770  0.34644  1.0000
  H   H975      1.0  0.18449  0.35237  0.32639  1.0000
  H   H976      1.0  0.17758  0.43676  0.40090  1.0000
  C   C596      1.0  0.12280  0.40970  0.37360  1.0000
  C   C597      1.0  0.14805  0.33556  0.31948  1.0000
  C   C598      1.0  0.14170  0.49487  0.29892  1.0000
  Fe  Fe117     1.0  0.16307  0.48085  0.38257  1.0000
  H   H977      1.0  0.14504  0.50509  0.29141  1.0000
  C   C599      1.0  0.17901  0.37940  0.33150  1.0000
  H   H978      1.0  0.17164  0.38964  0.33494  1.0000
  S   S238      1.0  0.17174  0.45015  0.31554  1.0000
  H   H979      1.0  0.15799  0.36416  0.33776  1.0000
  H   H980      1.0  0.17938  0.37041  0.34171  1.0000
  H   H981      1.0  0.13131  0.49400  0.29641  1.0000
  S   S239      1.0  0.22658  0.48007  0.26768  1.0000
  C   C600      1.0  0.05201  0.60669  0.24998  1.0000
  H   H982      1.0  0.07825  0.60246  0.31226  1.0000
  H   H983      1.0  0.07433  0.62153  0.30287  1.0000
  S   S240      1.0  0.09934  0.59611  0.28459  1.0000
  S   S241      1.0  0.13382  0.58383  0.28948  1.0000
  Fe  Fe118     1.0  0.12043  0.58161  0.27472  1.0000
  S   S242      1.0  0.13061  0.58433  0.25044  1.0000
  H   H984      1.0  0.17062  0.32662  0.30888  1.0000
  S   S243      1.0  0.11423  0.56035  0.28860  1.0000
  H   H985      1.0  0.01987  0.58865  0.29741  1.0000
  S   S244      1.0  0.01284  0.61298  0.27302  1.0000
  S   S245      1.0  0.00642  0.57209  0.28673  1.0000
  S   S246      1.0  0.15437  0.50232  0.25895  1.0000
  S   S247      1.0  0.10500  0.61695  0.30992  1.0000
  H   H986      1.0  0.15618  0.50780  0.31088  1.0000
  S   S248      1.0  0.04394  0.54203  0.27703  1.0000
  S   S249      1.0  0.02887  0.57893  0.25393  1.0000
  H   H987      1.0  0.25564  0.48617  0.25960  1.0000
  C   C601      1.0  0.21278  0.32538  0.23648  1.0000
  C   C602      1.0  0.06365  0.56375  0.30113  1.0000
  H   H988      1.0  0.14491  0.47139  0.32148  1.0000
  H   H989      1.0  0.04979  0.61869  0.24996  1.0000
  H   H990      1.0  0.08798  0.33362  0.38328  1.0000
  H   H991      1.0  0.22477  0.57577  0.45387  1.0000
  H   H992      1.0  0.13778  0.55072  0.25488  1.0000
  C   C603      1.0  0.15087  0.50119  0.24238  1.0000
  S   S250      1.0  0.06988  0.32517  0.32232  1.0000
  Fe  Fe119     1.0  0.01046  0.59192  0.26859  1.0000
  H   H993      1.0  0.13343  0.52112  0.24130  1.0000
  H   H994      1.0  0.25268  0.42252  0.24402  1.0000
  C   C604      1.0  0.01666  0.59889  0.30116  1.0000
  H   H995      1.0  0.03991  0.61338  0.39078  1.0000
  C   C605      1.0  0.25173  0.48834  0.24954  1.0000
  H   H996      1.0  0.22129  0.48850  0.23766  1.0000
  H   H997      1.0  0.04433  0.64814  0.39736  1.0000
  H   H998      1.0  0.04113  0.60325  0.25474  1.0000
  H   H999      1.0  0.01180  0.60402  0.38498  1.0000
  H   H1000     1.0  0.20738  0.58165  0.47670  1.0000
  N   N62       1.0  0.16050  0.54334  0.25769  1.0000
  Fe  Fe120     1.0  0.11197  0.59638  0.30086  1.0000
  Fe  Fe121     1.0  0.09444  0.57512  0.30019  1.0000
  H   H1001     1.0  0.04086  0.57102  0.31226  1.0000
  C   C606      1.0  0.05174  0.54924  0.28717  1.0000
  C   C607      1.0  0.06727  0.54782  0.28430  1.0000
  C   C608      1.0  0.07324  0.55518  0.29123  1.0000
  Fe  Fe122     1.0  0.01086  0.57643  0.24469  1.0000
  H   H1002     1.0  0.07461  0.54147  0.27637  1.0000
  H   H1003     1.0  0.08518  0.55440  0.28874  1.0000
  C   C609      1.0  0.12215  0.57739  0.24063  1.0000
  C   C610      1.0  0.10260  0.56639  0.23956  1.0000
  C   C611      1.0  0.10938  0.57162  0.24766  1.0000
  H   H1004     1.0  0.09277  0.56183  0.24497  1.0000
  H   H1005     1.0  0.10469  0.57125  0.25929  1.0000
  H   H1006     1.0  0.00397  0.33123  0.23708  1.0000
  C   C612      1.0  0.04230  0.55742  0.29741  1.0000
  H   H1007     1.0  0.16318  0.48806  0.31382  1.0000
  H   H1008     1.0  0.13978  0.34856  0.23772  1.0000
  H   H1009     1.0  0.17685  0.55618  0.24484  1.0000
  H   H1010     1.0  0.08350  0.32238  0.37383  1.0000
  H   H1011     1.0  0.05384  0.62022  0.42013  1.0000
  H   H1012     1.0  0.24446  0.56924  0.45333  1.0000
  H   H1013     1.0  0.07068  0.62904  0.32626  1.0000
  H   H1014     1.0  0.23066  0.43990  0.25541  1.0000
  H   H1015     1.0  0.17505  0.64634  0.42151  1.0000
  H   H1016     1.0  0.26458  0.43505  0.24146  1.0000
  Fe  Fe123     1.0  0.02372  0.55901  0.27131  1.0000
  Fe  Fe124     1.0  0.12630  0.56337  0.30400  1.0000
  H   H1017     1.0  0.22978  0.43145  0.23371  1.0000
  N   N63       1.0  0.06337  0.59774  0.25858  1.0000
  C   C613      1.0  0.04633  0.61182  0.39934  1.0000
  S   S251      1.0  0.12071  0.65119  0.37419  1.0000
  H   H1018     1.0  0.14884  0.56091  0.26912  1.0000
  H   H1019     1.0  0.25441  0.56812  0.47485  1.0000
  C   C614      1.0  0.19376  0.61131  0.47324  1.0000
  C   C615      1.0  0.00976  0.62568  0.29621  1.0000
  C   C616      1.0  0.07767  0.60260  0.25184  1.0000
  H   H1020     1.0  0.06869  0.58008  0.24708  1.0000
  H   H1021     1.0  0.13444  0.48078  0.33604  1.0000
  C   C617      1.0  0.14662  0.54039  0.25622  1.0000
  H   H1022     1.0  0.22467  0.59844  0.46056  1.0000
  Fe  Fe125     1.0  0.12547  0.64578  0.39687  1.0000
  H   H1023     1.0  0.00432  0.51120  0.35033  1.0000
  C   C618      1.0  0.06101  0.62236  0.40880  1.0000
  C   C619      1.0  0.26104  0.49286  0.23585  1.0000
  H   H1024     1.0  0.03042  0.55804  0.30012  1.0000
  S   S252      1.0  0.07035  0.57419  0.30901  1.0000
  C   C620      1.0  0.04824  0.56462  0.30441  1.0000
  C   C621      1.0  0.06905  0.61201  0.30928  1.0000
  C   C622      1.0  0.01331  0.61243  0.29130  1.0000
  C   C623      1.0  0.23746  0.48652  0.25026  1.0000
  C   C624      1.0  0.15346  0.49693  0.31721  1.0000
  H   H1025     1.0  0.06384  0.60893  0.30192  1.0000
  H   H1026     1.0  0.18152  0.32522  0.32977  1.0000
  H   H1027     1.0  0.07488  0.60990  0.33538  1.0000
  C   C625      1.0  0.01579  0.59854  0.31599  1.0000
  H   H1028     1.0  0.12695  0.55129  0.42723  1.0000
  C   C626      1.0  0.13759  0.55479  0.42096  1.0000
  H   H1029     1.0  0.16005  0.55655  0.35714  1.0000
  H   H1030     1.0  0.15103  0.57575  0.35649  1.0000
  C   C627      1.0  0.13735  0.56681  0.43987  1.0000
  H   H1031     1.0  0.05056  0.63845  0.31252  1.0000
  N   N64       1.0  0.05248  0.62494  0.39730  1.0000
  H   H1032     1.0  0.27210  0.49416  0.23539  1.0000
  H   H1033     1.0  0.16763  0.52125  0.27002  1.0000
  H   H1034     1.0  0.14455  0.55433  0.34154  1.0000
  H   H1035     1.0  0.04024  0.62601  0.31099  1.0000
  Fe  Fe126     1.0  0.17723  0.56026  0.45346  1.0000
  S   S253      1.0  0.12512  0.32565  0.42475  1.0000
  S   S254      1.0  0.18377  0.54762  0.43508  1.0000
  Fe  Fe127     1.0  0.15125  0.57779  0.47231  1.0000
  S   S255      1.0  0.13420  0.61072  0.36323  1.0000
  Fe  Fe128     1.0  0.13137  0.49789  0.38911  1.0000
  S   S256      1.0  0.15310  0.50338  0.38797  1.0000
  S   S257      1.0  0.11379  0.51432  0.37806  1.0000
  H   H1036     1.0  0.11232  0.56960  0.36917  1.0000
  H   H1037     1.0  0.12961  0.51849  0.31151  1.0000
  H   H1038     1.0  0.13747  0.57727  0.44253  1.0000
  C   C628      1.0  0.15023  0.56419  0.36250  1.0000
  N   N65       1.0  0.23137  0.57641  0.47321  1.0000
  C   C629      1.0  0.05810  0.59970  0.27398  1.0000
  H   H1039     1.0  0.15340  0.57523  0.40324  1.0000
  H   H1040     1.0  0.06016  0.59260  0.33404  1.0000
  Fe  Fe129     1.0  0.00815  0.63453  0.37937  1.0000
  H   H1041     1.0  0.23150  0.55790  0.46476  1.0000
  H   H1042     1.0  0.12608  0.59147  0.42116  1.0000
  S   S258      1.0  0.16330  0.58342  0.44864  1.0000
  N   N66       1.0  0.05800  0.61554  0.32266  1.0000
  S   S259      1.0  0.15143  0.49941  0.43134  1.0000
  H   H1043     1.0  0.01709  0.54712  0.46829  1.0000
  C   C630      1.0  0.11664  0.59082  0.46704  1.0000
  C   C631      1.0  0.12216  0.60122  0.45478  1.0000
  C   C632      1.0  0.11457  0.60732  0.44316  1.0000
  C   C633      1.0  0.10162  0.60280  0.44370  1.0000
  C   C634      1.0  0.09601  0.59259  0.45607  1.0000
  C   C635      1.0  0.10342  0.58672  0.46778  1.0000
  H   H1044     1.0  0.13225  0.60459  0.45426  1.0000
  H   H1045     1.0  0.11885  0.61535  0.43371  1.0000
  H   H1046     1.0  0.08600  0.58910  0.45654  1.0000
  N   N67       1.0  0.24432  0.44506  0.23357  1.0000
  C   C636      1.0  0.17475  0.53417  0.43423  1.0000
  C   C637      1.0  0.16447  0.52823  0.44638  1.0000
  C   C638      1.0  0.15747  0.51762  0.44525  1.0000
  C   C639      1.0  0.16050  0.51294  0.43195  1.0000
  C   C640      1.0  0.17062  0.51902  0.41971  1.0000
  C   C641      1.0  0.17778  0.52951  0.42090  1.0000
  H   H1047     1.0  0.16210  0.53162  0.45673  1.0000
  H   H1048     1.0  0.14971  0.51291  0.45478  1.0000
  H   H1049     1.0  0.17313  0.51544  0.40945  1.0000
  H   H1050     1.0  0.18577  0.53401  0.41146  1.0000
  H   H1051     1.0  0.04293  0.60473  0.34094  1.0000
  H   H1052     1.0  0.07063  0.61263  0.40812  1.0000
  Fe  Fe130     1.0  0.00701  0.62986  0.34983  1.0000
  S   S260      1.0  0.10244  0.32290  0.32955  1.0000
  H   H1053     1.0  0.14700  0.55826  0.44349  1.0000
  H   H1054     1.0  0.13850  0.55577  0.40901  1.0000
  S   S261      1.0  0.14115  0.37878  0.23743  1.0000
  S   S262      1.0  0.09290  0.60892  0.42863  1.0000
  C   C642      1.0  0.04603  0.62834  0.31835  1.0000
  C   C643      1.0  0.13518  0.56229  0.34699  1.0000
  H   H1055     1.0  0.09588  0.63223  0.33357  1.0000
  H   H1056     1.0  0.15817  0.56430  0.24207  1.0000
  C   C644      1.0  0.13447  0.53439  0.33071  1.0000
  H   H1057     1.0  0.24263  0.45225  0.25333  1.0000
  C   C645      1.0  0.15901  0.48947  0.23546  1.0000
  H   H1058     1.0  0.16234  0.56425  0.41805  1.0000
  H   H1059     1.0  0.12564  0.58230  0.40762  1.0000
  C   C646      1.0  0.14348  0.52362  0.33955  1.0000
  H   H1060     1.0  0.07194  0.61780  0.38104  1.0000
  S   S263      1.0  0.14275  0.54364  0.31329  1.0000
  C   C647      1.0  0.12713  0.50766  0.31834  1.0000
  H   H1061     1.0  0.20668  0.38142  0.23691  1.0000
  N   N68       1.0  0.13826  0.56883  0.42391  1.0000
  H   H1062     1.0  0.16907  0.54878  0.23420  1.0000
  H   H1063     1.0  0.11459  0.57820  0.42617  1.0000
  H   H1064     1.0  0.13251  0.59868  0.31784  1.0000
  C   C648      1.0  0.99777  0.60026  0.42203  1.0000
  H   H1065     1.0  0.11186  0.54571  0.32902  1.0000
  S   S264      1.0  0.10284  0.32843  0.28814  1.0000
  H   H1066     1.0  0.11646  0.50677  0.31642  1.0000
  C   C649      1.0  0.12161  0.52098  0.35948  1.0000
  C   C650      1.0  0.13702  0.51678  0.35386  1.0000
  H   H1067     1.0  0.13601  0.54417  0.38259  1.0000
  H   H1068     1.0  0.11476  0.32713  0.36960  1.0000
  H   H1069     1.0  0.00573  0.55199  0.44638  1.0000
  H   H1070     1.0  0.04565  0.59945  0.32385  1.0000
  H   H1071     1.0  0.05636  0.62989  0.37353  1.0000
  N   N69       1.0  0.13597  0.56099  0.36240  1.0000
  H   H1072     1.0  0.04744  0.59589  0.27945  1.0000
  H   H1073     1.0  0.15359  0.58336  0.41780  1.0000
  C   C651      1.0  0.12326  0.57170  0.36912  1.0000
  C   C652      1.0  0.13516  0.54575  0.37097  1.0000
  H   H1074     1.0  0.06569  0.63211  0.40770  1.0000
  C   C653      1.0  0.00892  0.62533  0.31110  1.0000
  H   H1075     1.0  0.14436  0.53733  0.36599  1.0000
  C   C654      1.0  0.06561  0.61925  0.33214  1.0000
  C   C655      1.0  0.08735  0.32209  0.38382  1.0000
  Fe  Fe131     1.0  0.15039  0.49117  0.41176  1.0000
  H   H1076     1.0  0.12513  0.50806  0.33017  1.0000
  C   C656      1.0  0.20468  0.62774  0.45145  1.0000
  H   H1077     1.0  0.03844  0.60973  0.41028  1.0000
  C   C657      1.0  0.10632  0.62443  0.33476  1.0000
  H   H1078     1.0  0.14405  0.50854  0.36066  1.0000
  Fe  Fe132     1.0  0.10437  0.62447  0.40978  1.0000
  H   H1079     1.0  0.12439  0.54308  0.37138  1.0000
  H   H1080     1.0  0.03177  0.32428  0.23310  1.0000
  H   H1081     1.0  0.01805  0.58797  0.32365  1.0000
  C   C658      1.0  0.22920  0.34081  0.23619  1.0000
  H   H1082     1.0  0.12452  0.56002  0.34649  1.0000
  S   S265      1.0  0.00756  0.62454  0.40339  1.0000
  C   C659      1.0  0.05141  0.60253  0.33077  1.0000
  H   H1083     1.0  0.22621  0.45890  0.24586  1.0000
  S   S266      1.0  0.02584  0.62651  0.36093  1.0000
  S   S267      1.0  0.19433  0.56737  0.46057  1.0000
  C   C660      1.0  0.13352  0.60448  0.33754  1.0000
  C   C661      1.0  0.15713  0.55015  0.27055  1.0000
  C   C662      1.0  0.00396  0.60675  0.40750  1.0000
  C   C663      1.0  0.13585  0.48107  0.32411  1.0000
  C   C664      1.0  0.06568  0.58191  0.25853  1.0000
  H   H1084     1.0  0.05767  0.62203  0.34236  1.0000
  H   H1085     1.0  0.12686  0.56337  0.44676  1.0000
  S   S268      1.0  0.09774  0.62826  0.38836  1.0000
  H   H1086     1.0  0.05599  0.61153  0.27449  1.0000
  S   S269      1.0  0.10594  0.57615  0.31699  1.0000
  C   C665      1.0  0.00415  0.58487  0.39955  1.0000
  H   H1087     1.0  0.03737  0.63112  0.32819  1.0000
  H   H1088     1.0  0.06647  0.59316  0.28074  1.0000
  H   H1089     1.0  0.13580  0.57360  0.34014  1.0000
  H   H1090     1.0  0.10058  0.53447  0.35469  1.0000
  C   C666      1.0  0.23560  0.44915  0.24767  1.0000
  H   H1091     1.0  0.09912  0.57871  0.47726  1.0000
  H   H1092     1.0  0.15549  0.52075  0.33545  1.0000
  H   H1093     1.0  0.07631  0.61458  0.25134  1.0000
  Fe  Fe133     1.0  0.17924  0.59002  0.45763  1.0000
  C   C667      1.0  0.17176  0.52925  0.25987  1.0000
  C   C668      1.0  0.23240  0.48954  0.23720  1.0000
  C   C669      1.0  0.23301  0.59195  0.46737  1.0000
  S   S270      1.0  0.00717  0.55533  0.26092  1.0000
  H   H1094     1.0  0.16735  0.55239  0.27214  1.0000
  H   H1095     1.0  0.06748  0.63721  0.38073  1.0000
  N   N70       1.0  0.13954  0.49514  0.31464  1.0000
  C   C670      1.0  0.11254  0.53136  0.35044  1.0000
  H   H1096     1.0  0.20673  0.63199  0.43962  1.0000
  H   H1097     1.0  0.15136  0.56300  0.37396  1.0000
  C   C671      1.0  0.21087  0.63288  0.46016  1.0000
  C   C672      1.0  0.12634  0.61320  0.34803  1.0000
  C   C673      1.0  0.19614  0.61692  0.45797  1.0000
  H   H1098     1.0  0.12351  0.57109  0.38072  1.0000
  H   H1099     1.0  0.05535  0.60163  0.39867  1.0000
  S   S271      1.0  0.12899  0.62108  0.40000  1.0000
  C   C674      1.0  0.11274  0.62323  0.34661  1.0000
  H   H1100     1.0  0.12351  0.58331  0.36292  1.0000
  C   C675      1.0  0.23314  0.56950  0.46075  1.0000
  C   C676      1.0  0.25683  0.43228  0.23639  1.0000
  C   C677      1.0  0.12692  0.60542  0.32592  1.0000
  C   C678      1.0  0.15250  0.57310  0.41535  1.0000
  C   C679      1.0  0.20896  0.62680  0.47535  1.0000
  H   H1101     1.0  0.03204  0.63640  0.40943  1.0000
  C   C680      1.0  0.11335  0.61546  0.32448  1.0000
  H   H1102     1.0  0.21754  0.64118  0.45505  1.0000
  H   H1103     1.0  0.17555  0.64210  0.44754  1.0000
  H   H1104     1.0  0.24430  0.59264  0.46021  1.0000
  H   H1105     1.0  0.14689  0.54561  0.42436  1.0000
  H   H1106     1.0  0.14427  0.59709  0.33831  1.0000
  C   C681      1.0  0.12558  0.58066  0.41951  1.0000
  C   C682      1.0  0.99762  0.57852  0.41401  1.0000
  Fe  Fe134     1.0  0.12218  0.62660  0.37828  1.0000
  C   C683      1.0  0.11895  0.53790  0.33599  1.0000
  S   S272      1.0  0.18881  0.61041  0.44677  1.0000
  C   C684      1.0  0.16644  0.55358  0.24410  1.0000
  C   C685      1.0  0.00760  0.54193  0.47520  1.0000
  C   C686      1.0  0.00710  0.59907  0.39625  1.0000
  H   H1107     1.0  0.05557  0.60551  0.23828  1.0000
  H   H1108     1.0  0.23133  0.59771  0.47644  1.0000
  H   H1109     1.0  0.00725  0.63622  0.28859  1.0000
  H   H1110     1.0  0.01120  0.52982  0.47553  1.0000
  H   H1111     1.0  0.14198  0.53241  0.26609  1.0000
  S   S273      1.0  0.16410  0.55420  0.47672  1.0000
  C   C687      1.0  0.99681  0.54640  0.45406  1.0000
  H   H1112     1.0  0.25692  0.46189  0.22894  1.0000
  Fe  Fe135     1.0  0.09420  0.31836  0.31195  1.0000
  H   H1113     1.0  0.07846  0.31903  0.39365  1.0000
  H   H1114     1.0  0.14431  0.40568  0.65412  1.0000
  H   H1115     1.0  0.14069  0.39160  0.64738  1.0000
  H   H1116     1.0  0.17305  0.38788  0.66360  1.0000
  H   H1117     1.0  0.12524  0.61662  0.65870  1.0000
  C   C688      1.0  0.14831  0.39395  0.65290  1.0000
  H   H1118     1.0  0.14696  0.38692  0.66429  1.0000
  H   H1119     1.0  0.05230  0.63460  0.68736  1.0000
  H   H1120     1.0  0.13619  0.49442  0.70653  1.0000
  C   C689      1.0  0.01497  0.63607  0.69360  1.0000
  C   C690      1.0  0.24291  0.56811  0.48180  1.0000
  H   H1121     1.0  0.00113  0.56210  0.70592  1.0000
  H   H1122     1.0  0.16992  0.40655  0.65325  1.0000
  C   C691      1.0  0.16848  0.32889  0.65102  1.0000
  N   N71       1.0  0.16407  0.39103  0.64465  1.0000
  C   C692      1.0  0.16527  0.40024  0.62946  1.0000
  C   C693      1.0  0.17360  0.39476  0.65220  1.0000
  H   H1123     1.0  0.16155  0.41227  0.62955  1.0000
  S   S274      1.0  0.17197  0.32826  0.69949  1.0000
  C   C694      1.0  0.18169  0.42633  0.68316  1.0000
  C   C695      1.0  0.17811  0.40176  0.68486  1.0000
  S   S275      1.0  0.15819  0.35705  0.71524  1.0000
  S   S276      1.0  0.14848  0.35736  0.68491  1.0000
  Fe  Fe136     1.0  0.15945  0.37111  0.69227  1.0000
  S   S277      1.0  0.15038  0.39583  0.68879  1.0000
  Fe  Fe137     1.0  0.14948  0.34224  0.70711  1.0000
  S   S278      1.0  0.22095  0.46034  0.71877  1.0000
  C   C696      1.0  0.19151  0.36518  0.72182  1.0000
  H   H1124     1.0  0.14461  0.42615  0.69077  1.0000
  N   N72       1.0  0.22105  0.41193  0.70903  1.0000
  H   H1125     1.0  0.14803  0.34207  0.66132  1.0000
  C   C697      1.0  0.16257  0.40711  0.68763  1.0000
  H   H1126     1.0  0.99893  0.37546  0.71541  1.0000
  H   H1127     1.0  0.18987  0.63472  0.50773  1.0000
  H   H1128     1.0  0.16839  0.36794  0.65536  1.0000
  S   S279      1.0  0.21781  0.63205  0.48614  1.0000
  S   S280      1.0  0.18786  0.45132  0.71445  1.0000
  Fe  Fe138     1.0  0.20122  0.46872  0.70796  1.0000
  C   C698      1.0  0.20474  0.41287  0.71418  1.0000
  H   H1129     1.0  0.18957  0.49987  0.65503  1.0000
  H   H1130     1.0  0.18557  0.39284  0.64627  1.0000
  C   C699      1.0  0.16616  0.43152  0.68661  1.0000
  H   H1131     1.0  0.00776  0.60974  0.67990  1.0000
  H   H1132     1.0  0.16211  0.37180  0.63860  1.0000
  H   H1133     1.0  0.00801  0.49339  0.70933  1.0000
  H   H1134     1.0  0.18460  0.36765  0.71389  1.0000
  H   H1135     1.0  0.17771  0.62984  0.61381  1.0000
  S   S281      1.0  0.18040  0.33643  0.65650  1.0000
  S   S282      1.0  0.13377  0.65025  0.64602  1.0000
  H   H1136     1.0  0.18282  0.39029  0.68429  1.0000
  H   H1137     1.0  0.19965  0.40736  0.67969  1.0000
  Fe  Fe139     1.0  0.17179  0.34455  0.67777  1.0000
  H   H1138     1.0  0.17420  0.63120  0.52270  1.0000
  C   C700      1.0  0.15663  0.42197  0.68859  1.0000
  C   C701      1.0  0.18764  0.41143  0.68234  1.0000
  S   S283      1.0  0.18132  0.48693  0.71289  1.0000
  H   H1139     1.0  0.13100  0.32759  0.51590  1.0000
  C   C702      1.0  0.00988  0.58555  0.71300  1.0000
  C   C703      1.0  0.16909  0.37516  0.64408  1.0000
  H   H1140     1.0  0.13936  0.58345  0.65971  1.0000
  Fe  Fe140     1.0  0.16796  0.46977  0.71777  1.0000
  Fe  Fe141     1.0  0.18080  0.34447  0.70559  1.0000
  S   S284      1.0  0.18286  0.35964  0.68311  1.0000
  H   H1141     1.0  0.18693  0.60325  0.47834  1.0000
  H   H1142     1.0  0.18096  0.37243  0.63802  1.0000
  H   H1143     1.0  0.13157  0.33115  0.65347  1.0000
  Fe  Fe142     1.0  0.18641  0.45735  0.69072  1.0000
  H   H1144     1.0  0.14959  0.32570  0.50440  1.0000
  H   H1145     1.0  0.11974  0.53381  0.72349  1.0000
  S   S285      1.0  0.19391  0.43838  0.67906  1.0000
  H   H1146     1.0  0.21432  0.58171  0.49216  1.0000
  C   C704      1.0  0.12166  0.52879  0.71385  1.0000
  S   S286      1.0  0.20114  0.47385  0.68380  1.0000
  S   S287      1.0  0.16473  0.47420  0.69460  1.0000
  S   S288      1.0  0.02136  0.56927  0.72071  1.0000
  H   H1147     1.0  0.16149  0.44301  0.68722  1.0000
  H   H1148     1.0  0.25625  0.64670  0.51276  1.0000
  H   H1149     1.0  0.09458  0.60959  0.66402  1.0000
  H   H1150     1.0  0.24196  0.55633  0.48637  1.0000
  H   H1151     1.0  0.00038  0.37268  0.69736  1.0000
  C   C705      1.0  0.15291  0.33357  0.65498  1.0000
  H   H1152     1.0  0.24176  0.57306  0.49132  1.0000
  H   H1153     1.0  0.17704  0.39831  0.62296  1.0000
  H   H1154     1.0  0.15823  0.39768  0.62343  1.0000
  S   S289      1.0  0.03497  0.62543  0.63434  1.0000
  C   C706      1.0  0.17262  0.54068  0.63772  1.0000
  Fe  Fe143     1.0  0.15980  0.59215  0.60055  1.0000
  S   S290      1.0  0.13669  0.60398  0.60989  1.0000
  C   C707      1.0  0.04081  0.63377  0.69400  1.0000
  H   H1155     1.0  0.01072  0.64408  0.70100  1.0000
  S   S291      1.0  0.19981  0.57345  0.58273  1.0000
  H   H1156     1.0  0.19069  0.64159  0.62380  1.0000
  H   H1157     1.0  0.19885  0.61132  0.49365  1.0000
  H   H1158     1.0  0.18427  0.38713  0.72611  1.0000
  S   S292      1.0  0.18864  0.55320  0.50433  1.0000
  C   C708      1.0  0.22168  0.63975  0.56755  1.0000
  H   H1159     1.0  0.11927  0.56299  0.53346  1.0000
  H   H1160     1.0  0.21393  0.63164  0.55306  1.0000
  C   C709      1.0  0.14215  0.31987  0.51402  1.0000
  H   H1161     1.0  0.22015  0.52650  0.62080  1.0000
  S   S293      1.0  0.18208  0.59542  0.54701  1.0000
  C   C710      1.0  0.00450  0.60466  0.69148  1.0000
  S   S294      1.0  0.10557  0.64897  0.68365  1.0000
  C   C711      1.0  0.12166  0.60804  0.66854  1.0000
  C   C712      1.0  0.22131  0.62416  0.59219  1.0000
  C   C713      1.0  0.18663  0.56486  0.51636  1.0000
  C   C714      1.0  0.18792  0.55869  0.53108  1.0000
  C   C715      1.0  0.18633  0.56791  0.54075  1.0000
  H   H1162     1.0  0.19016  0.54677  0.53504  1.0000
  H   H1163     1.0  0.18738  0.56308  0.55207  1.0000
  C   C716      1.0  0.13680  0.61796  0.61817  1.0000
  C   C717      1.0  0.14926  0.61749  0.62342  1.0000
  C   C718      1.0  0.14843  0.62765  0.63174  1.0000
  C   C719      1.0  0.13534  0.63853  0.63442  1.0000
  C   C720      1.0  0.12319  0.63940  0.62858  1.0000
  C   C721      1.0  0.12384  0.62901  0.62063  1.0000
  H   H1164     1.0  0.15924  0.60887  0.62166  1.0000
  H   H1165     1.0  0.15772  0.62671  0.63657  1.0000
  Fe  Fe144     1.0  0.17953  0.49041  0.68938  1.0000
  H   H1166     1.0  0.11424  0.62946  0.61648  1.0000
  H   H1167     1.0  0.14511  0.55202  0.52100  1.0000
  C   C722      1.0  0.05706  0.63696  0.63681  1.0000
  C   C723      1.0  0.21218  0.61720  0.57466  1.0000
  N   N73       1.0  0.13707  0.57470  0.52334  1.0000
  C   C724      1.0  0.12107  0.57414  0.52699  1.0000
  C   C725      1.0  0.13891  0.58962  0.51458  1.0000
  C   C726      1.0  0.14247  0.57155  0.53709  1.0000
  H   H1168     1.0  0.11674  0.57656  0.51674  1.0000
  H   H1169     1.0  0.11405  0.58243  0.53360  1.0000
  H   H1170     1.0  0.15083  0.59050  0.51184  1.0000
  H   H1171     1.0  0.13523  0.59222  0.50396  1.0000
  H   H1172     1.0  0.13221  0.59839  0.52071  1.0000
  H   H1173     1.0  0.14188  0.56528  0.50433  1.0000
  H   H1174     1.0  0.13618  0.57984  0.54394  1.0000
  H   H1175     1.0  0.15456  0.57184  0.53463  1.0000
  H   H1176     1.0  0.14130  0.56036  0.54399  1.0000
  S   S295      1.0  0.17661  0.57930  0.61426  1.0000
  H   H1177     1.0  0.18836  0.63409  0.59536  1.0000
  H   H1178     1.0  0.18313  0.58512  0.50006  1.0000
  H   H1179     1.0  0.11236  0.61388  0.67624  1.0000
  H   H1180     1.0  0.21746  0.56684  0.60762  1.0000
  C   C727      1.0  0.20653  0.54945  0.63318  1.0000
  C   C728      1.0  0.21481  0.61448  0.58881  1.0000
  H   H1181     1.0  0.20187  0.40229  0.71472  1.0000
  H   H1182     1.0  0.23146  0.54736  0.64194  1.0000
  H   H1183     1.0  0.20050  0.41534  0.72539  1.0000
  H   H1184     1.0  0.23039  0.52925  0.64117  1.0000
  H   H1185     1.0  0.21190  0.62756  0.52885  1.0000
  H   H1186     1.0  0.03756  0.64148  0.70163  1.0000
  H   H1187     1.0  0.18024  0.60135  0.51689  1.0000
  H   H1188     1.0  0.21657  0.54229  0.60616  1.0000
  C   C729      1.0  0.23255  0.54018  0.63428  1.0000
  H   H1189     1.0  0.24439  0.53827  0.62796  1.0000
  C   C730      1.0  0.18832  0.51666  0.63484  1.0000
  H   H1190     1.0  0.23543  0.53419  0.60821  1.0000
  C   C731      1.0  0.14585  0.56348  0.51462  1.0000
  H   H1191     1.0  0.20297  0.64585  0.60609  1.0000
  C   C732      1.0  0.22452  0.63693  0.58164  1.0000
  S   S296      1.0  0.20889  0.59976  0.60266  1.0000
  H   H1192     1.0  0.15788  0.56389  0.51129  1.0000
  H   H1193     1.0  0.19241  0.61932  0.52306  1.0000
  H   H1194     1.0  0.22403  0.56933  0.62220  1.0000
  H   H1195     1.0  0.03529  0.61524  0.68070  1.0000
  S   S297      1.0  0.18770  0.53816  0.60928  1.0000
  H   H1196     1.0  0.12045  0.50802  0.70087  1.0000
  C   C733      1.0  0.22528  0.56140  0.61523  1.0000
  C   C734      1.0  0.22367  0.53704  0.61446  1.0000
  N   N74       1.0  0.03003  0.63735  0.68440  1.0000
  Fe  Fe145     1.0  0.19282  0.59078  0.59619  1.0000
  H   H1197     1.0  0.06406  0.62596  0.63679  1.0000
  H   H1198     1.0  0.16773  0.55198  0.63297  1.0000
  H   H1199     1.0  0.21494  0.56449  0.48794  1.0000
  S   S298      1.0  0.99872  0.64649  0.65522  1.0000
  C   C735      1.0  0.18399  0.63600  0.54378  1.0000
  C   C736      1.0  0.18381  0.58026  0.51138  1.0000
  H   H1200     1.0  0.21869  0.43536  0.69979  1.0000
  Fe  Fe146     1.0  0.00987  0.63070  0.64017  1.0000
  N   N75       1.0  0.22203  0.54701  0.62428  1.0000
  C   C737      1.0  0.18638  0.63107  0.51995  1.0000
  C   C738      1.0  0.22432  0.42639  0.70790  1.0000
  H   H1201     1.0  0.20466  0.55729  0.64040  1.0000
  H   H1202     1.0  0.13369  0.59694  0.64411  1.0000
  C   C739      1.0  0.18362  0.58334  0.53564  1.0000
  H   H1203     1.0  0.11322  0.64806  0.63020  1.0000
  S   S299      1.0  0.17547  0.60521  0.58376  1.0000
  S   S300      1.0  0.16376  0.57483  0.58758  1.0000
  C   C740      1.0  0.14331  0.51091  0.72086  1.0000
  H   H1204     1.0  0.26932  0.64027  0.52471  1.0000
  H   H1205     1.0  0.20373  0.53887  0.64041  1.0000
  C   C741      1.0  0.18233  0.58945  0.52094  1.0000
  C   C742      1.0  0.14362  0.32738  0.65053  1.0000
  C   C743      1.0  0.19205  0.64996  0.61318  1.0000
  C   C744      1.0  0.10409  0.60925  0.72782  1.0000
  H   H1206     1.0  0.13897  0.51183  0.69448  1.0000
  C   C745      1.0  0.21583  0.62969  0.56400  1.0000
  H   H1207     1.0  0.20739  0.60964  0.57189  1.0000
  Fe  Fe147     1.0  0.18208  0.56290  0.59997  1.0000
  C   C746      1.0  0.03494  0.62690  0.67441  1.0000
  Fe  Fe148     1.0  0.18093  0.58689  0.57160  1.0000
  C   C747      1.0  0.18228  0.53141  0.62853  1.0000
  H   H1208     1.0  0.18915  0.62418  0.54807  1.0000
  H   H1209     1.0  0.19574  0.50940  0.62780  1.0000
  H   H1210     1.0  0.07386  0.64552  0.64058  1.0000
  H   H1211     1.0  0.21086  0.64189  0.51254  1.0000
  H   H1212     1.0  0.22038  0.42976  0.71872  1.0000
  H   H1213     1.0  0.20906  0.64671  0.52967  1.0000
  C   C748      1.0  0.20025  0.35092  0.72547  1.0000
  H   H1214     1.0  0.99883  0.51082  0.72624  1.0000
  H   H1215     1.0  0.23841  0.40723  0.69013  1.0000
  H   H1216     1.0  0.22350  0.62199  0.60310  1.0000
  H   H1217     1.0  0.23686  0.56006  0.60829  1.0000
  C   C749      1.0  0.20040  0.61601  0.48189  1.0000
  H   H1218     1.0  0.24967  0.64603  0.53219  1.0000
  H   H1219     1.0  0.01504  0.62476  0.70073  1.0000
  H   H1220     1.0  0.12881  0.53498  0.70427  1.0000
  H   H1221     1.0  0.19832  0.55412  0.62595  1.0000
  C   C750      1.0  0.17841  0.63855  0.60341  1.0000
  H   H1222     1.0  0.22650  0.38930  0.72092  1.0000
  C   C751      1.0  0.12969  0.58902  0.65436  1.0000
  H   H1223     1.0  0.14902  0.49901  0.72311  1.0000
  H   H1224     1.0  0.00572  0.54340  0.48668  1.0000
  H   H1225     1.0  0.20767  0.49080  0.72061  1.0000
  H   H1226     1.0  0.02504  0.58796  0.69163  1.0000
  N   N76       1.0  0.12873  0.51283  0.71720  1.0000
  H   H1227     1.0  0.04162  0.62226  0.70083  1.0000
  H   H1228     1.0  0.14145  0.32451  0.69081  1.0000
  H   H1229     1.0  0.11052  0.53063  0.71125  1.0000
  S   S301      1.0  0.17094  0.51441  0.67884  1.0000
  C   C752      1.0  0.16923  0.53530  0.65312  1.0000
  S   S302      1.0  0.09287  0.64314  0.65808  1.0000
  N   N77       1.0  0.11695  0.59666  0.66435  1.0000
  H   H1230     1.0  0.10224  0.59111  0.68545  1.0000
  C   C753      1.0  0.13116  0.50654  0.70417  1.0000
  H   H1231     1.0  0.09711  0.62784  0.71083  1.0000
  S   S303      1.0  0.19891  0.33658  0.71839  1.0000
  C   C754      1.0  0.09071  0.59334  0.71697  1.0000
  C   C755      1.0  0.09061  0.60832  0.71026  1.0000
  C   C756      1.0  0.09733  0.61624  0.71572  1.0000
  H   H1232     1.0  0.00289  0.59197  0.59316  1.0000
  H   H1233     1.0  0.08558  0.58713  0.71277  1.0000
  C   C757      1.0  0.04237  0.63998  0.63498  1.0000
  H   H1234     1.0  0.16181  0.54255  0.66016  1.0000
  C   C758      1.0  0.11199  0.58573  0.67780  1.0000
  C   C759      1.0  0.22891  0.40033  0.71969  1.0000
  H   H1235     1.0  0.24126  0.39923  0.71621  1.0000
  H   H1236     1.0  0.10851  0.57689  0.67504  1.0000
  H   H1237     1.0  0.13119  0.60308  0.67419  1.0000
  H   H1238     1.0  0.10071  0.59566  0.65320  1.0000
  H   H1239     1.0  0.22933  0.64449  0.58437  1.0000
  H   H1240     1.0  0.10756  0.50663  0.72770  1.0000
  C   C760      1.0  0.01429  0.59242  0.69813  1.0000
  H   H1241     1.0  0.10777  0.61229  0.64659  1.0000
  H   H1242     1.0  0.02726  0.62942  0.66677  1.0000
  C   C761      1.0  0.17533  0.52059  0.65944  1.0000
  S   S304      1.0  0.08214  0.61688  0.69502  1.0000
  N   N78       1.0  0.18973  0.64063  0.52768  1.0000
  C   C762      1.0  0.21637  0.57607  0.48293  1.0000
  H   H1243     1.0  0.12650  0.58048  0.65082  1.0000
  H   H1244     1.0  0.22040  0.41668  0.68608  1.0000
  C   C763      1.0  0.18486  0.51125  0.65026  1.0000
  H   H1245     1.0  0.17165  0.63695  0.54652  1.0000
  H   H1246     1.0  0.05214  0.57216  0.72266  1.0000
  H   H1247     1.0  0.12105  0.58033  0.68402  1.0000
  C   C764      1.0  0.10445  0.60386  0.65672  1.0000
  H   H1248     1.0  0.04633  0.62747  0.66742  1.0000
  H   H1249     1.0  0.00664  0.63832  0.68667  1.0000
  S   S305      1.0  0.12642  0.58231  0.48122  1.0000
  H   H1250     1.0  0.22364  0.39732  0.69480  1.0000
  C   C765      1.0  0.99677  0.50021  0.71019  1.0000
  H   H1251     1.0  0.15104  0.51675  0.71156  1.0000
  H   H1252     1.0  0.23654  0.42610  0.70425  1.0000
  Fe  Fe149     1.0  0.08701  0.63937  0.68276  1.0000
  H   H1253     1.0  0.19838  0.42165  0.70662  1.0000
  C   C766      1.0  0.20611  0.63913  0.52461  1.0000
  C   C767      1.0  0.22614  0.40810  0.69436  1.0000
  Fe  Fe150     1.0  0.17973  0.56361  0.48344  1.0000
  H   H1254     1.0  0.00385  0.55033  0.69346  1.0000
  S   S306      1.0  0.13012  0.33197  0.72031  1.0000
  C   C768      1.0  0.25894  0.64853  0.52254  1.0000
  S   S307      1.0  0.16565  0.58668  0.48082  1.0000
  H   H1255     1.0  0.16835  0.63992  0.59902  1.0000
  C   C769      1.0  0.06256  0.64799  0.63917  1.0000
  H   H1256     1.0  0.18643  0.64290  0.54997  1.0000
  H   H1257     1.0  0.99597  0.34722  0.70833  1.0000
  S   S308      1.0  0.99667  0.61325  0.65300  1.0000
  C   C770      1.0  0.99604  0.59133  0.72140  1.0000
  C   C771      1.0  0.17468  0.31804  0.64255  1.0000
  H   H1258     1.0  0.13270  0.31822  0.68018  1.0000
  H   H1259     1.0  0.17627  0.49743  0.91016  1.0000
  C   C772      1.0  0.09851  0.44494  0.90358  1.0000
  H   H1260     1.0  0.23244  0.46641  0.76288  1.0000
  H   H1261     1.0  0.12558  0.48074  0.75934  1.0000
  C   C773      1.0  0.15493  0.35166  0.77342  1.0000
  H   H1262     1.0  0.27664  0.32198  0.94356  1.0000
  H   H1263     1.0  0.20807  0.44444  0.77132  1.0000
  H   H1264     1.0  0.27629  0.49650  0.94139  1.0000
  C   C774      1.0  0.16710  0.34111  0.81220  1.0000
  C   C775      1.0  0.15267  0.33820  0.81629  1.0000
  H   H1265     1.0  0.04637  0.56445  0.76954  1.0000
  H   H1266     1.0  0.16861  0.35230  0.80732  1.0000
  H   H1267     1.0  0.14308  0.34715  0.81450  1.0000
  C   C776      1.0  0.16743  0.47444  0.85402  1.0000
  H   H1268     1.0  0.13648  0.54243  0.96609  1.0000
  S   S309      1.0  0.14985  0.46764  0.73849  1.0000
  C   C777      1.0  0.17210  0.54714  0.95111  1.0000
  H   H1269     1.0  0.20382  0.42690  0.78166  1.0000
  S   S310      1.0  0.99807  0.50857  0.85112  1.0000
  N   N79       1.0  0.24112  0.38597  0.84483  1.0000
  H   H1270     1.0  0.10987  0.46925  0.89118  1.0000
  H   H1271     1.0  0.17270  0.47936  0.74350  1.0000
  N   N80       1.0  0.16828  0.34061  0.76824  1.0000
  S   S311      1.0  0.32359  0.41201  0.88989  1.0000
  H   H1272     1.0  0.25840  0.50883  0.90676  1.0000
  Fe  Fe151     1.0  0.28913  0.56420  0.96548  1.0000
  H   H1273     1.0  0.25066  0.34650  0.96798  1.0000
  H   H1274     1.0  0.24291  0.58610  0.97789  1.0000
  H   H1275     1.0  0.06129  0.55266  0.75936  1.0000
  H   H1276     1.0  0.06546  0.52913  0.73017  1.0000
  H   H1277     1.0  0.18282  0.35568  0.76346  1.0000
  H   H1278     1.0  0.02983  0.58574  0.75617  1.0000
  H   H1279     1.0  0.32196  0.38271  0.91445  1.0000
  H   H1280     1.0  0.16523  0.55333  0.97794  1.0000
  N   N81       1.0  0.00098  0.49488  0.81076  1.0000
  H   H1281     1.0  0.27099  0.48724  0.96853  1.0000
  H   H1282     1.0  0.24302  0.32921  0.95793  1.0000
  H   H1283     1.0  0.24117  0.56742  0.95629  1.0000
  H   H1284     1.0  0.30238  0.49236  0.96523  1.0000
  H   H1285     1.0  0.05331  0.52789  0.83749  1.0000
  H   H1286     1.0  0.18178  0.34351  0.78138  1.0000
  H   H1287     1.0  0.10916  0.61548  0.73208  1.0000
  H   H1288     1.0  0.25796  0.38615  0.85559  1.0000
  H   H1289     1.0  0.20093  0.33243  0.85356  1.0000
  C   C778      1.0  0.19030  0.42941  0.81587  1.0000
  H   H1290     1.0  0.10419  0.46169  0.91864  1.0000
  C   C779      1.0  0.16195  0.48372  0.74993  1.0000
  S   S312      1.0  0.22061  0.35780  0.77908  1.0000
  H   H1291     1.0  0.24415  0.40313  0.85328  1.0000
  C   C780      1.0  0.22687  0.47168  0.75378  1.0000
  C   C781      1.0  0.17856  0.48096  0.84336  1.0000
  C   C782      1.0  0.20946  0.40818  0.80970  1.0000
  H   H1292     1.0  0.09317  0.32300  0.81891  1.0000
  H   H1293     1.0  0.11068  0.44295  0.90329  1.0000
  C   C783      1.0  0.16079  0.49425  0.75796  1.0000
  Fe  Fe152     1.0  0.22536  0.48578  0.78577  1.0000
  S   S313      1.0  0.20759  0.47556  0.80291  1.0000
  C   C784      1.0  0.23564  0.34925  0.91488  1.0000
  H   H1294     1.0  0.24871  0.40298  0.82662  1.0000
  H   H1295     1.0  0.09370  0.43681  0.91320  1.0000
  H   H1296     1.0  0.07311  0.46129  0.89427  1.0000
  C   C785      1.0  0.24335  0.36964  0.84860  1.0000
  C   C786      1.0  0.21989  0.48674  0.75177  1.0000
  H   H1297     1.0  0.17682  0.43904  0.78796  1.0000
  H   H1298     1.0  0.19464  0.45936  0.75139  1.0000
  H   H1299     1.0  0.18130  0.45656  0.77768  1.0000
  H   H1300     1.0  0.24129  0.34846  0.81150  1.0000
  S   S314      1.0  0.29767  0.57532  0.97796  1.0000
  H   H1301     1.0  0.26235  0.38578  0.82936  1.0000
  H   H1302     1.0  0.23198  0.40869  0.80907  1.0000
  N   N82       1.0  0.09079  0.46036  0.90461  1.0000
  H   H1303     1.0  0.23952  0.38718  0.86717  1.0000
  H   H1304     1.0  0.21642  0.35668  0.75011  1.0000
  C   C787      1.0  0.17232  0.33787  0.86921  1.0000
  H   H1305     1.0  0.06849  0.47395  0.90619  1.0000
  H   H1306     1.0  0.18924  0.47409  0.83930  1.0000
  C   C788      1.0  0.16920  0.32145  0.85600  1.0000
  C   C789      1.0  0.29774  0.49447  0.95527  1.0000
  S   S315      1.0  0.18510  0.37496  0.78945  1.0000
  C   C790      1.0  0.09223  0.46323  0.91837  1.0000
  C   C791      1.0  0.17838  0.44649  0.77674  1.0000
  C   C792      1.0  0.20455  0.43460  0.77061  1.0000
  C   C793      1.0  0.15385  0.48342  0.85967  1.0000
  C   C794      1.0  0.25429  0.32301  0.92656  1.0000
  H   H1307     1.0  0.01063  0.51375  0.79910  1.0000
  H   H1308     1.0  0.21285  0.39758  0.80670  1.0000
  H   H1309     1.0  0.21369  0.42887  0.76270  1.0000
  H   H1310     1.0  0.01490  0.48250  0.79454  1.0000
  C   C795      1.0  0.09771  0.47069  0.89173  1.0000
  H   H1311     1.0  0.16738  0.45005  0.77343  1.0000
  N   N83       1.0  0.19012  0.43890  0.76595  1.0000
  C   C796      1.0  0.06252  0.52484  0.74198  1.0000
  C   C797      1.0  0.17947  0.32955  0.81464  1.0000
  S   S316      1.0  0.23012  0.43450  0.81885  1.0000
  H   H1312     1.0  0.26578  0.51440  0.94419  1.0000
  C   C798      1.0  0.11884  0.50505  0.72990  1.0000
  S   S317      1.0  0.18116  0.40790  0.80900  1.0000
  H   H1313     1.0  0.08656  0.47483  0.91944  1.0000
  C   C799      1.0  0.19166  0.44903  0.75122  1.0000
  H   H1314     1.0  0.31188  0.36830  0.91814  1.0000
  H   H1315     1.0  0.31503  0.32338  0.89659  1.0000
  H   H1316     1.0  0.09227  0.48241  0.89229  1.0000
  S   S318      1.0  0.22745  0.47206  0.82729  1.0000
  H   H1317     1.0  0.05651  0.58618  0.75344  1.0000
  H   H1318     1.0  0.18426  0.41777  0.77627  1.0000
  H   H1319     1.0  0.20063  0.44376  0.74287  1.0000
  H   H1320     1.0  0.18104  0.45230  0.74725  1.0000
  S   S319      1.0  0.19765  0.33260  0.81009  1.0000
  C   C800      1.0  0.19443  0.41562  0.81195  1.0000
  C   C801      1.0  0.18584  0.42551  0.76524  1.0000
  H   H1321     1.0  0.16124  0.32291  0.90783  1.0000
  H   H1322     1.0  0.16954  0.46255  0.85822  1.0000
  H   H1323     1.0  0.09753  0.44240  0.89336  1.0000
  C   C802      1.0  0.13543  0.48449  0.75892  1.0000
  H   H1324     1.0  0.17868  0.43523  0.81761  1.0000
  H   H1325     1.0  0.17512  0.42841  0.76151  1.0000
  H   H1326     1.0  0.25534  0.36417  0.84838  1.0000
  H   H1327     1.0  0.19455  0.41929  0.75742  1.0000
  H   H1328     1.0  0.25836  0.46146  0.97196  1.0000
  C   C803      1.0  0.22723  0.46359  0.74356  1.0000
  C   C804      1.0  0.20127  0.43560  0.81764  1.0000
  Fe  Fe153     1.0  0.22641  0.37239  0.79025  1.0000
  C   C805      1.0  0.14919  0.47908  0.75011  1.0000
  C   C806      1.0  0.21629  0.42795  0.81548  1.0000
  C   C807      1.0  0.22035  0.41439  0.81127  1.0000
  H   H1329     1.0  0.19807  0.44606  0.82102  1.0000
  S   S320      1.0  0.20988  0.34039  0.93096  1.0000
  Fe  Fe154     1.0  0.19418  0.38818  0.79932  1.0000
  Fe  Fe155     1.0  0.22677  0.45917  0.81154  1.0000
  C   C808      1.0  0.05929  0.58075  0.74394  1.0000
  H   H1330     1.0  0.09663  0.46906  0.88114  1.0000
  Fe  Fe156     1.0  0.20165  0.35553  0.79907  1.0000
  S   S321      1.0  0.20882  0.36841  0.81101  1.0000
  H   H1331     1.0  0.99956  0.33466  0.81362  1.0000
  Fe  Fe157     1.0  0.20453  0.37823  0.77032  1.0000
  S   S322      1.0  0.19979  0.38713  0.74762  1.0000
  C   C809      1.0  0.20035  0.37321  0.73892  1.0000
  C   C810      1.0  0.07474  0.46261  0.90477  1.0000
  C   C811      1.0  0.24790  0.55343  0.94059  1.0000
  H   H1332     1.0  0.17930  0.33280  0.74822  1.0000
  H   H1333     1.0  0.15926  0.33837  0.75104  1.0000
  S   S323      1.0  0.21222  0.39302  0.77934  1.0000
  C   C812      1.0  0.22937  0.33794  0.92519  1.0000
  C   C813      1.0  0.20940  0.35906  0.74230  1.0000
  H   H1334     1.0  0.04631  0.55587  0.73465  1.0000
  H   H1335     1.0  0.28804  0.55869  0.93571  1.0000
  H   H1336     1.0  0.22843  0.35944  0.91042  1.0000
  C   C814      1.0  0.15058  0.32382  0.82323  1.0000
  S   S324      1.0  0.23367  0.47682  0.95809  1.0000
  H   H1337     1.0  0.08705  0.45572  0.92835  1.0000
  Fe  Fe158     1.0  0.32659  0.46382  0.87830  1.0000
  C   C815      1.0  0.24585  0.39084  0.85571  1.0000
  H   H1338     1.0  0.17261  0.48196  0.90583  1.0000
  H   H1339     1.0  0.23686  0.36557  0.85986  1.0000
  S   S325      1.0  0.14061  0.47589  0.87438  1.0000
  H   H1340     1.0  0.06926  0.45466  0.91405  1.0000
  H   H1341     1.0  0.12259  0.51906  0.84002  1.0000
  H   H1342     1.0  0.26905  0.53541  0.88703  1.0000
  C   C816      1.0  0.25944  0.53275  0.88462  1.0000
  Fe  Fe159     1.0  0.01134  0.52519  0.76050  1.0000
  H   H1343     1.0  0.03240  0.58861  0.73644  1.0000
  S   S326      1.0  0.02864  0.50797  0.77118  1.0000
  H   H1344     1.0  0.04229  0.51959  0.74115  1.0000
  C   C817      1.0  0.25812  0.33670  0.97358  1.0000
  S   S327      1.0  0.17983  0.31981  0.95756  1.0000
  C   C818      1.0  0.15554  0.55421  0.97313  1.0000
  C   C819      1.0  0.16223  0.50525  0.84367  1.0000
  H   H1345     1.0  0.10061  0.51694  0.82291  1.0000
  H   H1346     1.0  0.16613  0.32500  0.78917  1.0000
  Fe  Fe160     1.0  0.00983  0.50189  0.86984  1.0000
  N   N84       1.0  0.18167  0.52358  0.78236  1.0000
  H   H1347     1.0  0.17260  0.52512  0.76379  1.0000
  H   H1348     1.0  0.01021  0.55684  0.84636  1.0000
  S   S328      1.0  0.08541  0.55891  0.76910  1.0000
  H   H1349     1.0  0.05895  0.58964  0.73369  1.0000
  C   C820      1.0  0.18369  0.51248  0.88219  1.0000
  Fe  Fe161     1.0  0.10859  0.56319  0.76171  1.0000
  S   S329      1.0  0.11250  0.58592  0.74989  1.0000
  Fe  Fe162     1.0  0.09383  0.50808  0.89786  1.0000
  S   S330      1.0  0.09959  0.52861  0.89946  1.0000
  S   S331      1.0  0.07032  0.50414  0.90631  1.0000
  C   C821      1.0  0.18186  0.34422  0.76966  1.0000
  S   S332      1.0  0.13448  0.51431  0.88449  1.0000
  Fe  Fe163     1.0  0.11985  0.51310  0.90724  1.0000
  S   S333      1.0  0.12867  0.51216  0.92703  1.0000
  Fe  Fe164     1.0  0.11365  0.52783  0.87659  1.0000
  S   S334      1.0  0.11449  0.54683  0.85678  1.0000
  H   H1350     1.0  0.19900  0.47573  0.89220  1.0000
  S   S335      1.0  0.10655  0.50838  0.87451  1.0000
  Fe  Fe165     1.0  0.20468  0.52505  0.93135  1.0000
  S   S336      1.0  0.20041  0.51247  0.95501  1.0000
  S   S337      1.0  0.18990  0.53196  0.91481  1.0000
  Fe  Fe166     1.0  0.23509  0.52864  0.93214  1.0000
  S   S338      1.0  0.23350  0.51654  0.95569  1.0000
  H   H1351     1.0  0.14173  0.48921  0.83298  1.0000
  Fe  Fe167     1.0  0.22451  0.50073  0.94930  1.0000
  C   C822      1.0  0.14630  0.54507  0.95719  1.0000
  S   S339      1.0  0.22806  0.51173  0.92526  1.0000
  S   S340      1.0  0.21207  0.54305  0.93631  1.0000
  H   H1352     1.0  0.14039  0.50221  0.80718  1.0000
  H   H1353     1.0  0.24963  0.53496  0.89384  1.0000
  H   H1354     1.0  0.04347  0.53433  0.86167  1.0000
  S   S341      1.0  0.22030  0.49758  0.76349  1.0000
  H   H1355     1.0  0.02654  0.52854  0.86367  1.0000
  N   N85       1.0  0.04895  0.57105  0.74589  1.0000
  C   C823      1.0  0.19492  0.52663  0.78508  1.0000
  H   H1356     1.0  0.24383  0.48634  0.83794  1.0000
  H   H1357     1.0  0.29729  0.48357  0.95370  1.0000
  H   H1358     1.0  0.12488  0.49442  0.80847  1.0000
  H   H1359     1.0  0.15634  0.32331  0.73292  1.0000
  H   H1360     1.0  0.10140  0.50844  0.84184  1.0000
  H   H1361     1.0  0.14445  0.34924  0.77262  1.0000
  N   N86       1.0  0.12249  0.50490  0.82627  1.0000
  H   H1362     1.0  0.18627  0.49367  0.86515  1.0000
  H   H1363     1.0  0.05141  0.55371  0.83970  1.0000
  H   H1364     1.0  0.19161  0.50059  0.78255  1.0000
  H   H1365     1.0  0.27218  0.52217  0.85978  1.0000
  N   N87       1.0  0.26361  0.32492  0.96507  1.0000
  Fe  Fe168     1.0  0.12597  0.49489  0.88431  1.0000
  C   C824      1.0  0.14547  0.51799  0.92379  1.0000
  C   C825      1.0  0.15438  0.51244  0.93436  1.0000
  C   C826      1.0  0.16805  0.51665  0.93181  1.0000
  C   C827      1.0  0.17268  0.52669  0.91879  1.0000
  C   C828      1.0  0.16360  0.53248  0.90840  1.0000
  C   C829      1.0  0.15012  0.52804  0.91080  1.0000
  H   H1366     1.0  0.15083  0.50461  0.94440  1.0000
  H   H1367     1.0  0.17508  0.51197  0.93978  1.0000
  H   H1368     1.0  0.16706  0.54038  0.89838  1.0000
  H   H1369     1.0  0.14322  0.53253  0.90269  1.0000
  C   C830      1.0  0.15111  0.49875  0.85410  1.0000
  H   H1370     1.0  0.16023  0.51720  0.83987  1.0000
  H   H1371     1.0  0.14046  0.50569  0.85794  1.0000
  H   H1372     1.0  0.25676  0.54068  0.87436  1.0000
  C   C831      1.0  0.32851  0.59658  0.97341  1.0000
  C   C832      1.0  0.08673  0.54624  0.82538  1.0000
  C   C833      1.0  0.09778  0.55456  0.82053  1.0000
  C   C834      1.0  0.10583  0.55523  0.83040  1.0000
  C   C835      1.0  0.10285  0.54758  0.84517  1.0000
  C   C836      1.0  0.09120  0.53995  0.85023  1.0000
  C   C837      1.0  0.08317  0.53926  0.84036  1.0000
  H   H1373     1.0  0.03660  0.52213  0.83863  1.0000
  H   H1374     1.0  0.11460  0.56143  0.82650  1.0000
  H   H1375     1.0  0.08834  0.53463  0.86177  1.0000
  H   H1376     1.0  0.07453  0.53293  0.84428  1.0000
  C   C838      1.0  0.17604  0.49641  0.83851  1.0000
  H   H1377     1.0  0.12189  0.52826  0.82124  1.0000
  C   C839      1.0  0.04185  0.53189  0.83522  1.0000
  S   S342      1.0  0.11279  0.49254  0.90763  1.0000
  N   N88       1.0  0.18350  0.49652  0.88717  1.0000
  C   C840      1.0  0.06741  0.50291  0.87901  1.0000
  C   C841      1.0  0.06033  0.50358  0.89368  1.0000
  S   S343      1.0  0.14503  0.51484  0.77450  1.0000
  H   H1378     1.0  0.19536  0.53855  0.78094  1.0000
  H   H1379     1.0  0.00152  0.49827  0.78767  1.0000
  H   H1380     1.0  0.12631  0.48123  0.83448  1.0000
  H   H1381     1.0  0.32496  0.34495  0.90920  1.0000
  C   C842      1.0  0.04555  0.51380  0.76342  1.0000
  C   C843      1.0  0.04937  0.51950  0.74819  1.0000
  C   C844      1.0  0.07161  0.52500  0.75104  1.0000
  C   C845      1.0  0.06778  0.51940  0.76630  1.0000
  C   C846      1.0  0.05484  0.51360  0.77247  1.0000
  H   H1382     1.0  0.19823  0.32051  0.84358  1.0000
  H   H1383     1.0  0.07474  0.51953  0.77336  1.0000
  H   H1384     1.0  0.05186  0.50929  0.78427  1.0000
  S   S344      1.0  0.22693  0.50069  0.79915  1.0000
  C   C847      1.0  0.12797  0.50384  0.81061  1.0000
  N   N89       1.0  0.28280  0.50461  0.95673  1.0000
  H   H1385     1.0  0.17808  0.47997  0.87965  1.0000
  S   S345      1.0  0.08717  0.53311  0.74312  1.0000
  C   C848      1.0  0.05955  0.50099  0.86960  1.0000
  N   N90       1.0  0.03281  0.54369  0.84314  1.0000
  H   H1386     1.0  0.03329  0.56586  0.84334  1.0000
  H   H1387     1.0  0.17063  0.49803  0.75750  1.0000
  S   S346      1.0  0.32896  0.44616  0.89874  1.0000
  H   H1388     1.0  0.14892  0.53737  0.94964  1.0000
  C   C849      1.0  0.17300  0.49390  0.90168  1.0000
  C   C850      1.0  0.13404  0.31985  0.73672  1.0000
  H   H1389     1.0  0.16498  0.33068  0.84721  1.0000
  H   H1390     1.0  0.02566  0.50026  0.89332  1.0000
  S   S347      1.0  0.13258  0.32019  0.82873  1.0000
  Fe  Fe169     1.0  0.20397  0.32097  0.94870  1.0000
  C   C851      1.0  0.17858  0.49191  0.87625  1.0000
  H   H1391     1.0  0.16136  0.50019  0.90105  1.0000
  H   H1392     1.0  0.27819  0.50332  0.86894  1.0000
  C   C852      1.0  0.10600  0.50695  0.83027  1.0000
  C   C853      1.0  0.03728  0.50103  0.88928  1.0000
  H   H1393     1.0  0.15552  0.36307  0.76672  1.0000
  H   H1394     1.0  0.17554  0.53925  0.94364  1.0000
  Fe  Fe170     1.0  0.31296  0.53597  0.96948  1.0000
  H   H1395     1.0  0.19267  0.52070  0.76031  1.0000
  S   S348      1.0  0.25651  0.53605  0.92027  1.0000
  H   H1396     1.0  0.19115  0.51493  0.87106  1.0000
  H   H1397     1.0  0.23670  0.55198  0.94205  1.0000
  H   H1398     1.0  0.20551  0.52011  0.77945  1.0000
  H   H1399     1.0  0.15769  0.53059  0.78805  1.0000
  H   H1400     1.0  0.17227  0.51939  0.88145  1.0000
  H   H1401     1.0  0.07896  0.50365  0.87492  1.0000
  C   C854      1.0  0.32114  0.37329  0.91036  1.0000
  H   H1402     1.0  0.14198  0.51514  0.73089  1.0000
  H   H1403     1.0  0.16719  0.49837  0.87489  1.0000
  C   C855      1.0  0.19873  0.48783  0.88851  1.0000
  C   C856      1.0  0.12671  0.51771  0.82837  1.0000
  Fe  Fe171     1.0  0.20977  0.52936  0.95962  1.0000
  H   H1404     1.0  0.12543  0.49160  0.84767  1.0000
  H   H1405     1.0  0.18774  0.51629  0.88997  1.0000
  N   N91       1.0  0.15934  0.54371  0.96333  1.0000
  H   H1406     1.0  0.06514  0.50029  0.85832  1.0000
  H   H1407     1.0  0.16765  0.54466  0.78579  1.0000
  Fe  Fe172     1.0  0.12308  0.53098  0.77289  1.0000
  H   H1408     1.0  0.24567  0.52126  0.87112  1.0000
  H   H1409     1.0  0.12343  0.49969  0.77303  1.0000
  H   H1410     1.0  0.01748  0.55236  0.82848  1.0000
  H   H1411     1.0  0.04085  0.56098  0.82560  1.0000
  H   H1412     1.0  0.18251  0.53929  0.76146  1.0000
  Fe  Fe173     1.0  0.09286  0.54488  0.78976  1.0000
  C   C857      1.0  0.18238  0.52737  0.76627  1.0000
  S   S349      1.0  0.19017  0.50510  0.82675  1.0000
  C   C858      1.0  0.27204  0.33072  0.95015  1.0000
  H   H1413     1.0  0.10011  0.56057  0.80919  1.0000
  Fe  Fe174     1.0  0.09599  0.53863  0.75969  1.0000
  H   H1414     1.0  0.19491  0.52367  0.79709  1.0000
  C   C859      1.0  0.16791  0.53259  0.78991  1.0000
  S   S350      1.0  0.07802  0.54359  0.81274  1.0000
  C   C860      1.0  0.18151  0.50768  0.78819  1.0000
  C   C861      1.0  0.04523  0.50268  0.89876  1.0000
  S   S351      1.0  0.03504  0.49741  0.86274  1.0000
  S   S352      1.0  0.11865  0.54395  0.75081  1.0000
  S   S353      1.0  0.11541  0.55076  0.78314  1.0000
  H   H1415     1.0  0.15927  0.31896  0.86479  1.0000
  C   C862      1.0  0.12927  0.49113  0.83576  1.0000
  C   C863      1.0  0.04451  0.49997  0.87474  1.0000
  H   H1416     1.0  0.01185  0.53850  0.84441  1.0000
  H   H1417     1.0  0.16713  0.52990  0.80208  1.0000
  H   H1418     1.0  0.17037  0.35210  0.74542  1.0000
  H   H1419     1.0  0.17160  0.50500  0.78643  1.0000
  C   C864      1.0  0.05337  0.56388  0.73317  1.0000
  H   H1420     1.0  0.18128  0.50432  0.80024  1.0000
  S   S354      1.0  0.32159  0.51415  0.96255  1.0000
  S   S355      1.0  0.10112  0.52401  0.78104  1.0000
  H   H1421     1.0  0.30592  0.49923  0.94562  1.0000
  C   C865      1.0  0.03208  0.53813  0.85919  1.0000
  H   H1422     1.0  0.04320  0.53589  0.82304  1.0000
  S   S356      1.0  0.00999  0.54826  0.76227  1.0000
  Fe  Fe175     1.0  0.21017  0.48954  0.81667  1.0000
  Fe  Fe176     1.0  0.00802  0.55443  0.73864  1.0000
  C   C866      1.0  0.14680  0.50039  0.76594  1.0000
  H   H1423     1.0  0.26481  0.34006  0.94378  1.0000
  H   H1424     1.0  0.11709  0.50924  0.74004  1.0000
  H   H1425     1.0  0.27291  0.52698  0.95946  1.0000
  H   H1426     1.0  0.17344  0.52698  0.97658  1.0000
  H   H1427     1.0  0.07106  0.57429  0.74307  1.0000
  C   C867      1.0  0.03348  0.58003  0.74679  1.0000
  C   C868      1.0  0.04973  0.55951  0.75966  1.0000
  H   H1428     1.0  0.20694  0.48958  0.87774  1.0000
  C   C869      1.0  0.28394  0.51895  0.95863  1.0000
  C   C870      1.0  0.01746  0.54806  0.84044  1.0000
  H   H1429     1.0  0.02556  0.54682  0.86549  1.0000
  C   C871      1.0  0.03986  0.55666  0.83773  1.0000
  H   H1430     1.0  0.03969  0.50315  0.91011  1.0000
  H   H1431     1.0  0.18200  0.54650  0.95540  1.0000
  C   C872      1.0  0.13418  0.49532  0.76660  1.0000
  H   H1432     1.0  0.16752  0.34779  0.86136  1.0000
  C   C873      1.0  0.22028  0.47047  0.73158  1.0000
  H   H1433     1.0  0.28552  0.51754  0.87129  1.0000
  H   H1434     1.0  0.12317  0.51413  0.80314  1.0000
  H   H1435     1.0  0.10240  0.49730  0.82925  1.0000
  S   S357      1.0  0.30595  0.47812  0.88954  1.0000
  H   H1436     1.0  0.13908  0.51650  0.82559  1.0000
  H   H1437     1.0  0.20276  0.49105  0.89671  1.0000
  C   C874      1.0  0.27834  0.46200  0.95456  1.0000
  H   H1438     1.0  0.25958  0.44351  0.81409  1.0000
  S   S358      1.0  0.31391  0.45267  0.86990  1.0000
  Fe  Fe177     1.0  0.29043  0.37011  0.86305  1.0000
  S   S359      1.0  0.30460  0.35699  0.84613  1.0000
  S   S360      1.0  0.28330  0.39493  0.85845  1.0000
  Fe  Fe178     1.0  0.28677  0.34297  0.88762  1.0000
  S   S361      1.0  0.29993  0.32769  0.87269  1.0000
  S   S362      1.0  0.28001  0.33230  0.91150  1.0000
  Fe  Fe179     1.0  0.31578  0.34301  0.86480  1.0000
  Fe  Fe180     1.0  0.28735  0.34294  0.85588  1.0000
  S   S363      1.0  0.27576  0.33307  0.84486  1.0000
  S   S364      1.0  0.30315  0.35752  0.88075  1.0000
  S   S365      1.0  0.27256  0.35696  0.87168  1.0000
  H   H1439     1.0  0.29045  0.42943  0.84255  1.0000
  H   H1440     1.0  0.27110  0.41409  0.83338  1.0000
  Fe  Fe181     1.0  0.31503  0.43585  0.89117  1.0000
  C   C875      1.0  0.27937  0.41996  0.82491  1.0000
  H   H1441     1.0  0.25607  0.35637  0.90277  1.0000
  H   H1442     1.0  0.09777  0.57473  0.73409  1.0000
  C   C876      1.0  0.25875  0.47694  0.93560  1.0000
  N   N92       1.0  0.27693  0.43537  0.82641  1.0000
  H   H1443     1.0  0.04232  0.55178  0.76130  1.0000
  C   C877      1.0  0.27894  0.43532  0.84106  1.0000
  H   H1444     1.0  0.27763  0.50900  0.89832  1.0000
  H   H1445     1.0  0.19223  0.33650  0.76526  1.0000
  C   C878      1.0  0.26155  0.44333  0.82497  1.0000
  C   C879      1.0  0.25691  0.36271  0.80527  1.0000
  H   H1446     1.0  0.99656  0.32192  0.84013  1.0000
  Fe  Fe182     1.0  0.30723  0.45924  0.90930  1.0000
  H   H1447     1.0  0.27095  0.42959  0.85012  1.0000
  H   H1448     1.0  0.21793  0.38939  0.85612  1.0000
  C   C880      1.0  0.26280  0.46493  0.96023  1.0000
  C   C881      1.0  0.25687  0.34142  0.82591  1.0000
  C   C882      1.0  0.25020  0.39069  0.82991  1.0000
  H   H1449     1.0  0.14284  0.55650  0.95067  1.0000
  C   C883      1.0  0.09753  0.58633  0.72906  1.0000
  S   S366      1.0  0.30343  0.46255  0.93228  1.0000
  C   C884      1.0  0.26925  0.36543  0.80847  1.0000
  C   C885      1.0  0.27513  0.35641  0.82064  1.0000
  H   H1450     1.0  0.27703  0.44679  0.84263  1.0000
  H   H1451     1.0  0.27415  0.37465  0.80163  1.0000
  H   H1452     1.0  0.28456  0.35862  0.82317  1.0000
  H   H1453     1.0  0.22304  0.40508  0.84219  1.0000
  H   H1454     1.0  0.25936  0.45501  0.82596  1.0000
  C   C886      1.0  0.31278  0.40820  0.88005  1.0000
  C   C887      1.0  0.29809  0.41635  0.88011  1.0000
  C   C888      1.0  0.28907  0.41253  0.87315  1.0000
  C   C889      1.0  0.29483  0.40069  0.86598  1.0000
  C   C890      1.0  0.30969  0.39294  0.86543  1.0000
  C   C891      1.0  0.31868  0.39672  0.87244  1.0000
  H   H1455     1.0  0.29348  0.42524  0.88599  1.0000
  H   H1456     1.0  0.27749  0.41836  0.87388  1.0000
  H   H1457     1.0  0.31424  0.38397  0.85966  1.0000
  C   C892      1.0  0.25475  0.48321  0.84056  1.0000
  C   C893      1.0  0.28404  0.46617  0.93936  1.0000
  S   S367      1.0  0.26795  0.57467  0.95750  1.0000
  H   H1458     1.0  0.16932  0.55849  0.94419  1.0000
  S   S368      1.0  0.29332  0.44705  0.90385  1.0000
  C   C894      1.0  0.26493  0.56399  0.94702  1.0000
  H   H1459     1.0  0.02541  0.57301  0.74838  1.0000
  H   H1460     1.0  0.28453  0.51241  0.93325  1.0000
  C   C895      1.0  0.27715  0.50708  0.94328  1.0000
  H   H1461     1.0  0.21617  0.33689  0.73836  1.0000
  H   H1462     1.0  0.29197  0.52416  0.94915  1.0000
  C   C896      1.0  0.25076  0.31996  0.96380  1.0000
  S   S369      1.0  0.26641  0.48340  0.81104  1.0000
  H   H1463     1.0  0.24699  0.38710  0.82143  1.0000
  C   C897      1.0  0.25125  0.34747  0.91047  1.0000
  S   S370      1.0  0.27106  0.47537  0.87705  1.0000
  C   C898      1.0  0.26897  0.34434  0.82933  1.0000
  Fe  Fe183     1.0  0.32044  0.56565  0.96561  1.0000
  C   C899      1.0  0.28781  0.44293  0.81470  1.0000
  C   C900      1.0  0.27006  0.47747  0.85866  1.0000
  C   C901      1.0  0.28299  0.47579  0.84745  1.0000
  H   H1464     1.0  0.25300  0.43801  0.83368  1.0000
  H   H1465     1.0  0.27824  0.41960  0.81385  1.0000
  C   C902      1.0  0.26055  0.33437  0.91636  1.0000
  H   H1466     1.0  0.28641  0.45452  0.81568  1.0000
  H   H1467     1.0  0.29071  0.41343  0.82645  1.0000
  H   H1468     1.0  0.22524  0.40285  0.73091  1.0000
  H   H1469     1.0  0.26760  0.34057  0.97485  1.0000
  H   H1470     1.0  0.28588  0.45621  0.96191  1.0000
  H   H1471     1.0  0.27863  0.47661  0.91809  1.0000
  H   H1472     1.0  0.29181  0.47667  0.82412  1.0000
  C   C903      1.0  0.22511  0.39273  0.84504  1.0000
  H   H1473     1.0  0.29955  0.43707  0.81530  1.0000
  C   C904      1.0  0.16700  0.32564  0.77727  1.0000
  C   C905      1.0  0.27425  0.47349  0.92985  1.0000
  Fe  Fe184     1.0  0.29342  0.46503  0.88317  1.0000
  C   C906      1.0  0.16352  0.52840  0.97191  1.0000
  C   C907      1.0  0.25070  0.35071  0.81402  1.0000
  H   H1474     1.0  0.22122  0.38933  0.83687  1.0000
  C   C908      1.0  0.28178  0.47788  0.83279  1.0000
  H   H1475     1.0  0.00130  0.48619  0.83381  1.0000
  H   H1476     1.0  0.25120  0.48260  0.92825  1.0000
  C   C909      1.0  0.27686  0.55717  0.93714  1.0000
  H   H1477     1.0  0.28341  0.54382  0.92081  1.0000
  C   C910      1.0  0.26766  0.48146  0.82934  1.0000
  H   H1478     1.0  0.28631  0.44358  0.80349  1.0000
  H   H1479     1.0  0.29391  0.47306  0.85002  1.0000
  S   S371      1.0  0.24914  0.37473  0.79059  1.0000
  H   H1480     1.0  0.25213  0.33205  0.83259  1.0000
  H   H1481     1.0  0.02373  0.49742  0.80556  1.0000
  C   C911      1.0  0.25301  0.47253  0.95078  1.0000
  H   H1482     1.0  0.23989  0.36560  0.84059  1.0000
  S   S372      1.0  0.24446  0.46799  0.79298  1.0000
  Fe  Fe185     1.0  0.24417  0.48189  0.80830  1.0000
  H   H1483     1.0  0.15249  0.56589  0.96701  1.0000
  H   H1484     1.0  0.18013  0.34111  0.87380  1.0000
  C   C912      1.0  0.24929  0.51392  0.88123  1.0000
  H   H1485     1.0  0.24592  0.48271  0.86378  1.0000
  C   C913      1.0  0.25595  0.48129  0.85516  1.0000
  S   S373      1.0  0.31156  0.55658  0.95154  1.0000
  C   C914      1.0  0.27521  0.51500  0.87023  1.0000
  H   H1486     1.0  0.23975  0.51543  0.89086  1.0000
  H   H1487     1.0  0.26936  0.49527  0.89617  1.0000
  N   N93       1.0  0.26281  0.51719  0.88319  1.0000
  H   H1488     1.0  0.25136  0.50228  0.88014  1.0000
  C   C915      1.0  0.26725  0.50712  0.89669  1.0000
  C   C916      1.0  0.27422  0.54883  0.92866  1.0000
  C   C917      1.0  0.25973  0.54694  0.93042  1.0000
  C   C918      1.0  0.25044  0.56217  0.94868  1.0000
  C   C919      1.0  0.01205  0.50391  0.80839  1.0000
  H   H1489     1.0  0.28803  0.51750  0.96878  1.0000
  C   C920      1.0  0.27231  0.49796  0.96972  1.0000
  C   C921      1.0  0.20933  0.34790  0.73558  1.0000
  H   H1490     1.0  0.23302  0.45205  0.74485  1.0000
  H   H1491     1.0  0.16291  0.33492  0.87856  1.0000
  H   H1492     1.0  0.28171  0.33476  0.95067  1.0000
  C   C922      1.0  0.19240  0.32962  0.84957  1.0000
  H   H1493     1.0  0.06521  0.55760  0.73174  1.0000
  H   H1494     1.0  0.01091  0.50805  0.81840  1.0000
  H   H1495     1.0  0.26094  0.50538  0.97117  1.0000
  C   C923      1.0  0.00327  0.48910  0.79745  1.0000
  H   H1496     1.0  0.01420  0.47495  0.82166  1.0000
  C   C924      1.0  0.19147  0.37627  0.72862  1.0000
  H   H1497     1.0  0.31775  0.37810  0.89959  1.0000
  H   H1498     1.0  0.15387  0.35184  0.78515  1.0000
  C   C925      1.0  0.16933  0.34098  0.75257  1.0000
  C   C926      1.0  0.10415  0.59431  0.73458  1.0000
  C   C927      1.0  0.23870  0.32481  0.93102  1.0000
  H   H1499     1.0  0.15691  0.32253  0.77638  1.0000
  C   C928      1.0  0.21281  0.49354  0.73990  1.0000
  H   H1500     1.0  0.20747  0.50520  0.73827  1.0000
  S   S374      1.0  0.99593  0.52048  0.88082  1.0000
  N   N94       1.0  0.18001  0.32534  0.86188  1.0000
  S   S375      1.0  0.01136  0.53115  0.73630  1.0000
  H   H1501     1.0  0.18826  0.33944  0.84121  1.0000
  H   H1502     1.0  0.13217  0.31980  0.95826  1.0000
  H   H1503     1.0  0.31575  0.31855  0.91574  1.0000
  H   H1504     1.0  0.16641  0.52015  0.96490  1.0000
  C   C929      1.0  0.00284  0.48230  0.82355  1.0000
  H   H1505     1.0  0.12365  0.49289  0.73248  1.0000
  C   C930      1.0  0.21286  0.48538  0.72992  1.0000
  H   H1506     1.0  0.16052  0.68595  0.42366  1.0000
  C   C931      1.0  0.22237  0.97636  0.46976  1.0000
  C   C932      1.0  0.31995  0.79751  0.40935  1.0000
  H   H1507     1.0  0.01888  0.71521  0.35803  1.0000
  C   C933      1.0  0.31611  0.82336  0.46891  1.0000
  H   H1508     1.0  0.14107  0.68222  0.41292  1.0000
  C   C934      1.0  0.06867  0.66710  0.36993  1.0000
  S   S376      1.0  0.23283  0.66788  0.45920  1.0000
  H   H1509     1.0  0.10753  0.71081  0.37498  1.0000
  Fe  Fe186     1.0  0.32713  0.96417  0.40976  1.0000
  C   C935      1.0  0.16239  0.71159  0.44966  1.0000
  C   C936      1.0  0.15630  0.71631  0.43706  1.0000
  H   H1510     1.0  0.15544  0.71368  0.46018  1.0000
  H   H1511     1.0  0.13680  0.69782  0.36055  1.0000
  H   H1512     1.0  0.07365  0.71238  0.41470  1.0000
  S   S377      1.0  0.07652  0.67015  0.38277  1.0000
  S   S378      1.0  0.13751  0.72586  0.43842  1.0000
  H   H1513     1.0  0.04205  0.72541  0.32037  1.0000
  S   S379      1.0  0.21324  0.69936  0.46928  1.0000
  S   S380      1.0  0.27597  0.75708  0.47583  1.0000
  C   C937      1.0  0.10162  0.69898  0.40393  1.0000
  H   H1514     1.0  0.17090  0.65731  0.45654  1.0000
  C   C938      1.0  0.13842  0.67955  0.37944  1.0000
  Fe  Fe187     1.0  0.21151  0.68456  0.45578  1.0000
  C   C939      1.0  0.13819  0.70493  0.37930  1.0000
  C   C940      1.0  0.13962  0.67510  0.39423  1.0000
  H   H1515     1.0  0.18729  0.67413  0.41816  1.0000
  H   H1516     1.0  0.09085  0.72512  0.37471  1.0000
  C   C941      1.0  0.09862  0.71791  0.38183  1.0000
  H   H1517     1.0  0.10414  0.72521  0.38466  1.0000
  H   H1518     1.0  0.99829  0.71936  0.44395  1.0000
  H   H1519     1.0  0.31384  0.83317  0.45979  1.0000
  C   C942      1.0  0.14043  0.68554  0.40144  1.0000
  C   C943      1.0  0.16534  0.71356  0.42353  1.0000
  H   H1520     1.0  0.03457  0.67017  0.36349  1.0000
  H   H1521     1.0  0.27613  0.98386  0.39024  1.0000
  H   H1522     1.0  0.14007  0.70849  0.39971  1.0000
  C   C944      1.0  0.13968  0.70044  0.39401  1.0000
  C   C945      1.0  0.08314  0.69989  0.39081  1.0000
  H   H1523     1.0  0.23033  0.85345  0.45202  1.0000
  H   H1524     1.0  0.07732  0.69264  0.40058  1.0000
  C   C946      1.0  0.03397  0.72019  0.32977  1.0000
  C   C947      1.0  0.17753  0.70441  0.44866  1.0000
  H   H1525     1.0  0.18220  0.70108  0.45839  1.0000
  H   H1526     1.0  0.09134  0.69248  0.38377  1.0000
  H   H1527     1.0  0.08983  0.65796  0.35678  1.0000
  H   H1528     1.0  0.16143  0.68305  0.44262  1.0000
  H   H1529     1.0  0.10794  0.70536  0.40702  1.0000
  S   S381      1.0  0.13945  0.65675  0.40408  1.0000
  H   H1530     1.0  0.07468  0.70696  0.38436  1.0000
  C   C948      1.0  0.18047  0.70642  0.42250  1.0000
  H   H1531     1.0  0.18240  0.74687  0.40471  1.0000
  C   C949      1.0  0.07775  0.66066  0.35823  1.0000
  C   C950      1.0  0.04411  0.72525  0.34770  1.0000
  C   C951      1.0  0.18659  0.70186  0.43506  1.0000
  H   H1532     1.0  0.04877  0.72069  0.35784  1.0000
  C   C952      1.0  0.23196  0.97929  0.45594  1.0000
  H   H1533     1.0  0.03082  0.71171  0.32609  1.0000
  H   H1534     1.0  0.09606  0.69219  0.41428  1.0000
  H   H1535     1.0  0.24817  0.70646  0.45117  1.0000
  H   H1536     1.0  0.30552  0.82313  0.47750  1.0000
  H   H1537     1.0  0.18742  0.70436  0.41198  1.0000
  H   H1538     1.0  0.08483  0.72616  0.40733  1.0000
  C   C953      1.0  0.05310  0.67070  0.37171  1.0000
  H   H1539     1.0  0.13813  0.67152  0.37370  1.0000
  H   H1540     1.0  0.04610  0.67574  0.38075  1.0000
  C   C954      1.0  0.13781  0.69442  0.37197  1.0000
  C   C955      1.0  0.07951  0.71880  0.40428  1.0000
  Fe  Fe188     1.0  0.32707  0.85191  0.42108  1.0000
  H   H1541     1.0  0.32029  0.79273  0.42120  1.0000
  S   S382      1.0  0.20550  0.69288  0.43358  1.0000
  C   C956      1.0  0.04656  0.66737  0.36209  1.0000
  N   N95       1.0  0.09071  0.70891  0.39523  1.0000
  S   S383      1.0  0.13563  0.72375  0.37027  1.0000
  S   S384      1.0  0.24730  0.97691  0.40405  1.0000
  H   H1542     1.0  0.32669  0.93010  0.39881  1.0000
  H   H1543     1.0  0.16062  0.71655  0.41390  1.0000
  H   H1544     1.0  0.07084  0.72611  0.39820  1.0000
  H   H1545     1.0  0.10993  0.69111  0.39752  1.0000
  S   S385      1.0  0.00951  0.73275  0.38286  1.0000
  C   C957      1.0  0.02923  0.70675  0.35514  1.0000
  H   H1546     1.0  0.15745  0.74607  0.42054  1.0000
  H   H1547     1.0  0.17745  0.76669  0.40011  1.0000
  H   H1548     1.0  0.19080  0.74453  0.43434  1.0000
  H   H1549     1.0  0.31753  0.80976  0.40763  1.0000
  C   C958      1.0  0.22665  0.81659  0.46095  1.0000
  H   H1550     1.0  0.22537  0.89173  0.41332  1.0000
  C   C959      1.0  0.02855  0.80073  0.35274  1.0000
  Fe  Fe189     1.0  0.10619  0.75915  0.40237  1.0000
  S   S386      1.0  0.12142  0.76331  0.37989  1.0000
  S   S387      1.0  0.08104  0.76738  0.40712  1.0000
  H   H1551     1.0  0.03421  0.80782  0.34270  1.0000
  Fe  Fe190     1.0  0.13742  0.76577  0.39200  1.0000
  S   S388      1.0  0.15415  0.78062  0.38332  1.0000
  C   C960      1.0  0.25481  0.77126  0.41674  1.0000
  S   S389      1.0  0.12134  0.76364  0.41410  1.0000
  Fe  Fe191     1.0  0.19877  0.82207  0.44155  1.0000
  S   S390      1.0  0.17697  0.87726  0.43375  1.0000
  H   H1552     1.0  0.02959  0.78989  0.35007  1.0000
  C   C961      1.0  0.13260  0.85391  0.43528  1.0000
  S   S391      1.0  0.17592  0.83626  0.44097  1.0000
  H   H1553     1.0  0.15215  0.76588  0.41604  1.0000
  H   H1554     1.0  0.01489  0.79412  0.38120  1.0000
  S   S392      1.0  0.04676  0.74700  0.37139  1.0000
  H   H1555     1.0  0.14987  0.86423  0.44608  1.0000
  S   S393      1.0  0.21013  0.84117  0.43113  1.0000
  H   H1556     1.0  0.13028  0.85021  0.42633  1.0000
  H   H1557     1.0  0.32583  0.89936  0.43998  1.0000
  H   H1558     1.0  0.12246  0.85426  0.44443  1.0000
  C   C962      1.0  0.03324  0.81327  0.36891  1.0000
  C   C963      1.0  0.12448  0.87982  0.42430  1.0000
  Fe  Fe192     1.0  0.21175  0.95913  0.45142  1.0000
  H   H1559     1.0  0.20758  0.87578  0.41714  1.0000
  Fe  Fe193     1.0  0.21512  0.93951  0.43023  1.0000
  S   S394      1.0  0.21286  0.95911  0.41114  1.0000
  S   S395      1.0  0.22336  0.91684  0.42464  1.0000
  H   H1560     1.0  0.26391  0.76174  0.42004  1.0000
  Fe  Fe194     1.0  0.19424  0.97009  0.42736  1.0000
  S   S396      1.0  0.19513  0.94987  0.44603  1.0000
  S   S397      1.0  0.01020  0.76482  0.35924  1.0000
  H   H1561     1.0  0.11420  0.88097  0.43326  1.0000
  H   H1562     1.0  0.15975  0.85877  0.42125  1.0000
  H   H1563     1.0  0.18047  0.73358  0.43061  1.0000
  S   S398      1.0  0.23176  0.94676  0.43763  1.0000
  H   H1564     1.0  0.27028  0.85574  0.44480  1.0000
  H   H1565     1.0  0.13063  0.87349  0.45131  1.0000
  S   S399      1.0  0.20944  0.97992  0.43375  1.0000
  C   C964      1.0  0.14392  0.80842  0.41136  1.0000
  N   N96       1.0  0.13693  0.86842  0.42974  1.0000
  H   H1566     1.0  0.23341  0.77366  0.45102  1.0000
  H   H1567     1.0  0.03896  0.82079  0.35934  1.0000
  H   H1568     1.0  0.26006  0.77897  0.40699  1.0000
  H   H1569     1.0  0.14821  0.86413  0.40815  1.0000
  H   H1570     1.0  0.17231  0.74324  0.44532  1.0000
  Fe  Fe195     1.0  0.18749  0.85481  0.42829  1.0000
  N   N97       1.0  0.17282  0.75705  0.42344  1.0000
  C   C965      1.0  0.18962  0.88869  0.43061  1.0000
  C   C966      1.0  0.20415  0.88528  0.42216  1.0000
  C   C967      1.0  0.21424  0.89429  0.42005  1.0000
  C   C968      1.0  0.20992  0.90666  0.42647  1.0000
  C   C969      1.0  0.19529  0.91026  0.43467  1.0000
  C   C970      1.0  0.18514  0.90130  0.43670  1.0000
  Fe  Fe196     1.0  0.13156  0.73926  0.41684  1.0000
  H   H1571     1.0  0.19186  0.91980  0.43963  1.0000
  H   H1572     1.0  0.17389  0.90403  0.44319  1.0000
  C   C971      1.0  0.07160  0.76169  0.39716  1.0000
  C   C972      1.0  0.05630  0.76172  0.40250  1.0000
  C   C973      1.0  0.04857  0.75710  0.39476  1.0000
  C   C974      1.0  0.05604  0.75280  0.38143  1.0000
  C   C975      1.0  0.07126  0.75303  0.37595  1.0000
  C   C976      1.0  0.07909  0.75726  0.38389  1.0000
  H   H1573     1.0  0.14394  0.88339  0.43799  1.0000
  H   H1574     1.0  0.03688  0.75678  0.39917  1.0000
  H   H1575     1.0  0.07705  0.74993  0.36552  1.0000
  H   H1576     1.0  0.09086  0.75732  0.37963  1.0000
  C   C977      1.0  0.15497  0.79333  0.39301  1.0000
  C   C978      1.0  0.14296  0.79806  0.40407  1.0000
  H   H1577     1.0  0.05284  0.78058  0.35944  1.0000
  C   C979      1.0  0.16920  0.80880  0.39715  1.0000
  C   C980      1.0  0.16808  0.79874  0.38958  1.0000
  H   H1578     1.0  0.13279  0.79402  0.40674  1.0000
  H   H1579     1.0  0.17929  0.81302  0.39432  1.0000
  H   H1580     1.0  0.17739  0.79518  0.38097  1.0000
  Fe  Fe197     1.0  0.02153  0.75124  0.37761  1.0000
  H   H1581     1.0  0.02117  0.81886  0.37160  1.0000
  C   C981      1.0  0.18206  0.75702  0.40832  1.0000
  C   C982      1.0  0.15703  0.81383  0.40792  1.0000
  Fe  Fe198     1.0  0.17922  0.83100  0.41889  1.0000
  H   H1582     1.0  0.26628  0.87090  0.42056  1.0000
  N   N98       1.0  0.32159  0.80949  0.46344  1.0000
  H   H1583     1.0  0.15418  0.87798  0.41319  1.0000
  H   H1584     1.0  0.13444  0.81232  0.41965  1.0000
  H   H1585     1.0  0.01636  0.80605  0.35495  1.0000
  S   S400      1.0  0.15747  0.82735  0.41683  1.0000
  S   S401      1.0  0.18965  0.85047  0.40606  1.0000
  H   H1586     1.0  0.24828  0.87492  0.41606  1.0000
  H   H1587     1.0  0.12164  0.87697  0.41515  1.0000
  C   C983      1.0  0.14042  0.87258  0.44183  1.0000
  S   S402      1.0  0.20128  0.81510  0.42054  1.0000
  C   C984      1.0  0.05113  0.79148  0.36229  1.0000
  H   H1588     1.0  0.12749  0.89087  0.41998  1.0000
  H   H1589     1.0  0.14177  0.84508  0.43952  1.0000
  C   C985      1.0  0.15029  0.86736  0.41749  1.0000
  N   N99       1.0  0.03504  0.79869  0.36560  1.0000
  S   S403      1.0  0.26828  0.80141  0.46864  1.0000
  H   H1590     1.0  0.05625  0.78928  0.37199  1.0000
  H   H1591     1.0  0.31018  0.79475  0.40738  1.0000
  H   H1592     1.0  0.05758  0.79846  0.35281  1.0000
  C   C986      1.0  0.17939  0.74407  0.43391  1.0000
  S   S404      1.0  0.14862  0.74161  0.39551  1.0000
  H   H1593     1.0  0.24715  0.76685  0.41311  1.0000
  Fe  Fe199     1.0  0.13116  0.73886  0.38575  1.0000
  C   C987      1.0  0.24092  0.81594  0.46275  1.0000
  C   C988      1.0  0.02715  0.78921  0.37853  1.0000
  H   H1594     1.0  0.19378  0.75749  0.40758  1.0000
  H   H1595     1.0  0.03403  0.73415  0.35025  1.0000
  Fe  Fe200     1.0  0.22827  0.96698  0.41958  1.0000
  H   H1596     1.0  0.03155  0.78755  0.38855  1.0000
  C   C989      1.0  0.17232  0.77083  0.42768  1.0000
  C   C990      1.0  0.22106  0.80371  0.46503  1.0000
  H   H1597     1.0  0.25374  0.88128  0.44307  1.0000
  Fe  Fe201     1.0  0.21149  0.83503  0.41003  1.0000
  H   H1598     1.0  0.02364  0.72895  0.33194  1.0000
  S   S405      1.0  0.11487  0.73454  0.40740  1.0000
  H   H1599     1.0  0.23877  0.82127  0.42338  1.0000
  H   H1600     1.0  0.24865  0.75877  0.44606  1.0000
  C   C991      1.0  0.15745  0.75624  0.42381  1.0000
  H   H1601     1.0  0.02854  0.77808  0.37639  1.0000
  H   H1602     1.0  0.16544  0.77116  0.43904  1.0000
  H   H1603     1.0  0.03806  0.81208  0.37856  1.0000
  H   H1604     1.0  0.15010  0.75600  0.43506  1.0000
  H   H1605     1.0  0.05049  0.76509  0.41279  1.0000
  S   S406      1.0  0.23368  0.83426  0.39373  1.0000
  C   C992      1.0  0.24416  0.87622  0.44434  1.0000
  H   H1606     1.0  0.16727  0.78081  0.42006  1.0000
  H   H1607     1.0  0.23870  0.87381  0.45630  1.0000
  H   H1608     1.0  0.18372  0.77196  0.42734  1.0000
  C   C993      1.0  0.26969  0.70702  0.47374  1.0000
  H   H1609     1.0  0.23220  0.76340  0.43866  1.0000
  H   H1610     1.0  0.23585  0.88481  0.43858  1.0000
  C   C994      1.0  0.23996  0.76818  0.44175  1.0000
  H   H1611     1.0  0.24555  0.94603  0.40653  1.0000
  C   C995      1.0  0.15944  0.67791  0.43453  1.0000
  H   H1612     1.0  0.28309  0.72310  0.46963  1.0000
  C   C996      1.0  0.26166  0.72256  0.44698  1.0000
  S   S407      1.0  0.00532  0.76326  0.39451  1.0000
  H   H1613     1.0  0.25869  0.72843  0.43652  1.0000
  H   H1614     1.0  0.05158  0.69300  0.33629  1.0000
  C   C997      1.0  0.25988  0.70223  0.46856  1.0000
  C   C998      1.0  0.27541  0.71958  0.46563  1.0000
  Fe  Fe202     1.0  0.99686  0.74727  0.36579  1.0000
  N   N100      1.0  0.17010  0.66357  0.43351  1.0000
  C   C999      1.0  0.27158  0.72723  0.45212  1.0000
  C   C1000     1.0  0.25568  0.71014  0.45526  1.0000
  S   S408      1.0  0.31114  0.74146  0.46244  1.0000
  H   H1615     1.0  0.25967  0.85658  0.41743  1.0000
  C   C1001     1.0  0.25614  0.86646  0.42240  1.0000
  Fe  Fe203     1.0  0.30480  0.84144  0.41128  1.0000
  S   S409      1.0  0.30300  0.86112  0.42023  1.0000
  S   S410      1.0  0.28853  0.82658  0.42218  1.0000
  Fe  Fe204     1.0  0.31211  0.87142  0.39667  1.0000
  S   S411      1.0  0.30303  0.89576  0.38944  1.0000
  C   C1002     1.0  0.26355  0.97338  0.41091  1.0000
  S   S412      1.0  0.31172  0.85251  0.38742  1.0000
  H   H1616     1.0  0.25519  0.84859  0.45833  1.0000
  H   H1617     1.0  0.26618  0.77509  0.43785  1.0000
  C   C1003     1.0  0.26796  0.92715  0.38063  1.0000
  C   C1004     1.0  0.26004  0.85159  0.44627  1.0000
  H   H1618     1.0  0.02588  0.69807  0.35196  1.0000
  H   H1619     1.0  0.16845  0.66471  0.41137  1.0000
  H   H1620     1.0  0.28639  0.93628  0.39037  1.0000
  C   C1005     1.0  0.29009  0.96685  0.42116  1.0000
  C   C1006     1.0  0.24379  0.78964  0.47329  1.0000
  H   H1621     1.0  0.18836  0.67016  0.43716  1.0000
  C   C1007     1.0  0.31782  0.90442  0.38662  1.0000
  C   C1008     1.0  0.31597  0.91566  0.39396  1.0000
  H   H1622     1.0  0.30536  0.91914  0.40119  1.0000
  C   C1009     1.0  0.27369  0.82845  0.41387  1.0000
  C   C1010     1.0  0.27410  0.83546  0.39901  1.0000
  C   C1011     1.0  0.26184  0.83707  0.39284  1.0000
  C   C1012     1.0  0.24898  0.83207  0.40161  1.0000
  C   C1013     1.0  0.26099  0.82317  0.42253  1.0000
  H   H1623     1.0  0.28387  0.83955  0.39223  1.0000
  H   H1624     1.0  0.26223  0.84236  0.38130  1.0000
  H   H1625     1.0  0.26068  0.81769  0.43402  1.0000
  H   H1626     1.0  0.03368  0.70151  0.36534  1.0000
  H   H1627     1.0  0.23928  0.84622  0.43569  1.0000
  H   H1628     1.0  0.27706  0.91320  0.40601  1.0000
  C   C1014     1.0  0.24862  0.94159  0.39637  1.0000
  C   C1015     1.0  0.05560  0.66081  0.35046  1.0000
  C   C1016     1.0  0.24971  0.80237  0.46843  1.0000
  H   H1629     1.0  0.30830  0.81729  0.44688  1.0000
  C   C1017     1.0  0.27639  0.97790  0.40152  1.0000
  H   H1630     1.0  0.22876  0.79743  0.43316  1.0000
  N   N101      1.0  0.26415  0.93275  0.39430  1.0000
  H   H1631     1.0  0.25162  0.79059  0.44244  1.0000
  C   C1018     1.0  0.05405  0.70208  0.33967  1.0000
  H   H1632     1.0  0.21991  0.82708  0.45661  1.0000
  Fe  Fe205     1.0  0.28272  0.77893  0.46666  1.0000
  H   H1633     1.0  0.05924  0.69692  0.34944  1.0000
  N   N102      1.0  0.04036  0.71356  0.34306  1.0000
  H   H1634     1.0  0.32397  0.79750  0.38071  1.0000
  H   H1635     1.0  0.07818  0.65300  0.33914  1.0000
  C   C1019     1.0  0.07119  0.65778  0.34832  1.0000
  C   C1020     1.0  0.28964  0.97462  0.40661  1.0000
  S   S413      1.0  0.20417  0.80392  0.46101  1.0000
  H   H1636     1.0  0.26375  0.84113  0.44216  1.0000
  H   H1637     1.0  0.27284  0.95254  0.38446  1.0000
  H   H1638     1.0  0.31420  0.79753  0.45203  1.0000
  H   H1639     1.0  0.23358  0.97260  0.44813  1.0000
  S   S414      1.0  0.30649  0.96278  0.42788  1.0000
  H   H1640     1.0  0.26245  0.92396  0.41764  1.0000
  H   H1641     1.0  0.22750  0.86445  0.43426  1.0000
  H   H1642     1.0  0.24041  0.93484  0.39751  1.0000
  H   H1643     1.0  0.32673  0.90003  0.42097  1.0000
  H   H1644     1.0  0.26315  0.79199  0.42413  1.0000
  C   C1021     1.0  0.23598  0.85643  0.44016  1.0000
  C   C1022     1.0  0.27449  0.94217  0.39315  1.0000
  H   H1645     1.0  0.25774  0.91280  0.40829  1.0000
  C   C1023     1.0  0.26401  0.96572  0.42545  1.0000
  C   C1024     1.0  0.22939  0.79035  0.47175  1.0000
  H   H1646     1.0  0.27740  0.95669  0.44191  1.0000
  C   C1025     1.0  0.24858  0.82520  0.41651  1.0000
  H   H1647     1.0  0.27959  0.92028  0.37882  1.0000
  C   C1026     1.0  0.31040  0.80784  0.45636  1.0000
  H   H1648     1.0  0.26717  0.93643  0.37075  1.0000
  S   S415      1.0  0.29498  0.77408  0.44453  1.0000
  S   S416      1.0  0.04750  0.65614  0.33872  1.0000
  Fe  Fe206     1.0  0.31510  0.76464  0.45459  1.0000
  H   H1649     1.0  0.25427  0.96215  0.43278  1.0000
  Fe  Fe207     1.0  0.28973  0.75153  0.45436  1.0000
  H   H1650     1.0  0.06266  0.70679  0.33050  1.0000
  N   N103      1.0  0.24677  0.77878  0.42906  1.0000
  S   S417      1.0  0.27929  0.74253  0.44150  1.0000
  H   H1651     1.0  0.22647  0.78750  0.42101  1.0000
  C   C1027     1.0  0.25740  0.78436  0.43356  1.0000
  H   H1652     1.0  0.32452  0.82524  0.47381  1.0000
  C   C1028     1.0  0.27719  0.96258  0.43061  1.0000
  C   C1029     1.0  0.26545  0.92010  0.40712  1.0000
  C   C1030     1.0  0.23487  0.79134  0.42418  1.0000
  H   H1653     1.0  0.27268  0.94560  0.40372  1.0000
  H   H1654     1.0  0.23952  0.79945  0.41441  1.0000
  H   H1655     1.0  0.24711  0.95132  0.38699  1.0000
  S   S418      1.0  0.21178  0.96293  0.47339  1.0000
  H   H1656     1.0  0.26029  0.92007  0.38114  1.0000
  N   N104      1.0  0.24908  0.86268  0.43830  1.0000
  H   H1657     1.0  0.05257  0.73061  0.33894  1.0000
  S   S419      1.0  0.32786  0.96022  0.38781  1.0000
  H   H1658     1.0  0.14763  0.67661  0.43810  1.0000
  H   H1659     1.0  0.29942  0.80729  0.46429  1.0000
  C   C1031     1.0  0.16816  0.65322  0.44811  1.0000
  S   S420      1.0  0.00959  0.65826  0.37032  1.0000
  Fe  Fe208     1.0  0.23329  0.68166  0.47441  1.0000
  H   H1660     1.0  0.24534  0.82583  0.45936  1.0000
  S   S421      1.0  0.30320  0.77161  0.47584  1.0000
  H   H1661     1.0  0.29943  0.97828  0.39930  1.0000
  C   C1032     1.0  0.32395  0.79673  0.47597  1.0000
  H   H1662     1.0  0.19393  0.65542  0.42745  1.0000
  S   S422      1.0  0.19648  0.67193  0.47413  1.0000
  Fe  Fe209     1.0  0.09681  0.65220  0.38658  1.0000
  H   H1663     1.0  0.00343  0.72599  0.45713  1.0000
  S   S423      1.0  0.00776  0.65344  0.33814  1.0000
  C   C1033     1.0  0.18559  0.66590  0.42886  1.0000
  H   H1664     1.0  0.99935  0.70319  0.47615  1.0000
  H   H1665     1.0  0.15564  0.65523  0.42577  1.0000
  H   H1666     1.0  0.22489  0.78045  0.47537  1.0000
  C   C1034     1.0  0.16721  0.65721  0.42256  1.0000
  S   S424      1.0  0.32819  0.83129  0.41430  1.0000
  H   H1667     1.0  0.32675  0.77298  0.39864  1.0000
  C   C1035     1.0  0.32809  0.92186  0.39262  1.0000
  H   H1668     1.0  0.32828  0.78613  0.47218  1.0000
  H   H1669     1.0  0.32803  0.88261  0.43405  1.0000
  H   H1670     1.0  0.15645  0.65161  0.45216  1.0000
  C   C1036     1.0  0.00128  0.70426  0.60244  1.0000
  C   C1037     1.0  0.24673  0.97314  0.68048  1.0000
  H   H1671     1.0  0.21827  0.70621  0.52363  1.0000
  C   C1038     1.0  0.31599  0.81555  0.61824  1.0000
  H   H1672     1.0  0.04508  0.70609  0.65741  1.0000
  S   S425      1.0  0.20198  0.69050  0.56796  1.0000
  Fe  Fe210     1.0  0.20959  0.69204  0.58726  1.0000
  S   S426      1.0  0.19305  0.69087  0.60920  1.0000
  H   H1673     1.0  0.14929  0.72757  0.62655  1.0000
  C   C1039     1.0  0.02947  0.65268  0.67553  1.0000
  C   C1040     1.0  0.17594  0.70356  0.60778  1.0000
  C   C1041     1.0  0.16827  0.71101  0.61917  1.0000
  H   H1674     1.0  0.13774  0.69980  0.63564  1.0000
  C   C1042     1.0  0.16989  0.70637  0.59538  1.0000
  H   H1675     1.0  0.17287  0.70884  0.62881  1.0000
  H   H1676     1.0  0.02191  0.65561  0.66771  1.0000
  H   H1677     1.0  0.17543  0.70050  0.58666  1.0000
  C   C1043     1.0  0.16671  0.95309  0.69373  1.0000
  S   S427      1.0  0.99906  0.76730  0.63674  1.0000
  H   H1678     1.0  0.02237  0.65692  0.63259  1.0000
  C   C1044     1.0  0.17671  0.71538  0.52087  1.0000
  H   H1679     1.0  0.16508  0.71781  0.52024  1.0000
  C   C1045     1.0  0.18233  0.66319  0.59143  1.0000
  C   C1046     1.0  0.16000  0.96919  0.67136  1.0000
  C   C1047     1.0  0.15502  0.72179  0.61780  1.0000
  H   H1680     1.0  0.21027  0.69296  0.50962  1.0000
  S   S428      1.0  0.21917  0.71217  0.57536  1.0000
  H   H1681     1.0  0.99992  0.69262  0.60725  1.0000
  H   H1682     1.0  0.27864  0.93587  0.65772  1.0000
  S   S429      1.0  0.19525  0.97901  0.63938  1.0000
  H   H1683     1.0  0.00840  0.69441  0.64975  1.0000
  C   C1048     1.0  0.26415  0.66589  0.53329  1.0000
  H   H1684     1.0  0.15101  0.70643  0.65077  1.0000
  H   H1685     1.0  0.04077  0.65415  0.66889  1.0000
  C   C1049     1.0  0.00119  0.80470  0.62714  1.0000
  H   H1686     1.0  0.32560  0.84892  0.60252  1.0000
  S   S430      1.0  0.23501  0.69425  0.54828  1.0000
  C   C1050     1.0  0.18711  0.70442  0.51410  1.0000
  H   H1687     1.0  0.27679  0.95211  0.63348  1.0000
  N   N105      1.0  0.29551  0.94757  0.64356  1.0000
  Fe  Fe211     1.0  0.20013  0.68514  0.48805  1.0000
  H   H1688     1.0  0.30818  0.97912  0.49665  1.0000
  S   S431      1.0  0.23157  0.67563  0.58290  1.0000
  N   N106      1.0  0.15771  0.96755  0.68747  1.0000
  S   S432      1.0  0.22017  0.66850  0.49437  1.0000
  Fe  Fe212     1.0  0.24043  0.69575  0.56892  1.0000
  S   S433      1.0  0.22524  0.65574  0.55416  1.0000
  H   H1689     1.0  0.24784  0.68613  0.51422  1.0000
  H   H1690     1.0  0.17323  0.73164  0.53367  1.0000
  Fe  Fe213     1.0  0.10995  0.65465  0.65893  1.0000
  H   H1691     1.0  0.30531  0.83304  0.59514  1.0000
  H   H1692     1.0  0.01087  0.70407  0.57348  1.0000
  C   C1051     1.0  0.18134  0.72325  0.52840  1.0000
  C   C1052     1.0  0.19630  0.71985  0.52954  1.0000
  C   C1053     1.0  0.16242  0.97970  0.69034  1.0000
  C   C1054     1.0  0.05347  0.66213  0.63956  1.0000
  N   N107      1.0  0.17955  0.65267  0.60582  1.0000
  S   S434      1.0  0.18114  0.69439  0.50504  1.0000
  H   H1693     1.0  0.06595  0.70692  0.63542  1.0000
  C   C1055     1.0  0.20670  0.70885  0.52281  1.0000
  Fe  Fe214     1.0  0.21326  0.70920  0.55572  1.0000
  C   C1056     1.0  0.20216  0.70133  0.51488  1.0000
  H   H1694     1.0  0.13460  0.97900  0.68996  1.0000
  H   H1695     1.0  0.31963  0.89534  0.66064  1.0000
  H   H1696     1.0  0.20958  0.79850  0.68014  1.0000
  Fe  Fe215     1.0  0.22440  0.67556  0.56269  1.0000
  S   S435      1.0  0.20174  0.72821  0.54057  1.0000
  H   H1697     1.0  0.24602  0.71321  0.58858  1.0000
  H   H1698     1.0  0.30364  0.81983  0.62108  1.0000
  H   H1699     1.0  0.31700  0.94351  0.64878  1.0000
  H   H1700     1.0  0.13491  0.70666  0.66566  1.0000
  H   H1701     1.0  0.27293  0.94075  0.68337  1.0000
  C   C1057     1.0  0.25710  0.83788  0.64666  1.0000
  C   C1058     1.0  0.15653  0.71696  0.59413  1.0000
  H   H1702     1.0  0.25024  0.77927  0.47826  1.0000
  C   C1059     1.0  0.26590  0.97425  0.69208  1.0000
  H   H1703     1.0  0.31584  0.95428  0.63054  1.0000
  C   C1060     1.0  0.05778  0.71413  0.62866  1.0000
  H   H1704     1.0  0.23719  0.67324  0.52696  1.0000
  H   H1705     1.0  0.23324  0.74343  0.52047  1.0000
  H   H1706     1.0  0.01346  0.70396  0.59823  1.0000
  H   H1707     1.0  0.05377  0.70660  0.62445  1.0000
  H   H1708     1.0  0.23740  0.74509  0.54419  1.0000
  C   C1061     1.0  0.24711  0.73552  0.54319  1.0000
  C   C1062     1.0  0.03739  0.71333  0.65015  1.0000
  C   C1063     1.0  0.03907  0.66543  0.63684  1.0000
  H   H1709     1.0  0.26542  0.67740  0.53183  1.0000
  H   H1710     1.0  0.17886  0.95220  0.68866  1.0000
  C   C1064     1.0  0.13214  0.69300  0.64597  1.0000
  H   H1711     1.0  0.18335  0.67388  0.59292  1.0000
  H   H1712     1.0  0.09931  0.69936  0.71145  1.0000
  Fe  Fe216     1.0  0.08871  0.67067  0.68190  1.0000
  H   H1713     1.0  0.29344  0.94032  0.62523  1.0000
  H   H1714     1.0  0.03203  0.67640  0.63693  1.0000
  C   C1065     1.0  0.10838  0.71661  0.69466  1.0000
  H   H1715     1.0  0.11278  0.71987  0.70217  1.0000
  H   H1716     1.0  0.27472  0.65819  0.53575  1.0000
  C   C1066     1.0  0.10463  0.71963  0.67014  1.0000
  C   C1067     1.0  0.10077  0.70498  0.69991  1.0000
  C   C1068     1.0  0.14524  0.69932  0.66069  1.0000
  C   C1069     1.0  0.11031  0.72402  0.67979  1.0000
  C   C1070     1.0  0.03458  0.73246  0.62815  1.0000
  H   H1717     1.0  0.23653  0.97831  0.67652  1.0000
  H   H1718     1.0  0.14068  0.67333  0.67891  1.0000
  H   H1719     1.0  0.04007  0.73998  0.61837  1.0000
  H   H1720     1.0  0.15251  0.69521  0.66887  1.0000
  H   H1721     1.0  0.16339  0.67281  0.65845  1.0000
  H   H1722     1.0  0.15722  0.95984  0.66874  1.0000
  H   H1723     1.0  0.04179  0.73987  0.64972  1.0000
  H   H1724     1.0  0.05915  0.72634  0.64997  1.0000
  C   C1071     1.0  0.05101  0.73293  0.64295  1.0000
  C   C1072     1.0  0.09724  0.70776  0.67535  1.0000
  C   C1073     1.0  0.25241  0.98077  0.68738  1.0000
  C   C1074     1.0  0.99982  0.83055  0.61542  1.0000
  Fe  Fe217     1.0  0.07701  0.66526  0.65832  1.0000
  C   C1075     1.0  0.13379  0.67810  0.67040  1.0000
  S   S436      1.0  0.05942  0.67537  0.64467  1.0000
  H   H1725     1.0  0.25130  0.84316  0.68138  1.0000
  H   H1726     1.0  0.10629  0.72505  0.65862  1.0000
  S   S437      1.0  0.09464  0.67720  0.65718  1.0000
  H   H1727     1.0  0.05682  0.74065  0.63364  1.0000
  S   S438      1.0  0.08660  0.68525  0.69719  1.0000
  C   C1076     1.0  0.09536  0.70040  0.69026  1.0000
  H   H1728     1.0  0.27163  0.98272  0.62948  1.0000
  C   C1077     1.0  0.15583  0.67745  0.65053  1.0000
  H   H1729     1.0  0.99793  0.69203  0.58208  1.0000
  H   H1730     1.0  0.09291  0.70439  0.66788  1.0000
  N   N108      1.0  0.14174  0.68698  0.65690  1.0000
  N   N109      1.0  0.04520  0.72321  0.63748  1.0000
  H   H1731     1.0  0.06394  0.72119  0.61898  1.0000
  C   C1078     1.0  0.19467  0.90599  0.63200  1.0000
  H   H1732     1.0  0.24301  0.72523  0.54922  1.0000
  Fe  Fe218     1.0  0.20026  0.86953  0.62850  1.0000
  H   H1733     1.0  0.12389  0.82437  0.63551  1.0000
  S   S439      1.0  0.11815  0.77900  0.61307  1.0000
  H   H1734     1.0  0.23855  0.72365  0.52561  1.0000
  S   S440      1.0  0.03352  0.77227  0.60297  1.0000
  H   H1735     1.0  0.18906  0.73416  0.57102  1.0000
  C   C1079     1.0  0.16384  0.76476  0.58029  1.0000
  H   H1736     1.0  0.10866  0.84730  0.62286  1.0000
  N   N110      1.0  0.17312  0.75507  0.57008  1.0000
  H   H1737     1.0  0.16131  0.97859  0.70236  1.0000
  C   C1080     1.0  0.18281  0.76344  0.55772  1.0000
  H   H1738     1.0  0.16741  0.81473  0.61043  1.0000
  C   C1081     1.0  0.19795  0.92007  0.62578  1.0000
  H   H1739     1.0  0.16989  0.74200  0.55687  1.0000
  H   H1740     1.0  0.17087  0.76892  0.58501  1.0000
  H   H1741     1.0  0.18988  0.75638  0.54982  1.0000
  S   S441      1.0  0.31894  0.77825  0.53292  1.0000
  Fe  Fe219     1.0  0.21761  0.84179  0.61756  1.0000
  Fe  Fe220     1.0  0.13130  0.77931  0.62909  1.0000
  H   H1742     1.0  0.15534  0.74410  0.57313  1.0000
  H   H1743     1.0  0.15200  0.71914  0.58443  1.0000
  H   H1744     1.0  0.19876  0.94075  0.62988  1.0000
  H   H1745     1.0  0.19288  0.66030  0.61564  1.0000
  C   C1082     1.0  0.30220  0.91025  0.69075  1.0000
  S   S442      1.0  0.10582  0.75099  0.63712  1.0000
  H   H1746     1.0  0.17606  0.77324  0.55134  1.0000
  S   S443      1.0  0.14690  0.79547  0.61998  1.0000
  C   C1083     1.0  0.23294  0.90511  0.64704  1.0000
  Fe  Fe221     1.0  0.00944  0.77038  0.61258  1.0000
  H   H1747     1.0  0.19068  0.74557  0.58217  1.0000
  H   H1748     1.0  0.26407  0.78818  0.60897  1.0000
  C   C1084     1.0  0.16974  0.82001  0.62985  1.0000
  C   C1085     1.0  0.09955  0.84123  0.62533  1.0000
  C   C1086     1.0  0.04503  0.77519  0.61293  1.0000
  C   C1087     1.0  0.06046  0.77357  0.60684  1.0000
  C   C1088     1.0  0.06986  0.77679  0.61389  1.0000
  H   H1749     1.0  0.06514  0.77003  0.59648  1.0000
  H   H1750     1.0  0.08170  0.77573  0.60896  1.0000
  C   C1089     1.0  0.18256  0.74216  0.57815  1.0000
  Fe  Fe222     1.0  0.22008  0.97617  0.62993  1.0000
  S   S444      1.0  0.22990  0.83304  0.59726  1.0000
  H   H1751     1.0  0.30801  0.84514  0.61403  1.0000
  C   C1090     1.0  0.31204  0.94488  0.63918  1.0000
  C   C1091     1.0  0.15414  0.80353  0.63015  1.0000
  H   H1752     1.0  0.25452  0.88836  0.66159  1.0000
  H   H1753     1.0  0.20161  0.92346  0.61391  1.0000
  C   C1092     1.0  0.23959  0.77311  0.60125  1.0000
  Fe  Fe223     1.0  0.09925  0.77577  0.63285  1.0000
  H   H1754     1.0  0.15640  0.75927  0.55745  1.0000
  S   S445      1.0  0.13423  0.74011  0.60197  1.0000
  C   C1093     1.0  0.16407  0.81291  0.62236  1.0000
  H   H1755     1.0  0.23304  0.80163  0.60243  1.0000
  H   H1756     1.0  0.12314  0.68495  0.67557  1.0000
  H   H1757     1.0  0.23883  0.78073  0.59030  1.0000
  H   H1758     1.0  0.17738  0.82720  0.62367  1.0000
  H   H1759     1.0  0.17568  0.73605  0.58800  1.0000
  H   H1760     1.0  0.15643  0.75871  0.58977  1.0000
  Fe  Fe224     1.0  0.32479  0.96198  0.71316  1.0000
  H   H1761     1.0  0.23398  0.91030  0.65558  1.0000
  S   S446      1.0  0.22461  0.85835  0.62503  1.0000
  H   H1762     1.0  0.24731  0.76250  0.59910  1.0000
  H   H1763     1.0  0.10720  0.82023  0.64870  1.0000
  S   S447      1.0  0.14045  0.75475  0.63343  1.0000
  S   S448      1.0  0.19606  0.89439  0.62022  1.0000
  C   C1094     1.0  0.16327  0.74988  0.56411  1.0000
  Fe  Fe225     1.0  0.12599  0.75422  0.61894  1.0000
  H   H1764     1.0  0.15643  0.77454  0.57463  1.0000
  H   H1765     1.0  0.19046  0.76749  0.56175  1.0000
  S   S449      1.0  0.19358  0.85387  0.61921  1.0000
  C   C1095     1.0  0.31773  0.82912  0.59292  1.0000
  H   H1766     1.0  0.18487  0.66388  0.52783  1.0000
  S   S450      1.0  0.31273  0.97476  0.67555  1.0000
  H   H1767     1.0  0.09203  0.84315  0.63606  1.0000
  S   S451      1.0  0.21391  0.82678  0.64001  1.0000
  C   C1096     1.0  0.28927  0.95009  0.63044  1.0000
  H   H1768     1.0  0.22831  0.77074  0.60673  1.0000
  C   C1097     1.0  0.25989  0.78269  0.60268  1.0000
  H   H1769     1.0  0.27301  0.70094  0.48398  1.0000
  H   H1770     1.0  0.12928  0.68396  0.64291  1.0000
  H   H1771     1.0  0.25507  0.66371  0.54327  1.0000
  H   H1772     1.0  0.02736  0.78050  0.63140  1.0000
  H   H1773     1.0  0.25960  0.79003  0.59155  1.0000
  C   C1098     1.0  0.19632  0.92987  0.63480  1.0000
  C   C1099     1.0  0.03911  0.77968  0.62638  1.0000
  C   C1100     1.0  0.06381  0.78208  0.62688  1.0000
  H   H1774     1.0  0.24016  0.90952  0.63636  1.0000
  H   H1775     1.0  0.03285  0.70588  0.64637  1.0000
  H   H1776     1.0  0.32461  0.83873  0.62130  1.0000
  C   C1101     1.0  0.11433  0.81896  0.63764  1.0000
  S   S452      1.0  0.06967  0.66062  0.68305  1.0000
  C   C1102     1.0  0.14938  0.72512  0.60507  1.0000
  S   S453      1.0  0.00355  0.75046  0.60990  1.0000
  C   C1103     1.0  0.04842  0.78342  0.63317  1.0000
  H   H1777     1.0  0.32004  0.97372  0.48004  1.0000
  C   C1104     1.0  0.18905  0.83225  0.68602  1.0000
  H   H1778     1.0  0.18169  0.83684  0.69561  1.0000
  H   H1779     1.0  0.12142  0.70024  0.65041  1.0000
  H   H1780     1.0  0.17432  0.97993  0.68481  1.0000
  N   N111      1.0  0.10572  0.82523  0.62588  1.0000
  H   H1781     1.0  0.04375  0.78730  0.64334  1.0000
  H   H1782     1.0  0.02544  0.81504  0.62408  1.0000
  H   H1783     1.0  0.19825  0.83841  0.68125  1.0000
  H   H1784     1.0  0.22355  0.88577  0.63819  1.0000
  H   H1785     1.0  0.00211  0.79601  0.63744  1.0000
  H   H1786     1.0  0.02971  0.72551  0.62408  1.0000
  H   H1787     1.0  0.27115  0.66466  0.49709  1.0000
  H   H1788     1.0  0.02503  0.73954  0.63446  1.0000
  S   S454      1.0  0.19435  0.85697  0.65185  1.0000
  H   H1789     1.0  0.00908  0.82766  0.60598  1.0000
  H   H1790     1.0  0.11990  0.81121  0.61126  1.0000
  S   S455      1.0  0.11174  0.77787  0.64858  1.0000
  H   H1791     1.0  0.17559  0.81044  0.68833  1.0000
  N   N112      1.0  0.26071  0.66388  0.52005  1.0000
  Fe  Fe226     1.0  0.20140  0.95596  0.65315  1.0000
  S   S456      1.0  0.20466  0.96369  0.67170  1.0000
  S   S457      1.0  0.18791  0.93821  0.66151  1.0000
  Fe  Fe227     1.0  0.11968  0.75314  0.65136  1.0000
  H   H1792     1.0  0.21365  0.81904  0.69698  1.0000
  Fe  Fe228     1.0  0.22847  0.96179  0.65929  1.0000
  H   H1793     1.0  0.08571  0.81851  0.64002  1.0000
  H   H1794     1.0  0.99892  0.67642  0.64282  1.0000
  Fe  Fe229     1.0  0.21834  0.84471  0.64782  1.0000
  Fe  Fe230     1.0  0.19018  0.83994  0.64236  1.0000
  C   C1105     1.0  0.09335  0.81754  0.62910  1.0000
  C   C1106     1.0  0.18252  0.80842  0.69661  1.0000
  N   N113      1.0  0.19508  0.81613  0.69038  1.0000
  H   H1795     1.0  0.19820  0.81242  0.66870  1.0000
  H   H1796     1.0  0.27723  0.96331  0.65327  1.0000
  C   C1107     1.0  0.20407  0.81333  0.70152  1.0000
  H   H1797     1.0  0.20885  0.80128  0.70506  1.0000
  C   C1108     1.0  0.18989  0.90168  0.64734  1.0000
  C   C1109     1.0  0.19101  0.92577  0.65007  1.0000
  H   H1798     1.0  0.15201  0.80687  0.66498  1.0000
  S   S458      1.0  0.17204  0.82704  0.65494  1.0000
  C   C1110     1.0  0.16538  0.81794  0.64524  1.0000
  N   N114      1.0  0.23706  0.88874  0.65124  1.0000
  H   H1799     1.0  0.21418  0.81635  0.67215  1.0000
  H   H1800     1.0  0.19722  0.81746  0.71155  1.0000
  C   C1111     1.0  0.15542  0.80857  0.65307  1.0000
  H   H1801     1.0  0.17497  0.81235  0.70650  1.0000
  H   H1802     1.0  0.18721  0.89090  0.65219  1.0000
  H   H1803     1.0  0.10981  0.82842  0.60221  1.0000
  H   H1804     1.0  0.18372  0.90843  0.66814  1.0000
  C   C1112     1.0  0.20470  0.81060  0.67727  1.0000
  C   C1113     1.0  0.23532  0.88241  0.63968  1.0000
  H   H1805     1.0  0.18663  0.79621  0.69993  1.0000
  H   H1806     1.0  0.24261  0.88613  0.62876  1.0000
  H   H1807     1.0  0.29576  0.92416  0.65027  1.0000
  H   H1808     1.0  0.99995  0.84170  0.61656  1.0000
  C   C1114     1.0  0.18786  0.91164  0.65633  1.0000
  H   H1809     1.0  0.18228  0.83476  0.67754  1.0000
  H   H1810     1.0  0.14231  0.79406  0.65173  1.0000
  C   C1115     1.0  0.14989  0.80131  0.64558  1.0000
  H   H1811     1.0  0.23001  0.87112  0.66896  1.0000
  S   S459      1.0  0.22568  0.95237  0.64174  1.0000
  S   S460      1.0  0.22988  0.84131  0.66635  1.0000
  S   S461      1.0  0.12101  0.73774  0.67350  1.0000
  S   S462      1.0  0.24855  0.94951  0.66883  1.0000
  H   H1812     1.0  0.09293  0.84634  0.61660  1.0000
  H   H1813     1.0  0.09768  0.80548  0.62938  1.0000
  H   H1814     1.0  0.22804  0.88807  0.67443  1.0000
  S   S463      1.0  0.07501  0.78815  0.63480  1.0000
  H   H1815     1.0  0.08651  0.82198  0.62053  1.0000
  C   C1116     1.0  0.14168  0.96820  0.69444  1.0000
  H   H1816     1.0  0.21518  0.88673  0.66455  1.0000
  C   C1117     1.0  0.11570  0.82318  0.61147  1.0000
  C   C1118     1.0  0.22713  0.88344  0.66544  1.0000
  C   C1119     1.0  0.32244  0.92220  0.67570  1.0000
  H   H1817     1.0  0.00608  0.72816  0.58072  1.0000
  H   H1818     1.0  0.11919  0.80693  0.63834  1.0000
  H   H1819     1.0  0.12575  0.82793  0.60910  1.0000
  H   H1820     1.0  0.02773  0.71977  0.65703  1.0000
  H   H1821     1.0  0.27434  0.67833  0.50446  1.0000
  H   H1822     1.0  0.22115  0.90904  0.64571  1.0000
  C   C1120     1.0  0.99811  0.69796  0.64581  1.0000
  H   H1823     1.0  0.25036  0.75887  0.52018  1.0000
  S   S464      1.0  0.26373  0.69971  0.56397  1.0000
  H   H1824     1.0  0.24323  0.67254  0.50789  1.0000
  H   H1825     1.0  0.28818  0.71414  0.55746  1.0000
  Fe  Fe231     1.0  0.29830  0.97465  0.69828  1.0000
  H   H1826     1.0  0.25525  0.73643  0.54906  1.0000
  C   C1121     1.0  0.24665  0.67441  0.51720  1.0000
  H   H1827     1.0  0.26807  0.75010  0.52531  1.0000
  H   H1828     1.0  0.29312  0.73170  0.56918  1.0000
  H   H1829     1.0  0.31785  0.80492  0.61485  1.0000
  C   C1122     1.0  0.28281  0.72777  0.57337  1.0000
  C   C1123     1.0  0.25621  0.71733  0.58423  1.0000
  C   C1124     1.0  0.31058  0.92100  0.68806  1.0000
  C   C1125     1.0  0.26675  0.71248  0.57225  1.0000
  C   C1126     1.0  0.27999  0.71782  0.56676  1.0000
  C   C1127     1.0  0.27330  0.95985  0.69055  1.0000
  C   C1128     1.0  0.25431  0.95880  0.67876  1.0000
  H   H1830     1.0  0.16531  0.95139  0.70588  1.0000
  H   H1831     1.0  0.24313  0.98039  0.55903  1.0000
  C   C1129     1.0  0.25963  0.74883  0.52002  1.0000
  H   H1832     1.0  0.26526  0.74873  0.50827  1.0000
  C   C1130     1.0  0.25914  0.72708  0.59099  1.0000
  C   C1131     1.0  0.27249  0.73223  0.58567  1.0000
  H   H1833     1.0  0.25115  0.73044  0.60054  1.0000
  N   N115      1.0  0.25415  0.73508  0.52755  1.0000
  H   H1834     1.0  0.23517  0.76639  0.63092  1.0000
  H   H1835     1.0  0.32268  0.83760  0.58387  1.0000
  H   H1836     1.0  0.29382  0.95906  0.66034  1.0000
  S   S465      1.0  0.31742  0.74815  0.56914  1.0000
  C   C1132     1.0  0.24302  0.73384  0.52016  1.0000
  H   H1837     1.0  0.13086  0.66876  0.66794  1.0000
  H   H1838     1.0  0.27266  0.72155  0.51520  1.0000
  C   C1133     1.0  0.31587  0.75466  0.50585  1.0000
  C   C1134     1.0  0.25281  0.88395  0.65282  1.0000
  C   C1135     1.0  0.27280  0.84044  0.66611  1.0000
  H   H1839     1.0  0.29318  0.97077  0.64230  1.0000
  H   H1840     1.0  0.13956  0.96697  0.70662  1.0000
  H   H1841     1.0  0.22304  0.79173  0.61919  1.0000
  H   H1842     1.0  0.26836  0.77232  0.60110  1.0000
  C   C1136     1.0  0.30337  0.75741  0.53504  1.0000
  H   H1843     1.0  0.19294  0.65876  0.58399  1.0000
  H   H1844     1.0  0.18666  0.66011  0.51023  1.0000
  H   H1845     1.0  0.17013  0.65789  0.52441  1.0000
  H   H1846     1.0  0.15357  0.66794  0.64772  1.0000
  H   H1847     1.0  0.25039  0.77354  0.63181  1.0000
  C   C1137     1.0  0.24903  0.82605  0.59677  1.0000
  C   C1138     1.0  0.27312  0.66664  0.50715  1.0000
  S   S466      1.0  0.29733  0.80208  0.59748  1.0000
  H   H1848     1.0  0.13775  0.95922  0.69242  1.0000
  H   H1849     1.0  0.24767  0.82871  0.61855  1.0000
  H   H1850     1.0  0.27862  0.83450  0.63165  1.0000
  H   H1851     1.0  0.25417  0.75835  0.62296  1.0000
  H   H1852     1.0  0.25385  0.82197  0.57491  1.0000
  C   C1139     1.0  0.27912  0.81228  0.59672  1.0000
  H   H1853     1.0  0.27545  0.72267  0.53242  1.0000
  C   C1140     1.0  0.29919  0.74763  0.52932  1.0000
  C   C1141     1.0  0.25487  0.82475  0.60896  1.0000
  H   H1854     1.0  0.29107  0.74123  0.53622  1.0000
  H   H1855     1.0  0.29493  0.93269  0.66485  1.0000
  C   C1142     1.0  0.24619  0.76901  0.62470  1.0000
  Fe  Fe232     1.0  0.31311  0.77212  0.55756  1.0000
  C   C1143     1.0  0.27268  0.83654  0.64246  1.0000
  C   C1144     1.0  0.26996  0.81794  0.60890  1.0000
  H   H1856     1.0  0.28051  0.80988  0.57482  1.0000
  H   H1857     1.0  0.16574  0.67013  0.61666  1.0000
  C   C1145     1.0  0.27339  0.81398  0.58436  1.0000
  C   C1146     1.0  0.16544  0.65911  0.61527  1.0000
  H   H1858     1.0  0.25114  0.83685  0.63910  1.0000
  C   C1147     1.0  0.31985  0.76461  0.51141  1.0000
  S   S467      1.0  0.27599  0.74392  0.59492  1.0000
  H   H1859     1.0  0.29233  0.95992  0.62192  1.0000
  H   H1860     1.0  0.25105  0.97339  0.62672  1.0000
  N   N116      1.0  0.00134  0.81926  0.62923  1.0000
  H   H1861     1.0  0.23832  0.87006  0.64256  1.0000
  C   C1148     1.0  0.31348  0.76612  0.52596  1.0000
  S   S468      1.0  0.29062  0.77858  0.57210  1.0000
  Fe  Fe233     1.0  0.30348  0.78323  0.58593  1.0000
  C   C1149     1.0  0.23437  0.79359  0.61306  1.0000
  C   C1150     1.0  0.26689  0.72213  0.52684  1.0000
  C   C1151     1.0  0.31723  0.90229  0.66845  1.0000
  H   H1862     1.0  0.16205  0.68377  0.64025  1.0000
  S   S469      1.0  0.30687  0.76020  0.59994  1.0000
  H   H1863     1.0  0.29847  0.75848  0.54634  1.0000
  H   H1864     1.0  0.23831  0.79914  0.61949  1.0000
  H   H1865     1.0  0.27437  0.81658  0.61850  1.0000
  C   C1152     1.0  0.28969  0.96078  0.65013  1.0000
  N   N117      1.0  0.24499  0.77960  0.61044  1.0000
  H   H1866     1.0  0.29317  0.90914  0.70045  1.0000
  Fe  Fe234     1.0  0.29569  0.75502  0.58487  1.0000
  C   C1153     1.0  0.25834  0.82087  0.58439  1.0000
  Fe  Fe235     1.0  0.32489  0.95239  0.68576  1.0000
  H   H1867     1.0  0.21329  0.98255  0.49082  1.0000
  C   C1154     1.0  0.30512  0.74661  0.51455  1.0000
  H   H1868     1.0  0.01055  0.80114  0.61804  1.0000
  Fe  Fe236     1.0  0.32809  0.75579  0.58284  1.0000
  H   H1869     1.0  0.26320  0.71155  0.53240  1.0000
  H   H1870     1.0  0.27884  0.84131  0.67370  1.0000
  H   H1871     1.0  0.26062  0.88780  0.64233  1.0000
  H   H1872     1.0  0.24802  0.73342  0.50833  1.0000
  S   S470      1.0  0.30024  0.83512  0.64678  1.0000
  C   C1155     1.0  0.24936  0.84011  0.66074  1.0000
  S   S471      1.0  0.29822  0.73643  0.50649  1.0000
  C   C1156     1.0  0.29103  0.93451  0.65454  1.0000
  H   H1873     1.0  0.25632  0.87164  0.65584  1.0000
  Fe  Fe237     1.0  0.31217  0.84554  0.65703  1.0000
  Fe  Fe238     1.0  0.31054  0.86891  0.67295  1.0000
  S   S472      1.0  0.29607  0.88656  0.68490  1.0000
  C   C1157     1.0  0.32561  0.91297  0.66579  1.0000
  S   S473      1.0  0.31017  0.84468  0.68104  1.0000
  S   S474      1.0  0.31053  0.87009  0.64948  1.0000
  C   C1158     1.0  0.26732  0.95202  0.68421  1.0000
  H   H1874     1.0  0.16339  0.65180  0.62647  1.0000
  S   S475      1.0  0.30918  0.95131  0.70802  1.0000
  H   H1875     1.0  0.30797  0.92815  0.69569  1.0000
  C   C1159     1.0  0.25722  0.84143  0.67046  1.0000
  C   C1160     1.0  0.28059  0.83775  0.65217  1.0000
  H   H1876     1.0  0.28355  0.95466  0.69440  1.0000
  H   H1877     1.0  0.31692  0.93461  0.63479  1.0000
  C   C1161     1.0  0.30570  0.90072  0.68107  1.0000
  H   H1878     1.0  0.16360  0.94369  0.69156  1.0000
  H   H1879     1.0  0.32010  0.81305  0.62859  1.0000
  H   H1880     1.0  0.17306  0.66563  0.58560  1.0000
  H   H1881     1.0  0.32796  0.77102  0.50448  1.0000
  H   H1882     1.0  0.01626  0.82914  0.63458  1.0000
  C   C1162     1.0  0.25468  0.98276  0.61867  1.0000
  S   S476      1.0  0.99803  0.72570  0.64785  1.0000
  C   C1163     1.0  0.01566  0.81833  0.63297  1.0000
  Fe  Fe239     1.0  0.21779  0.65641  0.47873  1.0000
  N   N118      1.0  0.32345  0.82636  0.60640  1.0000
  H   H1883     1.0  0.32113  0.75318  0.49477  1.0000
  C   C1164     1.0  0.18251  0.65627  0.52235  1.0000
  H   H1884     1.0  0.15558  0.66070  0.61048  1.0000
  H   H1885     1.0  0.01711  0.80987  0.64334  1.0000
  H   H1886     1.0  0.17189  0.96923  0.66571  1.0000
  Fe  Fe240     1.0  0.29773  0.74914  0.48316  1.0000
  Fe  Fe241     1.0  0.32775  0.98355  0.68339  1.0000
  H   H1887     1.0  0.02539  0.66093  0.68265  1.0000
  H   H1888     1.0  0.28401  0.65929  0.50910  1.0000
  H   H1889     1.0  0.21595  0.98067  0.56783  1.0000
  H   H1890     1.0  0.31334  0.79580  0.48440  1.0000
  C   C1165     1.0  0.32029  0.84043  0.61122  1.0000
  S   S477      1.0  0.32544  0.77923  0.56997  1.0000
  H   H1891     1.0  0.15298  0.97970  0.66630  1.0000
  H   H1892     1.0  0.32035  0.81879  0.58876  1.0000
  C   C1166     1.0  0.03351  0.65435  0.63460  1.0000
  S   S478      1.0  0.25363  0.68597  0.47870  1.0000
  C   C1167     1.0  0.31464  0.98333  0.48541  1.0000
  H   H1893     1.0  0.99735  0.71019  0.61167  1.0000
  C   C1168     1.0  0.99884  0.70387  0.57832  1.0000
  S   S479      1.0  0.27372  0.98436  0.69933  1.0000
  H   H1894     1.0  0.32723  0.91904  0.74315  1.0000
  H   H1895     1.0  0.32791  0.90794  0.76148  1.0000
  S   S480      1.0  0.41096  0.21014  0.04206  1.0000
  C   C1169     1.0  0.43787  0.20583  0.02215  1.0000
  C   C1170     1.0  0.43229  0.25511  0.12419  1.0000
  S   S481      1.0  0.46208  0.98924  0.14028  1.0000
  C   C1171     1.0  0.63151  0.18815  0.13217  1.0000
  C   C1172     1.0  0.48107  0.19669  0.13105  1.0000
  Fe  Fe242     1.0  0.42355  0.20755  0.05952  1.0000
  S   S482      1.0  0.41150  0.19984  0.08282  1.0000
  H   H1896     1.0  0.47776  0.18668  0.08203  1.0000
  Fe  Fe243     1.0  0.44989  0.21127  0.06936  1.0000
  S   S483      1.0  0.43960  0.20455  0.09339  1.0000
  H   H1897     1.0  0.47060  0.04024  0.15782  1.0000
  Fe  Fe244     1.0  0.43401  0.18661  0.08655  1.0000
  S   S484      1.0  0.43986  0.16271  0.09810  1.0000
  Fe  Fe245     1.0  0.41814  0.21860  0.08711  1.0000
  H   H1898     1.0  0.47785  0.17841  0.10116  1.0000
  S   S485      1.0  0.44558  0.19244  0.06281  1.0000
  Fe  Fe246     1.0  0.47531  0.08704  0.06622  1.0000
  Fe  Fe247     1.0  0.45692  0.07052  0.05831  1.0000
  S   S486      1.0  0.43799  0.07400  0.07811  1.0000
  S   S487      1.0  0.45192  0.05895  0.04323  1.0000
  S   S488      1.0  0.45774  0.09187  0.08603  1.0000
  Fe  Fe248     1.0  0.45606  0.06825  0.09082  1.0000
  S   S489      1.0  0.45429  0.05861  0.11539  1.0000
  Fe  Fe249     1.0  0.44145  0.09721  0.07174  1.0000
  S   S490      1.0  0.42258  0.11730  0.07325  1.0000
  S   S491      1.0  0.47491  0.06280  0.07170  1.0000
  S   S492      1.0  0.45907  0.09434  0.05121  1.0000
  H   H1899     1.0  0.66122  0.04639  0.21504  1.0000
  C   C1173     1.0  0.48989  0.01508  0.15250  1.0000
  C   C1174     1.0  0.48218  0.20812  0.13679  1.0000
  C   C1175     1.0  0.49029  0.20489  0.14777  1.0000
  C   C1176     1.0  0.65803  0.30587  0.14196  1.0000
  H   H1900     1.0  0.47486  0.19926  0.12249  1.0000
  H   H1901     1.0  0.47960  0.01305  0.16098  1.0000
  H   H1902     1.0  0.44977  0.06253  0.99225  1.0000
  H   H1903     1.0  0.45899  0.30688  0.12612  1.0000
  C   C1177     1.0  0.48019  0.06457  0.00279  1.0000
  C   C1178     1.0  0.41561  0.20833  0.01341  1.0000
  H   H1904     1.0  0.45886  0.20130  0.00651  1.0000
  C   C1179     1.0  0.45965  0.00855  0.13344  1.0000
  C   C1180     1.0  0.45537  0.01823  0.14304  1.0000
  C   C1181     1.0  0.45351  0.03359  0.13735  1.0000
  C   C1182     1.0  0.45608  0.03935  0.12203  1.0000
  C   C1183     1.0  0.46031  0.02969  0.11241  1.0000
  C   C1184     1.0  0.46203  0.01432  0.11812  1.0000
  H   H1905     1.0  0.45317  0.01392  0.15485  1.0000
  H   H1906     1.0  0.44992  0.04106  0.14482  1.0000
  H   H1907     1.0  0.46225  0.03408  0.10058  1.0000
  H   H1908     1.0  0.46524  0.00689  0.11063  1.0000
  S   S493      1.0  0.49279  0.21913  0.15433  1.0000
  H   H1909     1.0  0.50381  0.17232  0.07506  1.0000
  C   C1185     1.0  0.49265  0.08577  0.09287  1.0000
  H   H1910     1.0  0.46929  0.01324  0.00636  1.0000
  C   C1186     1.0  0.43504  0.15114  0.08989  1.0000
  C   C1187     1.0  0.41999  0.15160  0.09092  1.0000
  C   C1188     1.0  0.41619  0.14128  0.08561  1.0000
  C   C1189     1.0  0.42744  0.13058  0.07921  1.0000
  C   C1190     1.0  0.44249  0.13052  0.07766  1.0000
  C   C1191     1.0  0.44629  0.14069  0.08312  1.0000
  H   H1911     1.0  0.41127  0.15963  0.09621  1.0000
  H   H1912     1.0  0.40453  0.14138  0.08676  1.0000
  H   H1913     1.0  0.45124  0.12263  0.07225  1.0000
  H   H1914     1.0  0.45795  0.14031  0.08220  1.0000
  H   H1915     1.0  0.41933  0.20536  0.99126  1.0000
  C   C1192     1.0  0.65651  0.22786  0.09441  1.0000
  C   C1193     1.0  0.47404  0.06390  0.01796  1.0000
  H   H1916     1.0  0.49018  0.07715  0.11631  1.0000
  H   H1917     1.0  0.43212  0.25258  0.13621  1.0000
  H   H1918     1.0  0.65305  0.23141  0.98603  1.0000
  N   N119      1.0  0.48475  0.16288  0.08698  1.0000
  C   C1194     1.0  0.42228  0.20824  0.02466  1.0000
  H   H1919     1.0  0.48784  0.01550  0.14156  1.0000
  H   H1920     1.0  0.50142  0.16740  0.15144  1.0000
  C   C1195     1.0  0.43914  0.03075  0.99099  1.0000
  H   H1921     1.0  0.33071  0.30668  0.02632  1.0000
  H   H1922     1.0  0.46235  0.22748  0.08769  1.0000
  C   C1196     1.0  0.44012  0.20303  0.99731  1.0000
  C   C1197     1.0  0.47155  0.06389  0.99345  1.0000
  C   C1198     1.0  0.45664  0.06274  0.99935  1.0000
  C   C1199     1.0  0.45066  0.06155  0.01460  1.0000
  C   C1200     1.0  0.45933  0.06211  0.02397  1.0000
  H   H1923     1.0  0.63383  0.21641  0.12068  1.0000
  C   C1201     1.0  0.50080  0.16292  0.08424  1.0000
  H   H1924     1.0  0.43925  0.06020  0.01921  1.0000
  S   S494      1.0  0.46001  0.99237  0.18209  1.0000
  C   C1202     1.0  0.42452  0.20562  0.99979  1.0000
  H   H1925     1.0  0.61855  0.03138  0.22649  1.0000
  C   C1203     1.0  0.48832  0.18202  0.13604  1.0000
  C   C1204     1.0  0.44678  0.20326  0.00844  1.0000
  H   H1926     1.0  0.49173  0.06550  0.99831  1.0000
  Fe  Fe250     1.0  0.49300  0.25855  0.10779  1.0000
  C   C1205     1.0  0.49675  0.99654  0.20326  1.0000
  S   S495      1.0  0.47358  0.21450  0.06147  1.0000
  N   N120      1.0  0.42029  0.16324  0.03930  1.0000
  C   C1206     1.0  0.42484  0.16724  0.05087  1.0000
  C   C1207     1.0  0.41923  0.14751  0.04387  1.0000
  C   C1208     1.0  0.43155  0.16553  0.02527  1.0000
  C   C1209     1.0  0.40552  0.17267  0.03723  1.0000
  H   H1927     1.0  0.43553  0.15981  0.05335  1.0000
  H   H1928     1.0  0.41619  0.16644  0.06138  1.0000
  H   H1929     1.0  0.42644  0.17884  0.04747  1.0000
  H   H1930     1.0  0.41081  0.14537  0.05442  1.0000
  H   H1931     1.0  0.41585  0.14406  0.03542  1.0000
  H   H1932     1.0  0.43012  0.14000  0.04569  1.0000
  H   H1933     1.0  0.43269  0.17727  0.02155  1.0000
  H   H1934     1.0  0.42842  0.16281  0.01622  1.0000
  H   H1935     1.0  0.44281  0.15854  0.02646  1.0000
  H   H1936     1.0  0.40193  0.17034  0.02824  1.0000
  H   H1937     1.0  0.40575  0.18464  0.03432  1.0000
  H   H1938     1.0  0.39670  0.17091  0.04753  1.0000
  N   N121      1.0  0.44987  0.10874  0.12340  1.0000
  C   C1210     1.0  0.44621  0.11414  0.13717  1.0000
  C   C1211     1.0  0.43613  0.11191  0.11775  1.0000
  C   C1212     1.0  0.45619  0.09257  0.12647  1.0000
  C   C1213     1.0  0.46102  0.11640  0.11226  1.0000
  H   H1939     1.0  0.45639  0.11200  0.14166  1.0000
  H   H1940     1.0  0.43786  0.10856  0.14588  1.0000
  H   H1941     1.0  0.44143  0.12632  0.13523  1.0000
  H   H1942     1.0  0.43847  0.10809  0.10731  1.0000
  H   H1943     1.0  0.42749  0.10621  0.12581  1.0000
  H   H1944     1.0  0.43110  0.12402  0.11530  1.0000
  H   H1945     1.0  0.44794  0.08632  0.13444  1.0000
  H   H1946     1.0  0.46636  0.08983  0.13109  1.0000
  H   H1947     1.0  0.45956  0.08816  0.11625  1.0000
  H   H1948     1.0  0.47141  0.11443  0.11630  1.0000
  H   H1949     1.0  0.45653  0.12858  0.10964  1.0000
  H   H1950     1.0  0.48086  0.06417  0.02513  1.0000
  H   H1951     1.0  0.44307  0.20587  0.03075  1.0000
  H   H1952     1.0  0.46431  0.11244  0.10176  1.0000
  S   S496      1.0  0.66225  0.13879  0.07236  1.0000
  H   H1953     1.0  0.38647  0.22268  0.08629  1.0000
  C   C1214     1.0  0.47558  0.17690  0.09106  1.0000
  Fe  Fe251     1.0  0.33589  0.28592  0.07218  1.0000
  H   H1954     1.0  0.41808  0.30499  0.09220  1.0000
  H   H1955     1.0  0.65073  0.30257  0.20969  1.0000
  H   H1956     1.0  0.46925  0.14989  0.10158  1.0000
  H   H1957     1.0  0.50805  0.15243  0.08124  1.0000
  H   H1958     1.0  0.50363  0.16400  0.09429  1.0000
  C   C1215     1.0  0.64419  0.30266  0.14312  1.0000
  H   H1959     1.0  0.47678  0.21940  0.13273  1.0000
  S   S497      1.0  0.66076  0.10145  0.99433  1.0000
  H   H1960     1.0  0.44259  0.25936  0.11819  1.0000
  H   H1961     1.0  0.48799  0.13943  0.09649  1.0000
  H   H1962     1.0  0.49902  0.00521  0.15497  1.0000
  H   H1963     1.0  0.40355  0.21011  0.01533  1.0000
  C   C1216     1.0  0.49610  0.17872  0.14729  1.0000
  H   H1964     1.0  0.51815  0.00260  0.19714  1.0000
  C   C1217     1.0  0.49621  0.02776  0.16748  1.0000
  H   H1965     1.0  0.48357  0.15095  0.10960  1.0000
  H   H1966     1.0  0.46344  0.17712  0.09342  1.0000
  H   H1967     1.0  0.47472  0.99227  0.21216  1.0000
  S   S498      1.0  0.65669  0.19842  0.98865  1.0000
  C   C1218     1.0  0.46861  0.10387  0.98552  1.0000
  S   S499      1.0  0.42899  0.22707  0.06356  1.0000
  S   S500      1.0  0.61773  0.25145  0.12940  1.0000
  C   C1219     1.0  0.49703  0.19014  0.15319  1.0000
  H   H1968     1.0  0.48814  0.07731  0.09131  1.0000
  S   S501      1.0  0.48844  0.16831  0.12721  1.0000
  C   C1220     1.0  0.48127  0.15021  0.09917  1.0000
  C   C1221     1.0  0.48013  0.22610  0.06829  1.0000
  H   H1969     1.0  0.42255  0.26440  0.12213  1.0000
  S   S502      1.0  0.49554  0.12583  0.14920  1.0000
  H   H1970     1.0  0.48627  0.02549  0.17642  1.0000
  N   N122      1.0  0.49368  0.02890  0.15273  1.0000
  H   H1971     1.0  0.50582  0.01848  0.17005  1.0000
  C   C1222     1.0  0.47271  0.23075  0.08152  1.0000
  H   H1972     1.0  0.44325  0.24985  0.09699  1.0000
  H   H1973     1.0  0.45549  0.23278  0.11709  1.0000
  H   H1974     1.0  0.46693  0.99985  0.98865  1.0000
  S   S503      1.0  0.35188  0.30121  0.06284  1.0000
  S   S504      1.0  0.34454  0.26178  0.07190  1.0000
  C   C1223     1.0  0.50780  0.00231  0.20538  1.0000
  S   S505      1.0  0.44292  0.28304  0.13396  1.0000
  N   N123      1.0  0.37730  0.25053  0.03171  1.0000
  H   H1975     1.0  0.43785  0.04189  0.99309  1.0000
  C   C1224     1.0  0.43693  0.30222  0.13372  1.0000
  C   C1225     1.0  0.42155  0.30837  0.13774  1.0000
  S   S506      1.0  0.61330  0.30833  0.14950  1.0000
  H   H1976     1.0  0.41362  0.30124  0.14138  1.0000
  C   C1226     1.0  0.47889  0.23951  0.08676  1.0000
  H   H1977     1.0  0.38139  0.27179  0.03045  1.0000
  H   H1978     1.0  0.43293  0.23608  0.09911  1.0000
  H   H1979     1.0  0.35908  0.27459  0.08652  1.0000
  H   H1980     1.0  0.40778  0.24598  0.12430  1.0000
  H   H1981     1.0  0.39508  0.25541  0.01292  1.0000
  C   C1227     1.0  0.37348  0.23752  0.04323  1.0000
  H   H1982     1.0  0.36809  0.26645  0.01406  1.0000
  Fe  Fe252     1.0  0.48838  0.24192  0.13969  1.0000
  C   C1228     1.0  0.36560  0.25665  0.02295  1.0000
  H   H1983     1.0  0.38410  0.24205  0.99127  1.0000
  C   C1229     1.0  0.63074  0.20868  0.97887  1.0000
  H   H1984     1.0  0.41709  0.22716  0.12390  1.0000
  H   H1985     1.0  0.44337  0.12512  0.98740  1.0000
  H   H1986     1.0  0.35440  0.26026  0.03002  1.0000
  C   C1230     1.0  0.37786  0.25744  0.09245  1.0000
  C   C1231     1.0  0.36506  0.26329  0.08638  1.0000
  H   H1987     1.0  0.36365  0.23269  0.07625  1.0000
  S   S507      1.0  0.40228  0.23578  0.09912  1.0000
  H   H1988     1.0  0.44447  0.21957  0.11956  1.0000
  H   H1989     1.0  0.40103  0.24143  0.02819  1.0000
  S   S508      1.0  0.35730  0.26416  0.98781  1.0000
  C   C1232     1.0  0.41766  0.23722  0.12711  1.0000
  C   C1233     1.0  0.38071  0.23404  0.08618  1.0000
  C   C1234     1.0  0.45781  0.02002  0.00577  1.0000
  S   S509      1.0  0.47346  0.25030  0.12354  1.0000
  H   H1990     1.0  0.36458  0.24830  0.01750  1.0000
  C   C1235     1.0  0.66008  0.14822  0.11641  1.0000
  H   H1991     1.0  0.36716  0.26595  0.04594  1.0000
  H   H1992     1.0  0.65042  0.06178  0.17865  1.0000
  C   C1236     1.0  0.39194  0.24594  0.02192  1.0000
  C   C1237     1.0  0.43288  0.24582  0.10322  1.0000
  H   H1993     1.0  0.37301  0.22855  0.03830  1.0000
  Fe  Fe253     1.0  0.46773  0.27209  0.13040  1.0000
  H   H1994     1.0  0.42312  0.25463  0.10019  1.0000
  C   C1238     1.0  0.36006  0.25447  0.08025  1.0000
  S   S510      1.0  0.48090  0.26276  0.14825  1.0000
  H   H1995     1.0  0.38167  0.26432  0.09715  1.0000
  C   C1239     1.0  0.38585  0.24286  0.09215  1.0000
  C   C1240     1.0  0.45549  0.00696  0.98869  1.0000
  H   H1996     1.0  0.41633  0.23456  0.13932  1.0000
  C   C1241     1.0  0.36775  0.23975  0.08045  1.0000
  C   C1242     1.0  0.37815  0.26195  0.03880  1.0000
  H   H1997     1.0  0.39177  0.23709  0.01665  1.0000
  H   H1998     1.0  0.47318  0.24322  0.09682  1.0000
  S   S511      1.0  0.48652  0.28106  0.11340  1.0000
  H   H1999     1.0  0.44433  0.22666  0.13498  1.0000
  C   C1243     1.0  0.44460  0.22971  0.12291  1.0000
  N   N124      1.0  0.43186  0.24197  0.11936  1.0000
  C   C1244     1.0  0.37769  0.23805  0.98616  1.0000
  H   H2000     1.0  0.38645  0.25752  0.04600  1.0000
  H   H2001     1.0  0.65828  0.10977  0.02120  1.0000
  Fe  Fe254     1.0  0.53494  0.12896  0.12550  1.0000
  S   S512      1.0  0.52345  0.14198  0.14296  1.0000
  S   S513      1.0  0.55672  0.13459  0.11209  1.0000
  S   S514      1.0  0.53051  0.10718  0.13998  1.0000
  S   S515      1.0  0.51513  0.13424  0.11532  1.0000
  H   H2002     1.0  0.52719  0.18096  0.09426  1.0000
  C   C1245     1.0  0.48120  0.04163  0.14956  1.0000
  H   H2003     1.0  0.58396  0.03129  0.20786  1.0000
  H   H2004     1.0  0.47608  0.11100  0.98535  1.0000
  H   H2005     1.0  0.57793  0.31344  0.10923  1.0000
  Fe  Fe255     1.0  0.50935  0.11371  0.13141  1.0000
  S   S516      1.0  0.49931  0.09689  0.12745  1.0000
  Fe  Fe256     1.0  0.62172  0.13571  0.18203  1.0000
  S   S517      1.0  0.63306  0.12330  0.16407  1.0000
  S   S518      1.0  0.62692  0.12534  0.20443  1.0000
  Fe  Fe257     1.0  0.60530  0.16153  0.16195  1.0000
  S   S519      1.0  0.61503  0.15095  0.14239  1.0000
  S   S520      1.0  0.58986  0.18401  0.15756  1.0000
  Fe  Fe258     1.0  0.61049  0.13003  0.15846  1.0000
  S   S521      1.0  0.60173  0.11235  0.15471  1.0000
  Fe  Fe259     1.0  0.63660  0.14536  0.14982  1.0000
  S   S522      1.0  0.65905  0.14791  0.13492  1.0000
  S   S523      1.0  0.59872  0.14100  0.17750  1.0000
  S   S524      1.0  0.62729  0.15737  0.16831  1.0000
  N   N125      1.0  0.64417  0.05701  0.20246  1.0000
  C   C1246     1.0  0.36385  0.24668  0.98339  1.0000
  C   C1247     1.0  0.61876  0.11009  0.21402  1.0000
  H   H2006     1.0  0.44134  0.10009  0.98663  1.0000
  H   H2007     1.0  0.40219  0.31160  0.08369  1.0000
  C   C1248     1.0  0.60369  0.09290  0.21548  1.0000
  C   C1249     1.0  0.61034  0.10494  0.20752  1.0000
  H   H2008     1.0  0.59709  0.08902  0.21048  1.0000
  H   H2009     1.0  0.60888  0.11029  0.19641  1.0000
  H   H2010     1.0  0.65561  0.07323  0.20289  1.0000
  C   C1250     1.0  0.64714  0.15238  0.11074  1.0000
  C   C1251     1.0  0.64794  0.15061  0.09658  1.0000
  C   C1252     1.0  0.65410  0.05369  0.18842  1.0000
  H   H2011     1.0  0.63652  0.15693  0.11720  1.0000
  H   H2012     1.0  0.63790  0.15359  0.09229  1.0000
  C   C1253     1.0  0.38342  0.22433  0.98207  1.0000
  C   C1254     1.0  0.64963  0.04605  0.21504  1.0000
  H   H2013     1.0  0.47710  0.02269  0.97939  1.0000
  H   H2014     1.0  0.57429  0.13376  0.16522  1.0000
  H   H2015     1.0  0.62772  0.19285  0.12157  1.0000
  H   H2016     1.0  0.58398  0.30727  0.14699  1.0000
  C   C1255     1.0  0.65218  0.24040  0.10066  1.0000
  H   H2017     1.0  0.51059  0.04146  0.14124  1.0000
  H   H2018     1.0  0.46483  0.04032  0.98086  1.0000
  C   C1256     1.0  0.63763  0.21118  0.13122  1.0000
  H   H2019     1.0  0.50317  0.18755  0.16180  1.0000
  H   H2020     1.0  0.52397  0.25311  0.16109  1.0000
  S   S525      1.0  0.49471  0.09743  0.06322  1.0000
  C   C1257     1.0  0.59565  0.19793  0.16165  1.0000
  C   C1258     1.0  0.60371  0.19451  0.17269  1.0000
  C   C1259     1.0  0.60845  0.20570  0.17570  1.0000
  H   H2021     1.0  0.53822  0.09038  0.16838  1.0000
  H   H2022     1.0  0.60602  0.18329  0.17915  1.0000
  H   H2023     1.0  0.61455  0.20303  0.18436  1.0000
  C   C1260     1.0  0.64785  0.18853  0.14710  1.0000
  C   C1261     1.0  0.52082  0.09071  0.20425  1.0000
  H   H2024     1.0  0.66128  0.17993  0.12158  1.0000
  H   H2025     1.0  0.48396  0.17087  0.06398  1.0000
  H   H2026     1.0  0.64457  0.09768  0.09461  1.0000
  H   H2027     1.0  0.62523  0.20855  0.99033  1.0000
  H   H2028     1.0  0.59482  0.23502  0.15016  1.0000
  H   H2029     1.0  0.64259  0.11744  0.08900  1.0000
  C   C1262     1.0  0.52094  0.19722  0.11456  1.0000
  H   H2030     1.0  0.58465  0.30005  0.12428  1.0000
  C   C1263     1.0  0.56952  0.12839  0.12357  1.0000
  C   C1264     1.0  0.57677  0.13833  0.12541  1.0000
  C   C1265     1.0  0.58653  0.13353  0.13512  1.0000
  C   C1266     1.0  0.58950  0.11865  0.14256  1.0000
  C   C1267     1.0  0.58247  0.10865  0.14049  1.0000
  C   C1268     1.0  0.57225  0.11358  0.13123  1.0000
  H   H2031     1.0  0.57453  0.14983  0.11959  1.0000
  H   H2032     1.0  0.59173  0.14137  0.13680  1.0000
  H   H2033     1.0  0.58468  0.09714  0.14625  1.0000
  H   H2034     1.0  0.56661  0.10589  0.12984  1.0000
  H   H2035     1.0  0.48780  0.15095  0.07015  1.0000
  H   H2036     1.0  0.47910  0.04289  0.13842  1.0000
  C   C1269     1.0  0.49733  0.09671  0.08076  1.0000
  C   C1270     1.0  0.44711  0.31149  0.12922  1.0000
  H   H2037     1.0  0.64989  0.03454  0.21459  1.0000
  H   H2038     1.0  0.56595  0.12913  0.19805  1.0000
  H   H2039     1.0  0.64390  0.29250  0.14061  1.0000
  S   S526      1.0  0.50853  0.24854  0.12343  1.0000
  C   C1271     1.0  0.53755  0.06680  0.20225  1.0000
  C   C1272     1.0  0.64403  0.10885  0.11755  1.0000
  Fe  Fe260     1.0  0.51709  0.12070  0.15672  1.0000
  N   N126      1.0  0.64336  0.19499  0.13277  1.0000
  C   C1273     1.0  0.59246  0.21256  0.15353  1.0000
  H   H2040     1.0  0.60110  0.31631  0.12357  1.0000
  C   C1274     1.0  0.49387  0.08566  0.10703  1.0000
  N   N127      1.0  0.53903  0.23271  0.15685  1.0000
  H   H2041     1.0  0.50940  0.11559  0.09868  1.0000
  C   C1275     1.0  0.50358  0.10736  0.08284  1.0000
  S   S527      1.0  0.51719  0.11444  0.18105  1.0000
  H   H2042     1.0  0.62415  0.06450  0.19385  1.0000
  H   H2043     1.0  0.64825  0.22408  0.09150  1.0000
  H   H2044     1.0  0.62794  0.21379  0.14043  1.0000
  C   C1276     1.0  0.57607  0.31030  0.12151  1.0000
  H   H2045     1.0  0.38197  0.23273  0.05021  1.0000
  Fe  Fe261     1.0  0.63450  0.26541  0.12461  1.0000
  H   H2046     1.0  0.62840  0.04501  0.20204  1.0000
  H   H2047     1.0  0.65338  0.19644  0.10964  1.0000
  Fe  Fe262     1.0  0.34102  0.30964  0.08361  1.0000
  H   H2048     1.0  0.61006  0.12438  0.10880  1.0000
  C   C1277     1.0  0.64415  0.07209  0.20343  1.0000
  H   H2049     1.0  0.36237  0.24059  0.05068  1.0000
  H   H2050     1.0  0.55619  0.21261  0.15653  1.0000
  H   H2051     1.0  0.54199  0.19043  0.09086  1.0000
  C   C1278     1.0  0.50742  0.03112  0.14136  1.0000
  H   H2052     1.0  0.55327  0.10351  0.18390  1.0000
  C   C1279     1.0  0.66161  0.14420  0.08837  1.0000
  H   H2053     1.0  0.52239  0.22043  0.17045  1.0000
  Fe  Fe263     1.0  0.50318  0.14587  0.13386  1.0000
  H   H2054     1.0  0.50735  0.11574  0.07347  1.0000
  H   H2055     1.0  0.65562  0.03852  0.00307  1.0000
  C   C1280     1.0  0.62875  0.05618  0.20301  1.0000
  N   N128      1.0  0.51996  0.20277  0.09887  1.0000
  H   H2056     1.0  0.64230  0.04807  0.22583  1.0000
  H   H2057     1.0  0.44972  0.01460  0.01498  1.0000
  N   N129      1.0  0.55670  0.12520  0.18191  1.0000
  C   C1281     1.0  0.55753  0.11274  0.17537  1.0000
  H   H2058     1.0  0.51687  0.22558  0.09967  1.0000
  H   H2059     1.0  0.50059  0.19392  0.10217  1.0000
  S   S528      1.0  0.50111  0.25404  0.08488  1.0000
  H   H2060     1.0  0.51424  0.01184  0.21978  1.0000
  H   H2061     1.0  0.52392  0.07224  0.22275  1.0000
  H   H2062     1.0  0.65227  0.17631  0.14860  1.0000
  H   H2063     1.0  0.55605  0.14082  0.16108  1.0000
  H   H2064     1.0  0.50334  0.20841  0.08587  1.0000
  C   C1282     1.0  0.53354  0.24472  0.16508  1.0000
  H   H2065     1.0  0.52337  0.22200  0.08148  1.0000
  H   H2066     1.0  0.46920  0.16183  0.07512  1.0000
  C   C1283     1.0  0.49243  0.24361  0.07876  1.0000
  H   H2067     1.0  0.56411  0.31408  0.14925  1.0000
  H   H2068     1.0  0.53615  0.12173  0.19744  1.0000
  H   H2069     1.0  0.54797  0.21659  0.17453  1.0000
  H   H2070     1.0  0.61397  0.09753  0.11568  1.0000
  Fe  Fe264     1.0  0.65497  0.00160  0.19683  1.0000
  H   H2071     1.0  0.49939  0.22667  0.05018  1.0000
  H   H2072     1.0  0.49650  0.21291  0.10368  1.0000
  H   H2073     1.0  0.62721  0.10931  0.09060  1.0000
  H   H2074     1.0  0.64029  0.10975  0.12934  1.0000
  H   H2075     1.0  0.66139  0.03649  0.15619  1.0000
  H   H2076     1.0  0.53025  0.21642  0.15242  1.0000
  C   C1284     1.0  0.54431  0.23905  0.14099  1.0000
  H   H2077     1.0  0.63173  0.08623  0.11913  1.0000
  H   H2078     1.0  0.62152  0.18999  0.14129  1.0000
  C   C1285     1.0  0.60536  0.22031  0.16753  1.0000
  H   H2079     1.0  0.63553  0.17596  0.13321  1.0000
  H   H2080     1.0  0.56098  0.14721  0.17457  1.0000
  H   H2081     1.0  0.65236  0.09816  0.11709  1.0000
  C   C1286     1.0  0.63663  0.10847  0.09570  1.0000
  H   H2082     1.0  0.56926  0.10813  0.17009  1.0000
  H   H2083     1.0  0.54974  0.06485  0.18017  1.0000
  C   C1287     1.0  0.48132  0.16154  0.07345  1.0000
  H   H2084     1.0  0.62529  0.13337  0.10521  1.0000
  C   C1288     1.0  0.54097  0.13075  0.18904  1.0000
  H   H2085     1.0  0.53600  0.21642  0.09380  1.0000
  C   C1289     1.0  0.62388  0.09717  0.11984  1.0000
  S   S529      1.0  0.63160  0.26615  0.14822  1.0000
  H   H2086     1.0  0.53253  0.19565  0.11595  1.0000
  H   H2087     1.0  0.55068  0.11623  0.16682  1.0000
  C   C1290     1.0  0.48336  0.99637  0.21391  1.0000
  C   C1291     1.0  0.62042  0.12384  0.11233  1.0000
  H   H2088     1.0  0.64988  0.11803  0.11134  1.0000
  C   C1292     1.0  0.49362  0.23020  0.06042  1.0000
  S   S530      1.0  0.61180  0.23402  0.17125  1.0000
  C   C1293     1.0  0.50442  0.20455  0.09759  1.0000
  H   H2089     1.0  0.51344  0.20510  0.12145  1.0000
  H   H2090     1.0  0.55340  0.24499  0.13921  1.0000
  S   S531      1.0  0.63160  0.01031  0.20813  1.0000
  H   H2091     1.0  0.56095  0.22701  0.16163  1.0000
  H   H2092     1.0  0.61990  0.09752  0.13175  1.0000
  C   C1294     1.0  0.48120  0.00150  0.22681  1.0000
  H   H2093     1.0  0.59721  0.01379  0.20771  1.0000
  H   H2094     1.0  0.45724  0.03099  0.00791  1.0000
  C   C1295     1.0  0.52465  0.09586  0.18888  1.0000
  S   S532      1.0  0.45134  0.19891  0.98058  1.0000
  N   N130      1.0  0.63124  0.10958  0.11135  1.0000
  H   H2095     1.0  0.61705  0.12552  0.12383  1.0000
  C   C1296     1.0  0.53504  0.08646  0.18021  1.0000
  H   H2096     1.0  0.48363  0.05224  0.14974  1.0000
  C   C1297     1.0  0.55156  0.22175  0.16263  1.0000
  C   C1298     1.0  0.54162  0.07203  0.18691  1.0000
  H   H2097     1.0  0.51761  0.18634  0.11926  1.0000
  H   H2098     1.0  0.53992  0.13977  0.19461  1.0000
  C   C1299     1.0  0.49966  0.23899  0.06554  1.0000
  S   S533      1.0  0.54597  0.04873  0.21049  1.0000
  H   H2099     1.0  0.39408  0.21767  0.98425  1.0000
  H   H2100     1.0  0.56213  0.11093  0.20210  1.0000
  H   H2101     1.0  0.57800  0.11555  0.18795  1.0000
  H   H2102     1.0  0.52966  0.19588  0.07826  1.0000
  H   H2103     1.0  0.53375  0.13524  0.18079  1.0000
  C   C1300     1.0  0.52708  0.07616  0.21090  1.0000
  H   H2104     1.0  0.54875  0.23032  0.13442  1.0000
  C   C1301     1.0  0.65646  0.19204  0.12060  1.0000
  C   C1302     1.0  0.56608  0.11998  0.19302  1.0000
  H   H2105     1.0  0.58640  0.21522  0.14484  1.0000
  H   H2106     1.0  0.51283  0.09794  0.21102  1.0000
  C   C1303     1.0  0.53015  0.19204  0.09016  1.0000
  H   H2107     1.0  0.51698  0.23347  0.15455  1.0000
  H   H2108     1.0  0.60040  0.02738  0.21517  1.0000
  H   H2109     1.0  0.57606  0.00115  0.22091  1.0000
  C   C1304     1.0  0.50471  0.10730  0.09709  1.0000
  H   H2110     1.0  0.63979  0.08073  0.19430  1.0000
  C   C1305     1.0  0.56222  0.13730  0.17018  1.0000
  H   H2111     1.0  0.51004  0.24220  0.05923  1.0000
  C   C1306     1.0  0.49968  0.09653  0.10923  1.0000
  C   C1307     1.0  0.52429  0.21728  0.09321  1.0000
  H   H2112     1.0  0.43057  0.02538  0.99958  1.0000
  H   H2113     1.0  0.50586  0.03206  0.13008  1.0000
  C   C1308     1.0  0.59735  0.22374  0.15643  1.0000
  H   H2114     1.0  0.49869  0.03811  0.16827  1.0000
  H   H2115     1.0  0.54247  0.25070  0.16374  1.0000
  H   H2116     1.0  0.51706  0.02170  0.14339  1.0000
  Fe  Fe265     1.0  0.50028  0.27007  0.13077  1.0000
  C   C1309     1.0  0.52668  0.22541  0.15865  1.0000
  H   H2117     1.0  0.52958  0.24036  0.17711  1.0000
  S   S534      1.0  0.59528  0.27493  0.15004  1.0000
  S   S535      1.0  0.51491  0.27907  0.13954  1.0000
  S   S536      1.0  0.61828  0.28690  0.11917  1.0000
  N   N131      1.0  0.45446  0.02170  0.99125  1.0000
  Fe  Fe266     1.0  0.60088  0.27307  0.12634  1.0000
  S   S537      1.0  0.58428  0.27606  0.11236  1.0000
  C   C1310     1.0  0.57512  0.31718  0.14399  1.0000
  H   H2118     1.0  0.65424  0.04242  0.18732  1.0000
  H   H2119     1.0  0.65141  0.05034  0.13388  1.0000
  H   H2120     1.0  0.53505  0.24721  0.13627  1.0000
  Fe  Fe267     1.0  0.61324  0.25408  0.15264  1.0000
  C   C1311     1.0  0.53424  0.27772  0.13192  1.0000
  C   C1312     1.0  0.54338  0.27891  0.14051  1.0000
  C   C1313     1.0  0.55885  0.27783  0.13485  1.0000
  C   C1314     1.0  0.56520  0.27603  0.12037  1.0000
  C   C1315     1.0  0.55607  0.27480  0.11179  1.0000
  C   C1316     1.0  0.54066  0.27546  0.11760  1.0000
  H   H2121     1.0  0.53845  0.28065  0.15161  1.0000
  H   H2122     1.0  0.56577  0.27875  0.14158  1.0000
  H   H2123     1.0  0.56091  0.27344  0.10056  1.0000
  H   H2124     1.0  0.53369  0.27459  0.11087  1.0000
  C   C1317     1.0  0.63082  0.31250  0.14759  1.0000
  H   H2125     1.0  0.64061  0.24635  0.10244  1.0000
  Fe  Fe268     1.0  0.61429  0.28693  0.14320  1.0000
  H   H2126     1.0  0.43634  0.03246  0.98007  1.0000
  C   C1318     1.0  0.50563  0.00749  0.21826  1.0000
  H   H2127     1.0  0.40117  0.30829  0.11642  1.0000
  H   H2128     1.0  0.62101  0.05837  0.21360  1.0000
  H   H2129     1.0  0.64639  0.21677  0.13129  1.0000
  C   C1319     1.0  0.46539  0.02909  0.97945  1.0000
  S   S538      1.0  0.35260  0.31283  0.09941  1.0000
  H   H2130     1.0  0.65264  0.05865  0.01591  1.0000
  S   S539      1.0  0.65819  0.26123  0.11159  1.0000
  H   H2131     1.0  0.65676  0.19348  0.14795  1.0000
  S   S540      1.0  0.49983  0.98981  0.18715  1.0000
  H   H2132     1.0  0.65367  0.29571  0.18561  1.0000
  H   H2133     1.0  0.56330  0.01880  0.22128  1.0000
  H   H2134     1.0  0.44741  0.00102  0.99737  1.0000
  H   H2135     1.0  0.47591  0.09302  0.98363  1.0000
  H   H2136     1.0  0.63818  0.19049  0.15654  1.0000
  H   H2137     1.0  0.46141  0.10178  0.99685  1.0000
  C   C1320     1.0  0.57130  0.01003  0.22729  1.0000
  C   C1321     1.0  0.63323  0.00992  0.22581  1.0000
  H   H2138     1.0  0.63690  0.07482  0.21401  1.0000
  H   H2139     1.0  0.56494  0.30728  0.12584  1.0000
  C   C1322     1.0  0.59154  0.02243  0.21430  1.0000
  H   H2140     1.0  0.66057  0.06990  0.99888  1.0000
  C   C1323     1.0  0.41084  0.31516  0.08683  1.0000
  H   H2141     1.0  0.38538  0.31487  0.10768  1.0000
  Fe  Fe269     1.0  0.33261  0.31698  0.05374  1.0000
  C   C1324     1.0  0.66213  0.05136  0.13478  1.0000
  C   C1325     1.0  0.66246  0.30412  0.20587  1.0000
  H   H2142     1.0  0.42858  0.99081  0.26906  1.0000
  H   H2143     1.0  0.45689  0.00216  0.29255  1.0000
  H   H2144     1.0  0.52260  0.99647  0.32010  1.0000
  S   S541      1.0  0.61377  0.99884  0.40436  1.0000
  S   S542      1.0  0.59713  0.07093  0.23971  1.0000
  H   H2145     1.0  0.35533  0.01041  0.30605  1.0000
  N   N132      1.0  0.41090  0.00654  0.25962  1.0000
  H   H2146     1.0  0.38851  0.99106  0.44456  1.0000
  H   H2147     1.0  0.47693  0.99713  0.30635  1.0000
  H   H2148     1.0  0.57907  0.00181  0.46620  1.0000
  C   C1326     1.0  0.41976  0.00785  0.24425  1.0000
  C   C1327     1.0  0.65600  0.00826  0.35267  1.0000
  H   H2149     1.0  0.56401  0.08206  0.27362  1.0000
  C   C1328     1.0  0.40090  0.02102  0.26153  1.0000
  C   C1329     1.0  0.53098  0.98896  0.31334  1.0000
  H   H2150     1.0  0.53318  0.06223  0.28294  1.0000
  C   C1330     1.0  0.40178  0.99538  0.26289  1.0000
  C   C1331     1.0  0.65750  0.01341  0.42018  1.0000
  C   C1332     1.0  0.64886  0.07134  0.38374  1.0000
  H   H2151     1.0  0.55978  0.01548  0.43466  1.0000
  H   H2152     1.0  0.58498  0.03280  0.23895  1.0000
  H   H2153     1.0  0.57896  0.03026  0.42339  1.0000
  H   H2154     1.0  0.63752  0.04131  0.40799  1.0000
  H   H2155     1.0  0.52199  0.05525  0.33366  1.0000
  C   C1333     1.0  0.64283  0.99806  0.23314  1.0000
  H   H2156     1.0  0.64875  0.99268  0.33076  1.0000
  H   H2157     1.0  0.60219  0.00836  0.23917  1.0000
  S   S543      1.0  0.48957  0.01259  0.24582  1.0000
  C   C1334     1.0  0.42115  0.00188  0.26989  1.0000
  C   C1335     1.0  0.62572  0.02205  0.23218  1.0000
  H   H2158     1.0  0.65173  0.98880  0.29280  1.0000
  H   H2159     1.0  0.52490  0.03604  0.33370  1.0000
  H   H2160     1.0  0.62726  0.10694  0.23340  1.0000
  H   H2161     1.0  0.39061  0.99044  0.41856  1.0000
  C   C1336     1.0  0.37498  0.99490  0.33315  1.0000
  H   H2162     1.0  0.64337  0.08060  0.31156  1.0000
  S   S544      1.0  0.38091  0.01663  0.46048  1.0000
  Fe  Fe270     1.0  0.40284  0.01423  0.46643  1.0000
  S   S545      1.0  0.42303  0.02268  0.45137  1.0000
  C   C1337     1.0  0.43430  0.01355  0.43722  1.0000
  C   C1338     1.0  0.43239  0.99993  0.43644  1.0000
  C   C1339     1.0  0.45314  0.99907  0.41480  1.0000
  C   C1340     1.0  0.45504  0.01270  0.41557  1.0000
  C   C1341     1.0  0.44570  0.01987  0.42683  1.0000
  H   H2163     1.0  0.46370  0.01772  0.40751  1.0000
  H   H2164     1.0  0.44723  0.03041  0.42738  1.0000
  C   C1342     1.0  0.62846  0.05978  0.34442  1.0000
  Fe  Fe271     1.0  0.48251  0.99879  0.38233  1.0000
  C   C1343     1.0  0.34025  0.03605  0.46493  1.0000
  H   H2165     1.0  0.39488  0.99415  0.27440  1.0000
  H   H2166     1.0  0.35192  0.03393  0.45944  1.0000
  H   H2167     1.0  0.62983  0.05321  0.39277  1.0000
  H   H2168     1.0  0.57181  0.98854  0.36863  1.0000
  C   C1344     1.0  0.34822  0.99846  0.34355  1.0000
  C   C1345     1.0  0.36297  0.99384  0.34545  1.0000
  C   C1346     1.0  0.34549  0.00468  0.32935  1.0000
  C   C1347     1.0  0.59343  0.00410  0.23711  1.0000
  C   C1348     1.0  0.55743  0.08489  0.26494  1.0000
  H   H2169     1.0  0.39400  0.99845  0.25527  1.0000
  H   H2170     1.0  0.33409  0.00836  0.32784  1.0000
  H   H2171     1.0  0.56738  0.05566  0.27366  1.0000
  H   H2172     1.0  0.39299  0.02489  0.25396  1.0000
  C   C1349     1.0  0.65765  0.99284  0.35671  1.0000
  C   C1350     1.0  0.46735  0.98641  0.34037  1.0000
  S   S546      1.0  0.47675  0.00968  0.36013  1.0000
  H   H2173     1.0  0.49829  0.02822  0.32454  1.0000
  C   C1351     1.0  0.49239  0.00691  0.22914  1.0000
  C   C1352     1.0  0.37225  0.00069  0.31891  1.0000
  C   C1353     1.0  0.35749  0.00585  0.31704  1.0000
  H   H2174     1.0  0.54800  0.07873  0.24378  1.0000
  C   C1354     1.0  0.49550  0.05078  0.32615  1.0000
  H   H2175     1.0  0.52060  0.03039  0.36129  1.0000
  H   H2176     1.0  0.55159  0.04942  0.35443  1.0000
  H   H2177     1.0  0.65270  0.06432  0.41159  1.0000
  H   H2178     1.0  0.62937  0.06050  0.40810  1.0000
  H   H2179     1.0  0.57434  0.03807  0.43933  1.0000
  S   S547      1.0  0.38718  0.00061  0.30340  1.0000
  C   C1355     1.0  0.63630  0.05270  0.40092  1.0000
  C   C1356     1.0  0.54789  0.01443  0.39496  1.0000
  C   C1357     1.0  0.58791  0.00191  0.43724  1.0000
  H   H2180     1.0  0.55501  0.04992  0.26655  1.0000
  H   H2181     1.0  0.42754  0.99713  0.24259  1.0000
  Fe  Fe272     1.0  0.51619  0.99738  0.37002  1.0000
  H   H2182     1.0  0.65157  0.98884  0.25296  1.0000
  H   H2183     1.0  0.45966  0.99239  0.27826  1.0000
  H   H2184     1.0  0.58569  0.00280  0.42626  1.0000
  Fe  Fe273     1.0  0.53553  0.01563  0.26017  1.0000
  S   S548      1.0  0.53753  0.03924  0.25303  1.0000
  S   S549      1.0  0.55374  0.00065  0.27137  1.0000
  C   C1358     1.0  0.54068  0.07745  0.25509  1.0000
  H   H2185     1.0  0.45173  0.00093  0.46341  1.0000
  H   H2186     1.0  0.53232  0.08808  0.25581  1.0000
  C   C1359     1.0  0.42399  0.99309  0.39254  1.0000
  Fe  Fe274     1.0  0.59048  0.04462  0.29267  1.0000
  S   S550      1.0  0.59378  0.06788  0.28283  1.0000
  S   S551      1.0  0.56798  0.04028  0.30554  1.0000
  H   H2187     1.0  0.42083  0.98711  0.36787  1.0000
  S   S552      1.0  0.62700  0.05280  0.26516  1.0000
  Fe  Fe275     1.0  0.61686  0.05824  0.28748  1.0000
  S   S553      1.0  0.63026  0.06948  0.29491  1.0000
  Fe  Fe276     1.0  0.60358  0.06008  0.26160  1.0000
  H   H2188     1.0  0.42685  0.00165  0.38238  1.0000
  S   S554      1.0  0.59845  0.03763  0.27115  1.0000
  H   H2189     1.0  0.58429  0.00019  0.38038  1.0000
  N   N133      1.0  0.65105  0.05637  0.39348  1.0000
  H   H2190     1.0  0.46768  0.99739  0.34086  1.0000
  C   C1360     1.0  0.58127  0.01247  0.45870  1.0000
  H   H2191     1.0  0.61560  0.08561  0.24742  1.0000
  C   C1361     1.0  0.62929  0.06564  0.31402  1.0000
  H   H2192     1.0  0.55758  0.02679  0.33541  1.0000
  Fe  Fe277     1.0  0.51289  0.04443  0.26235  1.0000
  C   C1362     1.0  0.55736  0.01069  0.28212  1.0000
  C   C1363     1.0  0.57168  0.00784  0.28482  1.0000
  C   C1364     1.0  0.57481  0.01654  0.29259  1.0000
  C   C1365     1.0  0.56357  0.02796  0.29784  1.0000
  C   C1366     1.0  0.54902  0.03019  0.29592  1.0000
  C   C1367     1.0  0.54599  0.02176  0.28783  1.0000
  H   H2193     1.0  0.58049  0.99922  0.28053  1.0000
  H   H2194     1.0  0.58599  0.01452  0.29438  1.0000
  H   H2195     1.0  0.54020  0.03883  0.30011  1.0000
  H   H2196     1.0  0.53480  0.02387  0.28600  1.0000
  C   C1368     1.0  0.44543  0.99445  0.47352  1.0000
  S   S555      1.0  0.50575  0.06223  0.27545  1.0000
  C   C1369     1.0  0.63657  0.06991  0.33440  1.0000
  H   H2197     1.0  0.50429  0.03397  0.29705  1.0000
  N   N134      1.0  0.54949  0.07313  0.26663  1.0000
  H   H2198     1.0  0.64564  0.01542  0.35687  1.0000
  H   H2199     1.0  0.41202  0.99687  0.39784  1.0000
  S   S556      1.0  0.53193  0.01500  0.23841  1.0000
  C   C1370     1.0  0.50198  0.04271  0.30289  1.0000
  H   H2200     1.0  0.56844  0.06021  0.25410  1.0000
  H   H2201     1.0  0.62292  0.03229  0.24997  1.0000
  H   H2202     1.0  0.43443  0.99518  0.47119  1.0000
  S   S557      1.0  0.61276  0.03554  0.29912  1.0000
  H   H2203     1.0  0.54323  0.01724  0.34683  1.0000
  H   H2204     1.0  0.41482  0.00110  0.28156  1.0000
  H   H2205     1.0  0.53420  0.06902  0.25630  1.0000
  H   H2206     1.0  0.59332  0.02883  0.43281  1.0000
  H   H2207     1.0  0.53546  0.99596  0.30261  1.0000
  C   C1371     1.0  0.55061  0.98949  0.32443  1.0000
  Fe  Fe278     1.0  0.50751  0.02236  0.24828  1.0000
  C   C1372     1.0  0.56057  0.05911  0.26512  1.0000
  H   H2208     1.0  0.55953  0.00354  0.45270  1.0000
  H   H2209     1.0  0.42367  0.99495  0.44442  1.0000
  C   C1373     1.0  0.63708  0.07274  0.31924  1.0000
  H   H2210     1.0  0.40739  0.02970  0.25928  1.0000
  Fe  Fe279     1.0  0.62113  0.03089  0.27647  1.0000
  H   H2211     1.0  0.49377  0.98739  0.26966  1.0000
  C   C1374     1.0  0.64444  0.99815  0.24714  1.0000
  C   C1375     1.0  0.32958  0.03408  0.45861  1.0000
  S   S558      1.0  0.50707  0.04680  0.24061  1.0000
  C   C1376     1.0  0.62794  0.02244  0.24572  1.0000
  S   S559      1.0  0.63784  0.01052  0.27130  1.0000
  H   H2212     1.0  0.53882  0.04630  0.32277  1.0000
  H   H2213     1.0  0.47025  0.00607  0.27540  1.0000
  C   C1377     1.0  0.63684  0.01033  0.25350  1.0000
  H   H2214     1.0  0.54557  0.06766  0.29040  1.0000
  Fe  Fe280     1.0  0.49677  0.99318  0.35153  1.0000
  H   H2215     1.0  0.49009  0.00107  0.28913  1.0000
  C   C1378     1.0  0.53931  0.07104  0.28139  1.0000
  H   H2216     1.0  0.53068  0.08133  0.28294  1.0000
  H   H2217     1.0  0.65616  0.00995  0.41099  1.0000
  S   S560      1.0  0.51114  0.02066  0.27091  1.0000
  C   C1379     1.0  0.61415  0.09091  0.23629  1.0000
  C   C1380     1.0  0.58134  0.02849  0.43449  1.0000
  H   H2218     1.0  0.55471  0.02298  0.35513  1.0000
  H   H2219     1.0  0.64295  0.07188  0.37506  1.0000
  C   C1381     1.0  0.50193  0.05735  0.29495  1.0000
  H   H2220     1.0  0.49866  0.07994  0.29661  1.0000
  C   C1382     1.0  0.49882  0.06859  0.30265  1.0000
  C   C1383     1.0  0.49866  0.03944  0.31849  1.0000
  H   H2221     1.0  0.42847  0.00985  0.26753  1.0000
  C   C1384     1.0  0.53064  0.04473  0.33349  1.0000
  H   H2222     1.0  0.54272  0.99659  0.33187  1.0000
  Fe  Fe281     1.0  0.62128  0.03560  0.37735  1.0000
  H   H2223     1.0  0.55469  0.05338  0.33462  1.0000
  C   C1385     1.0  0.49567  0.06532  0.31814  1.0000
  H   H2224     1.0  0.59322  0.01250  0.45771  1.0000
  C   C1386     1.0  0.57218  0.00242  0.38257  1.0000
  N   N135      1.0  0.53798  0.04062  0.34611  1.0000
  H   H2225     1.0  0.61485  0.05021  0.32014  1.0000
  H   H2226     1.0  0.56548  0.08648  0.25403  1.0000
  H   H2227     1.0  0.41245  0.01107  0.23616  1.0000
  C   C1387     1.0  0.54080  0.00794  0.38820  1.0000
  C   C1388     1.0  0.52650  0.03928  0.36007  1.0000
  H   H2228     1.0  0.52870  0.01006  0.39047  1.0000
  S   S561      1.0  0.51284  0.00771  0.34706  1.0000
  H   H2229     1.0  0.61421  0.04499  0.34689  1.0000
  Fe  Fe282     1.0  0.59726  0.01792  0.39412  1.0000
  S   S562      1.0  0.60552  0.03513  0.39942  1.0000
  S   S563      1.0  0.57213  0.01975  0.40110  1.0000
  Fe  Fe283     1.0  0.62873  0.00258  0.38168  1.0000
  S   S564      1.0  0.63948  0.01816  0.38657  1.0000
  S   S565      1.0  0.33313  0.99573  0.35864  1.0000
  Fe  Fe284     1.0  0.62297  0.01626  0.40823  1.0000
  S   S566      1.0  0.62681  0.01686  0.43022  1.0000
  H   H2230     1.0  0.65475  0.05314  0.27519  1.0000
  H   H2231     1.0  0.43094  0.99284  0.40019  1.0000
  S   S567      1.0  0.61150  0.02018  0.37106  1.0000
  C   C1389     1.0  0.56509  0.99580  0.37596  1.0000
  C   C1390     1.0  0.33411  0.99633  0.47096  1.0000
  C   C1391     1.0  0.65320  0.99319  0.31869  1.0000
  H   H2232     1.0  0.42672  0.01625  0.24133  1.0000
  C   C1392     1.0  0.64503  0.01704  0.43133  1.0000
  C   C1393     1.0  0.64704  0.02117  0.44339  1.0000
  S   S568      1.0  0.49191  0.04721  0.34565  1.0000
  H   H2233     1.0  0.63746  0.02394  0.45210  1.0000
  C   C1394     1.0  0.62110  0.05555  0.32402  1.0000
  C   C1395     1.0  0.56360  0.01168  0.39219  1.0000
  C   C1396     1.0  0.44186  0.99268  0.42532  1.0000
  C   C1397     1.0  0.46548  0.99705  0.28385  1.0000
  H   H2234     1.0  0.54118  0.02156  0.40241  1.0000
  S   S569      1.0  0.62792  0.05668  0.36338  1.0000
  C   C1398     1.0  0.54885  0.02628  0.34585  1.0000
  C   C1399     1.0  0.62077  0.05256  0.33921  1.0000
  N   N136      1.0  0.57819  0.01426  0.44404  1.0000
  H   H2235     1.0  0.39404  0.02030  0.27306  1.0000
  Fe  Fe285     1.0  0.53178  0.03933  0.23218  1.0000
  H   H2236     1.0  0.49318  0.07415  0.32395  1.0000
  C   C1400     1.0  0.54591  0.05219  0.34505  1.0000
  S   S570      1.0  0.49753  0.01408  0.38048  1.0000
  H   H2237     1.0  0.51776  0.04973  0.36045  1.0000
  H   H2238     1.0  0.53804  0.06317  0.34519  1.0000
  H   H2239     1.0  0.64248  0.07559  0.33835  1.0000
  H   H2240     1.0  0.53154  0.03653  0.36986  1.0000
  H   H2241     1.0  0.36516  0.98971  0.35641  1.0000
  C   C1401     1.0  0.54939  0.99853  0.37873  1.0000
  Fe  Fe286     1.0  0.49337  0.02331  0.35741  1.0000
  S   S571      1.0  0.54101  0.99034  0.36981  1.0000
  H   H2242     1.0  0.54947  0.09571  0.26581  1.0000
  H   H2243     1.0  0.64199  0.07990  0.39008  1.0000
  H   H2244     1.0  0.65806  0.02624  0.27848  1.0000
  C   C1402     1.0  0.56232  0.01416  0.44564  1.0000
  H   H2245     1.0  0.44180  0.02283  0.47425  1.0000
  Fe  Fe287     1.0  0.38115  0.99399  0.47532  1.0000
  H   H2246     1.0  0.57003  0.02342  0.24877  1.0000
  S   S572      1.0  0.46451  0.98964  0.40090  1.0000
  H   H2247     1.0  0.64541  0.00230  0.31275  1.0000
  H   H2248     1.0  0.38634  0.99149  0.33472  1.0000
  C   C1403     1.0  0.57633  0.02788  0.23752  1.0000
  H   H2249     1.0  0.64870  0.03751  0.30058  1.0000
  H   H2250     1.0  0.58727  0.99879  0.24808  1.0000
  C   C1404     1.0  0.48492  0.99214  0.29723  1.0000
  H   H2251     1.0  0.55461  0.02338  0.45066  1.0000
  H   H2252     1.0  0.57417  0.02163  0.46416  1.0000
  H   H2253     1.0  0.33318  0.03016  0.44842  1.0000
  H   H2254     1.0  0.65428  0.04535  0.37592  1.0000
  H   H2255     1.0  0.44323  0.99080  0.34517  1.0000
  H   H2256     1.0  0.34008  0.98708  0.46524  1.0000
  H   H2257     1.0  0.34279  0.00204  0.47104  1.0000
  H   H2258     1.0  0.55547  0.99696  0.31424  1.0000
  H   H2259     1.0  0.65975  0.07451  0.37795  1.0000
  H   H2260     1.0  0.58601  0.99096  0.44421  1.0000
  H   H2261     1.0  0.60000  0.00182  0.43560  1.0000
  H   H2262     1.0  0.47084  0.00125  0.23504  1.0000
  C   C1405     1.0  0.60553  0.08594  0.22990  1.0000
  H   H2263     1.0  0.66080  0.04517  0.30613  1.0000
  C   C1406     1.0  0.66139  0.02182  0.44423  1.0000
  H   H2264     1.0  0.56473  0.00517  0.23822  1.0000
  C   C1407     1.0  0.66055  0.03609  0.30118  1.0000
  H   H2265     1.0  0.56836  0.03702  0.23181  1.0000
  C   C1408     1.0  0.66000  0.04540  0.38451  1.0000
  H   H2266     1.0  0.59931  0.99532  0.23074  1.0000
  H   H2267     1.0  0.66053  0.04497  0.41247  1.0000
  C   C1409     1.0  0.65902  0.05603  0.40475  1.0000
  H   H2268     1.0  0.66185  0.03397  0.39149  1.0000
  N   N137      1.0  0.58317  0.01611  0.22905  1.0000
  N   N138      1.0  0.47731  0.98547  0.29016  1.0000
  C   C1410     1.0  0.62075  0.10298  0.22835  1.0000
  S   S573      1.0  0.64342  0.98501  0.36966  1.0000
  H   H2269     1.0  0.64885  0.98873  0.22814  1.0000
  C   C1411     1.0  0.45210  0.98586  0.67871  1.0000
  C   C1412     1.0  0.65548  0.01479  0.70442  1.0000
  S   S574      1.0  0.40250  0.02683  0.61968  1.0000
  Fe  Fe288     1.0  0.41058  0.02781  0.57758  1.0000
  S   S575      1.0  0.41010  0.04732  0.58628  1.0000
  S   S576      1.0  0.41482  0.03225  0.55267  1.0000
  Fe  Fe289     1.0  0.42303  0.03080  0.60237  1.0000
  Fe  Fe290     1.0  0.38963  0.04145  0.60267  1.0000
  S   S577      1.0  0.36785  0.05754  0.60865  1.0000
  S   S578      1.0  0.42514  0.01155  0.59241  1.0000
  S   S579      1.0  0.38906  0.02321  0.59285  1.0000
  C   C1413     1.0  0.34465  0.03409  0.53188  1.0000
  H   H2270     1.0  0.45195  0.00966  0.68793  1.0000
  H   H2271     1.0  0.46784  0.03557  0.61839  1.0000
  H   H2272     1.0  0.35755  0.00493  0.61462  1.0000
  H   H2273     1.0  0.59247  0.04702  0.65210  1.0000
  H   H2274     1.0  0.40296  0.00551  0.56466  1.0000
  C   C1414     1.0  0.43469  0.99167  0.49974  1.0000
  H   H2275     1.0  0.56756  0.05318  0.71949  1.0000
  C   C1415     1.0  0.44377  0.03897  0.62341  1.0000
  S   S580      1.0  0.61052  0.03234  0.67655  1.0000
  C   C1416     1.0  0.46486  0.99000  0.71968  1.0000
  H   H2276     1.0  0.46900  0.01312  0.65546  1.0000
  C   C1417     1.0  0.39970  0.99978  0.54583  1.0000
  H   H2277     1.0  0.36593  0.05710  0.53206  1.0000
  S   S581      1.0  0.39559  0.99245  0.52205  1.0000
  H   H2278     1.0  0.36706  0.01689  0.54525  1.0000
  Fe  Fe291     1.0  0.40340  0.00889  0.60859  1.0000
  H   H2279     1.0  0.60692  0.03721  0.61538  1.0000
  H   H2280     1.0  0.34650  0.02211  0.53202  1.0000
  H   H2281     1.0  0.37469  0.03180  0.54557  1.0000
  C   C1418     1.0  0.43100  0.04788  0.64588  1.0000
  C   C1419     1.0  0.53273  0.03068  0.68892  1.0000
  H   H2282     1.0  0.39765  0.06457  0.63491  1.0000
  H   H2283     1.0  0.39518  0.09243  0.59209  1.0000
  N   N139      1.0  0.35864  0.03795  0.53182  1.0000
  C   C1420     1.0  0.40928  0.02112  0.54443  1.0000
  C   C1421     1.0  0.40381  0.00856  0.55282  1.0000
  H   H2284     1.0  0.58622  0.03014  0.66149  1.0000
  C   C1422     1.0  0.40084  0.00364  0.53049  1.0000
  C   C1423     1.0  0.40621  0.01624  0.52213  1.0000
  C   C1424     1.0  0.41046  0.02493  0.52908  1.0000
  H   H2285     1.0  0.40720  0.01925  0.51031  1.0000
  H   H2286     1.0  0.41469  0.03465  0.52258  1.0000
  C   C1425     1.0  0.35598  0.05786  0.59741  1.0000
  C   C1426     1.0  0.34037  0.06065  0.60258  1.0000
  H   H2287     1.0  0.34582  0.99612  0.63080  1.0000
  H   H2288     1.0  0.43396  0.01180  0.68428  1.0000
  C   C1427     1.0  0.35292  0.05393  0.57477  1.0000
  C   C1428     1.0  0.36218  0.05472  0.58340  1.0000
  H   H2289     1.0  0.40063  0.10184  0.61108  1.0000
  H   H2290     1.0  0.35792  0.05143  0.56400  1.0000
  H   H2291     1.0  0.37417  0.05295  0.57914  1.0000
  H   H2292     1.0  0.38058  0.03797  0.51785  1.0000
  Fe  Fe292     1.0  0.39165  0.00148  0.49892  1.0000
  C   C1429     1.0  0.43051  0.04315  0.63352  1.0000
  N   N140      1.0  0.44355  0.00026  0.48674  1.0000
  H   H2293     1.0  0.41990  0.04303  0.63161  1.0000
  H   H2294     1.0  0.37274  0.02287  0.51823  1.0000
  C   C1430     1.0  0.58778  0.03826  0.65067  1.0000
  H   H2295     1.0  0.34028  0.04051  0.52183  1.0000
  S   S582      1.0  0.40392  0.99079  0.47971  1.0000
  H   H2296     1.0  0.50506  0.06726  0.68049  1.0000
  H   H2297     1.0  0.37399  0.99527  0.71389  1.0000
  C   C1431     1.0  0.33405  0.02548  0.62431  1.0000
  C   C1432     1.0  0.45753  0.03881  0.62617  1.0000
  H   H2298     1.0  0.34689  0.05671  0.54154  1.0000
  N   N141      1.0  0.37437  0.98649  0.69554  1.0000
  H   H2299     1.0  0.59792  0.01391  0.62820  1.0000
  C   C1433     1.0  0.35567  0.05388  0.53177  1.0000
  H   H2300     1.0  0.37995  0.07152  0.62935  1.0000
  C   C1434     1.0  0.36428  0.02896  0.54512  1.0000
  H   H2301     1.0  0.33574  0.03651  0.54175  1.0000
  C   C1435     1.0  0.37326  0.00648  0.63586  1.0000
  H   H2302     1.0  0.35581  0.03075  0.55543  1.0000
  S   S583      1.0  0.44362  0.03445  0.60698  1.0000
  H   H2303     1.0  0.46872  0.04317  0.64064  1.0000
  S   S584      1.0  0.34928  0.04207  0.48675  1.0000
  C   C1436     1.0  0.45806  0.04308  0.63877  1.0000
  C   C1437     1.0  0.39226  0.06786  0.62529  1.0000
  C   C1438     1.0  0.37000  0.03486  0.51844  1.0000
  H   H2304     1.0  0.36600  0.04122  0.50818  1.0000
  H   H2305     1.0  0.37771  0.01539  0.62794  1.0000
  C   C1439     1.0  0.36019  0.00981  0.64649  1.0000
  H   H2306     1.0  0.35170  0.06095  0.52171  1.0000
  N   N142      1.0  0.59764  0.03100  0.63870  1.0000
  Fe  Fe293     1.0  0.49729  0.03950  0.67727  1.0000
  H   H2307     1.0  0.53371  0.07245  0.68488  1.0000
  C   C1440     1.0  0.54374  0.02757  0.69711  1.0000
  C   C1441     1.0  0.44591  0.01190  0.67894  1.0000
  H   H2308     1.0  0.38382  0.09724  0.62361  1.0000
  S   S585      1.0  0.46654  0.05748  0.72269  1.0000
  H   H2309     1.0  0.47025  0.00743  0.72584  1.0000
  H   H2310     1.0  0.35497  0.02127  0.64692  1.0000
  C   C1442     1.0  0.39599  0.09280  0.61960  1.0000
  C   C1443     1.0  0.51047  0.08534  0.70348  1.0000
  S   S586      1.0  0.45767  0.03440  0.69926  1.0000
  H   H2311     1.0  0.49955  0.09418  0.67085  1.0000
  S   S587      1.0  0.33695  0.00310  0.66892  1.0000
  Fe  Fe294     1.0  0.46435  0.04552  0.67541  1.0000
  C   C1444     1.0  0.65578  0.02840  0.70680  1.0000
  C   C1445     1.0  0.41478  0.07409  0.60835  1.0000
  N   N143      1.0  0.45253  0.00093  0.66950  1.0000
  Fe  Fe295     1.0  0.37032  0.02486  0.48147  1.0000
  H   H2312     1.0  0.43196  0.00376  0.66287  1.0000
  H   H2313     1.0  0.51846  0.07615  0.70908  1.0000
  Fe  Fe296     1.0  0.47828  0.01695  0.69422  1.0000
  H   H2314     1.0  0.65556  0.03885  0.66005  1.0000
  N   N144      1.0  0.51035  0.08304  0.68901  1.0000
  S   S588      1.0  0.39211  0.02468  0.48612  1.0000
  H   H2315     1.0  0.42437  0.01738  0.48225  1.0000
  H   H2316     1.0  0.37935  0.00681  0.69602  1.0000
  S   S589      1.0  0.47571  0.99330  0.70155  1.0000
  S   S590      1.0  0.39712  0.98764  0.62251  1.0000
  C   C1446     1.0  0.35367  0.99843  0.65626  1.0000
  H   H2317     1.0  0.39391  0.05776  0.62107  1.0000
  Fe  Fe297     1.0  0.47291  0.04580  0.70381  1.0000
  H   H2318     1.0  0.42327  0.99267  0.49821  1.0000
  H   H2319     1.0  0.45740  0.00329  0.49935  1.0000
  S   S591      1.0  0.47769  0.05875  0.68041  1.0000
  C   C1447     1.0  0.33738  0.05610  0.58011  1.0000
  H   H2320     1.0  0.43319  0.99562  0.50997  1.0000
  H   H2321     1.0  0.39263  0.07381  0.59628  1.0000
  C   C1448     1.0  0.46825  0.00184  0.66237  1.0000
  H   H2322     1.0  0.40147  0.09017  0.62911  1.0000
  H   H2323     1.0  0.35706  0.00474  0.68814  1.0000
  H   H2324     1.0  0.41974  0.08230  0.59895  1.0000
  C   C1449     1.0  0.35846  0.99338  0.69534  1.0000
  H   H2325     1.0  0.42069  0.05150  0.65348  1.0000
  H   H2326     1.0  0.44420  0.01540  0.65079  1.0000
  H   H2327     1.0  0.41721  0.06360  0.60451  1.0000
  H   H2328     1.0  0.61149  0.01547  0.65297  1.0000
  H   H2329     1.0  0.34577  0.02501  0.59581  1.0000
  C   C1450     1.0  0.34662  0.00146  0.61888  1.0000
  C   C1451     1.0  0.44477  0.04792  0.64851  1.0000
  H   H2330     1.0  0.44644  0.02334  0.67248  1.0000
  S   S592      1.0  0.48436  0.02742  0.67004  1.0000
  H   H2331     1.0  0.51386  0.09584  0.70231  1.0000
  S   S593      1.0  0.44493  0.05449  0.66378  1.0000
  C   C1452     1.0  0.62349  0.06912  0.72213  1.0000
  N   N145      1.0  0.39850  0.07957  0.61358  1.0000
  H   H2332     1.0  0.37857  0.08736  0.60476  1.0000
  C   C1453     1.0  0.38028  0.99508  0.70227  1.0000
  H   H2333     1.0  0.49920  0.08582  0.71106  1.0000
  C   C1454     1.0  0.39092  0.08353  0.60112  1.0000
  H   H2334     1.0  0.46467  0.98718  0.49145  1.0000
  C   C1455     1.0  0.61246  0.02387  0.64233  1.0000
  C   C1456     1.0  0.59949  0.04226  0.62468  1.0000
  H   H2335     1.0  0.51867  0.04635  0.72776  1.0000
  C   C1457     1.0  0.63519  0.06427  0.63585  1.0000
  H   H2336     1.0  0.61798  0.03218  0.64346  1.0000
  C   C1458     1.0  0.64310  0.05923  0.62293  1.0000
  H   H2337     1.0  0.63772  0.05422  0.61769  1.0000
  H   H2338     1.0  0.60461  0.05100  0.62556  1.0000
  H   H2339     1.0  0.62017  0.01821  0.63357  1.0000
  H   H2340     1.0  0.58853  0.04794  0.62162  1.0000
  H   H2341     1.0  0.47358  0.99379  0.65509  1.0000
  S   S594      1.0  0.61649  0.06254  0.64344  1.0000
  H   H2342     1.0  0.57957  0.02465  0.63446  1.0000
  C   C1459     1.0  0.59080  0.01965  0.63714  1.0000
  C   C1460     1.0  0.64217  0.07087  0.64245  1.0000
  S   S595      1.0  0.60369  0.03750  0.70973  1.0000
  N   N146      1.0  0.33390  0.01421  0.61666  1.0000
  C   C1461     1.0  0.53369  0.04088  0.67535  1.0000
  H   H2343     1.0  0.52598  0.07962  0.66871  1.0000
  C   C1462     1.0  0.49576  0.05079  0.72573  1.0000
  H   H2344     1.0  0.63607  0.07503  0.65227  1.0000
  H   H2345     1.0  0.57647  0.04365  0.64833  1.0000
  S   S596      1.0  0.58928  0.06378  0.68383  1.0000
  C   C1463     1.0  0.60820  0.07524  0.72642  1.0000
  S   S597      1.0  0.62565  0.05658  0.68293  1.0000
  H   H2346     1.0  0.48831  0.09676  0.68865  1.0000
  H   H2347     1.0  0.52976  0.09211  0.67739  1.0000
  H   H2348     1.0  0.43416  0.02089  0.49388  1.0000
  H   H2349     1.0  0.50336  0.10632  0.67988  1.0000
  H   H2350     1.0  0.66238  0.01166  0.66254  1.0000
  H   H2351     1.0  0.58923  0.01103  0.64758  1.0000
  H   H2352     1.0  0.64833  0.03845  0.70249  1.0000
  H   H2353     1.0  0.42095  0.07173  0.61728  1.0000
  H   H2354     1.0  0.54658  0.05594  0.65953  1.0000
  H   H2355     1.0  0.56586  0.05075  0.67433  1.0000
  S   S598      1.0  0.49301  0.02720  0.70101  1.0000
  S   S599      1.0  0.56956  0.03003  0.70228  1.0000
  H   H2356     1.0  0.33258  0.02103  0.63648  1.0000
  C   C1464     1.0  0.49995  0.09567  0.68177  1.0000
  S   S600      1.0  0.51984  0.04509  0.66499  1.0000
  H   H2357     1.0  0.49378  0.06973  0.69821  1.0000
  C   C1465     1.0  0.50531  0.06925  0.69121  1.0000
  C   C1466     1.0  0.33107  0.05966  0.59399  1.0000
  Fe  Fe298     1.0  0.61104  0.05642  0.66833  1.0000
  H   H2358     1.0  0.54299  0.01947  0.70749  1.0000
  C   C1467     1.0  0.54578  0.04800  0.67002  1.0000
  H   H2359     1.0  0.52377  0.02481  0.69297  1.0000
  Fe  Fe299     1.0  0.62398  0.03283  0.69190  1.0000
  Fe  Fe300     1.0  0.60384  0.06140  0.69950  1.0000
  S   S601      1.0  0.59539  0.07601  0.71604  1.0000
  S   S602      1.0  0.64362  0.01371  0.69396  1.0000
  C   C1468     1.0  0.55582  0.03463  0.69180  1.0000
  H   H2360     1.0  0.51291  0.05938  0.69652  1.0000
  C   C1469     1.0  0.52563  0.08180  0.67956  1.0000
  Fe  Fe301     1.0  0.59019  0.03964  0.69333  1.0000
  C   C1470     1.0  0.55674  0.04503  0.67832  1.0000
  H   H2361     1.0  0.34483  0.02926  0.62030  1.0000
  C   C1471     1.0  0.43567  0.01604  0.48422  1.0000
  S   S603      1.0  0.36903  0.00242  0.49579  1.0000
  H   H2362     1.0  0.38185  0.99785  0.67309  1.0000
  C   C1472     1.0  0.65800  0.06066  0.61672  1.0000
  H   H2363     1.0  0.33550  0.06324  0.61337  1.0000
  H   H2364     1.0  0.44859  0.99611  0.65061  1.0000
  C   C1473     1.0  0.65688  0.07271  0.63599  1.0000
  C   C1474     1.0  0.44392  0.00415  0.65796  1.0000
  H   H2365     1.0  0.62763  0.06450  0.71236  1.0000
  H   H2366     1.0  0.49806  0.04262  0.71924  1.0000
  C   C1475     1.0  0.38030  0.99173  0.63537  1.0000
  H   H2367     1.0  0.34701  0.99281  0.61309  1.0000
  H   H2368     1.0  0.54927  0.04922  0.72722  1.0000
  H   H2369     1.0  0.39564  0.98997  0.55233  1.0000
  C   C1476     1.0  0.33529  0.02077  0.60068  1.0000
  H   H2370     1.0  0.46538  0.00532  0.47984  1.0000
  H   H2371     1.0  0.39224  0.99018  0.70271  1.0000
  H   H2372     1.0  0.47512  0.99937  0.67075  1.0000
  H   H2373     1.0  0.35166  0.99437  0.70655  1.0000
  C   C1477     1.0  0.45843  0.99895  0.48947  1.0000
  H   H2374     1.0  0.35341  0.98675  0.69109  1.0000
  H   H2375     1.0  0.33545  0.01255  0.59448  1.0000
  H   H2376     1.0  0.64537  0.06487  0.72680  1.0000
  H   H2377     1.0  0.66211  0.07814  0.64098  1.0000
  H   H2378     1.0  0.34527  0.98570  0.49539  1.0000
  C   C1478     1.0  0.38300  0.98643  0.68020  1.0000
  H   H2379     1.0  0.44043  0.98482  0.68442  1.0000
  C   C1479     1.0  0.33579  0.04092  0.47816  1.0000
  H   H2380     1.0  0.57225  0.24536  0.87482  1.0000
  H   H2381     1.0  0.40342  0.03584  0.85582  1.0000
  Fe  Fe302     1.0  0.42997  0.21218  0.93566  1.0000
  Fe  Fe303     1.0  0.43505  0.17868  0.94696  1.0000
  S   S604      1.0  0.44774  0.15839  0.93807  1.0000
  S   S605      1.0  0.44927  0.19501  0.94293  1.0000
  H   H2382     1.0  0.39419  0.99526  0.80438  1.0000
  H   H2383     1.0  0.47425  0.01778  0.88512  1.0000
  C   C1480     1.0  0.46355  0.02392  0.89105  1.0000
  S   S606      1.0  0.65660  0.17867  0.85929  1.0000
  S   S607      1.0  0.62752  0.24252  0.89845  1.0000
  C   C1481     1.0  0.37397  0.03840  0.85962  1.0000
  H   H2384     1.0  0.45365  0.20317  0.88728  1.0000
  C   C1482     1.0  0.39614  0.04140  0.86486  1.0000
  C   C1483     1.0  0.47453  0.04399  0.89037  1.0000
  H   H2385     1.0  0.47784  0.02296  0.76354  1.0000
  H   H2386     1.0  0.39257  0.01724  0.88635  1.0000
  H   H2387     1.0  0.45413  0.16714  0.87983  1.0000
  C   C1484     1.0  0.44775  0.04780  0.89409  1.0000
  H   H2388     1.0  0.62832  0.29818  0.88191  1.0000
  Fe  Fe304     1.0  0.48784  0.07539  0.79366  1.0000
  H   H2389     1.0  0.49329  0.03077  0.83840  1.0000
  H   H2390     1.0  0.45522  0.02037  0.78353  1.0000
  S   S608      1.0  0.46569  0.06912  0.80425  1.0000
  Fe  Fe305     1.0  0.43741  0.19804  0.96573  1.0000
  H   H2391     1.0  0.43422  0.20366  0.88937  1.0000
  H   H2392     1.0  0.65339  0.05086  0.77356  1.0000
  H   H2393     1.0  0.44478  0.03710  0.77394  1.0000
  S   S609      1.0  0.37178  0.98880  0.74787  1.0000
  H   H2394     1.0  0.47385  0.22668  0.90114  1.0000
  H   H2395     1.0  0.37094  0.05042  0.85450  1.0000
  H   H2396     1.0  0.44965  0.02588  0.83906  1.0000
  H   H2397     1.0  0.42485  0.18024  0.89959  1.0000
  Fe  Fe306     1.0  0.46751  0.07294  0.92480  1.0000
  Fe  Fe307     1.0  0.45308  0.00153  0.86394  1.0000
  S   S610      1.0  0.43085  0.01719  0.86568  1.0000
  H   H2398     1.0  0.55123  0.13465  0.75930  1.0000
  Fe  Fe308     1.0  0.42496  0.00383  0.88855  1.0000
  S   S611      1.0  0.41232  0.01933  0.90391  1.0000
  Fe  Fe309     1.0  0.42346  0.00092  0.85822  1.0000
  S   S612      1.0  0.41073  0.01081  0.84005  1.0000
  H   H2399     1.0  0.44122  0.18429  0.87459  1.0000
  C   C1485     1.0  0.46113  0.05534  0.77480  1.0000
  H   H2400     1.0  0.47102  0.06050  0.77155  1.0000
  S   S613      1.0  0.44377  0.07120  0.92798  1.0000
  H   H2401     1.0  0.48625  0.10425  0.87881  1.0000
  Fe  Fe310     1.0  0.46614  0.06611  0.95807  1.0000
  S   S614      1.0  0.44235  0.06370  0.96383  1.0000
  Fe  Fe311     1.0  0.44957  0.05112  0.94564  1.0000
  S   S615      1.0  0.44580  0.02828  0.94821  1.0000
  Fe  Fe312     1.0  0.43899  0.08401  0.94564  1.0000
  S   S616      1.0  0.41973  0.10326  0.94981  1.0000
  N   N147      1.0  0.46571  0.03903  0.77677  1.0000
  S   S617      1.0  0.46236  0.08724  0.94109  1.0000
  C   C1486     1.0  0.42200  0.02185  0.91589  1.0000
  C   C1487     1.0  0.41741  0.03496  0.92118  1.0000
  C   C1488     1.0  0.42488  0.03719  0.93081  1.0000
  C   C1489     1.0  0.43673  0.02614  0.93552  1.0000
  C   C1490     1.0  0.44121  0.01297  0.93035  1.0000
  C   C1491     1.0  0.43404  0.01092  0.92038  1.0000
  H   H2402     1.0  0.40805  0.04343  0.91785  1.0000
  H   H2403     1.0  0.42123  0.04732  0.93486  1.0000
  H   H2404     1.0  0.45027  0.00430  0.93406  1.0000
  H   H2405     1.0  0.43754  0.00069  0.91653  1.0000
  C   C1492     1.0  0.46783  0.05319  0.81845  1.0000
  S   S618      1.0  0.49194  0.09187  0.77201  1.0000
  H   H2406     1.0  0.46377  0.16239  0.90292  1.0000
  C   C1493     1.0  0.45636  0.04536  0.82433  1.0000
  C   C1494     1.0  0.48299  0.03479  0.83446  1.0000
  H   H2407     1.0  0.57183  0.09545  0.76872  1.0000
  S   S619      1.0  0.48944  0.15755  0.87087  1.0000
  H   H2408     1.0  0.44172  0.20025  0.90539  1.0000
  H   H2409     1.0  0.47359  0.30050  0.91464  1.0000
  S   S620      1.0  0.41665  0.19566  0.93761  1.0000
  S   S621      1.0  0.47380  0.05198  0.94120  1.0000
  H   H2410     1.0  0.47461  0.03934  0.86421  1.0000
  C   C1495     1.0  0.48669  0.22375  0.92343  1.0000
  H   H2411     1.0  0.48452  0.03980  0.75827  1.0000
  C   C1496     1.0  0.48648  0.12876  0.81896  1.0000
  S   S622      1.0  0.44791  0.98906  0.88749  1.0000
  H   H2412     1.0  0.37587  0.01505  0.88280  1.0000
  H   H2413     1.0  0.47136  0.17858  0.89406  1.0000
  C   C1497     1.0  0.40271  0.99913  0.83494  1.0000
  C   C1498     1.0  0.40134  0.00207  0.82026  1.0000
  H   H2414     1.0  0.59505  0.25841  0.91050  1.0000
  S   S623      1.0  0.47365  0.01108  0.85471  1.0000
  H   H2415     1.0  0.40529  0.01135  0.81228  1.0000
  Fe  Fe313     1.0  0.40740  0.19880  0.96090  1.0000
  H   H2416     1.0  0.45429  0.02070  0.88858  1.0000
  H   H2417     1.0  0.40276  0.03942  0.87337  1.0000
  H   H2418     1.0  0.36231  0.03954  0.88827  1.0000
  C   C1499     1.0  0.38607  0.01968  0.87766  1.0000
  H   H2419     1.0  0.44609  0.04936  0.82034  1.0000
  H   H2420     1.0  0.47911  0.02070  0.78942  1.0000
  C   C1500     1.0  0.45831  0.03212  0.83506  1.0000
  H   H2421     1.0  0.45448  0.06040  0.76609  1.0000
  H   H2422     1.0  0.46058  0.18413  0.87236  1.0000
  C   C1501     1.0  0.57308  0.25816  0.90872  1.0000
  H   H2423     1.0  0.48635  0.11671  0.80326  1.0000
  S   S624      1.0  0.42469  0.18018  0.97057  1.0000
  N   N148      1.0  0.46236  0.04014  0.88644  1.0000
  C   C1502     1.0  0.46124  0.17469  0.90127  1.0000
  S   S625      1.0  0.48442  0.19879  0.87028  1.0000
  H   H2424     1.0  0.44964  0.29880  0.93289  1.0000
  S   S626      1.0  0.41922  0.21686  0.95812  1.0000
  C   C1503     1.0  0.43812  0.14478  0.93951  1.0000
  C   C1504     1.0  0.42439  0.14393  0.94950  1.0000
  C   C1505     1.0  0.41827  0.13147  0.95211  1.0000
  C   C1506     1.0  0.42580  0.12002  0.94461  1.0000
  C   C1507     1.0  0.43891  0.12151  0.93384  1.0000
  C   C1508     1.0  0.44513  0.13379  0.93138  1.0000
  H   H2425     1.0  0.41887  0.15247  0.95574  1.0000
  H   H2426     1.0  0.40801  0.13044  0.96035  1.0000
  H   H2427     1.0  0.44439  0.11308  0.92750  1.0000
  H   H2428     1.0  0.45565  0.13450  0.92348  1.0000
  H   H2429     1.0  0.47386  0.22821  0.87578  1.0000
  C   C1509     1.0  0.47522  0.03296  0.78777  1.0000
  C   C1510     1.0  0.48992  0.09256  0.90046  1.0000
  C   C1511     1.0  0.65503  0.03888  0.77902  1.0000
  H   H2430     1.0  0.44670  0.04477  0.90628  1.0000
  N   N149      1.0  0.38225  0.03577  0.87131  1.0000
  H   H2431     1.0  0.57848  0.02722  0.73087  1.0000
  C   C1512     1.0  0.44421  0.19791  0.89418  1.0000
  H   H2432     1.0  0.64811  0.04261  0.91019  1.0000
  C   C1513     1.0  0.58618  0.26363  0.90455  1.0000
  H   H2433     1.0  0.48576  0.03842  0.88481  1.0000
  H   H2434     1.0  0.45961  0.17727  0.91222  1.0000
  C   C1514     1.0  0.48563  0.22683  0.87049  1.0000
  N   N150      1.0  0.44790  0.18178  0.89483  1.0000
  S   S627      1.0  0.48084  0.07860  0.90159  1.0000
  H   H2435     1.0  0.39296  0.01349  0.86900  1.0000
  N   N151      1.0  0.45956  0.11073  0.97416  1.0000
  C   C1515     1.0  0.39505  0.99297  0.81576  1.0000
  C   C1516     1.0  0.47152  0.02694  0.84035  1.0000
  H   H2436     1.0  0.38085  0.03261  0.85058  1.0000
  C   C1517     1.0  0.49221  0.12341  0.80594  1.0000
  N   N152      1.0  0.56341  0.24529  0.85661  1.0000
  C   C1518     1.0  0.45107  0.17921  0.87975  1.0000
  C   C1519     1.0  0.37290  0.04351  0.88313  1.0000
  H   H2437     1.0  0.36988  0.05571  0.87879  1.0000
  H   H2438     1.0  0.37895  0.04157  0.89211  1.0000
  H   H2439     1.0  0.39371  0.05353  0.86004  1.0000
  H   H2440     1.0  0.36345  0.03421  0.86405  1.0000
  H   H2441     1.0  0.55433  0.03663  0.76611  1.0000
  H   H2442     1.0  0.56969  0.12804  0.73731  1.0000
  H   H2443     1.0  0.44552  0.03531  0.79280  1.0000
  H   H2444     1.0  0.49637  0.22224  0.92842  1.0000
  H   H2445     1.0  0.46257  0.05704  0.86634  1.0000
  S   S628      1.0  0.48668  0.14315  0.83944  1.0000
  H   H2446     1.0  0.53610  0.11171  0.75605  1.0000
  H   H2447     1.0  0.43234  0.17710  0.91557  1.0000
  C   C1520     1.0  0.47626  0.21528  0.90802  1.0000
  C   C1521     1.0  0.48118  0.04785  0.82348  1.0000
  H   H2448     1.0  0.43761  0.16305  0.90515  1.0000
  N   N153      1.0  0.65266  0.06235  0.91279  1.0000
  H   H2449     1.0  0.65606  0.04510  0.81607  1.0000
  H   H2450     1.0  0.47628  0.12603  0.82634  1.0000
  C   C1522     1.0  0.43510  0.17527  0.90415  1.0000
  H   H2451     1.0  0.64657  0.01312  0.79153  1.0000
  C   C1523     1.0  0.49220  0.19766  0.92346  1.0000
  N   N154      1.0  0.48948  0.21285  0.91425  1.0000
  H   H2452     1.0  0.48470  0.23533  0.91677  1.0000
  H   H2453     1.0  0.34692  0.99787  0.73372  1.0000
  C   C1524     1.0  0.49120  0.10391  0.88774  1.0000
  C   C1525     1.0  0.46362  0.04484  0.87027  1.0000
  H   H2454     1.0  0.63455  0.08119  0.91603  1.0000
  H   H2455     1.0  0.47391  0.05618  0.88715  1.0000
  H   H2456     1.0  0.45479  0.04179  0.86691  1.0000
  H   H2457     1.0  0.58170  0.11459  0.74851  1.0000
  Fe  Fe314     1.0  0.33842  0.30260  0.94739  1.0000
  H   H2458     1.0  0.44632  0.06008  0.89066  1.0000
  H   H2459     1.0  0.48530  0.03785  0.78434  1.0000
  S   S629      1.0  0.44637  0.98618  0.85450  1.0000
  C   C1526     1.0  0.45221  0.03266  0.78201  1.0000
  C   C1527     1.0  0.62382  0.99379  0.89308  1.0000
  H   H2460     1.0  0.57302  0.02028  0.75045  1.0000
  H   H2461     1.0  0.49010  0.05383  0.81901  1.0000
  H   H2462     1.0  0.46904  0.03549  0.79870  1.0000
  Fe  Fe315     1.0  0.51032  0.26544  0.87397  1.0000
  H   H2463     1.0  0.34134  0.29122  0.91414  1.0000
  C   C1528     1.0  0.47425  0.03518  0.76252  1.0000
  H   H2464     1.0  0.48769  0.07975  0.74952  1.0000
  H   H2465     1.0  0.55269  0.09431  0.77209  1.0000
  H   H2466     1.0  0.46604  0.21395  0.91686  1.0000
  H   H2467     1.0  0.47663  0.22279  0.93262  1.0000
  H   H2468     1.0  0.61648  0.00186  0.88588  1.0000
  H   H2469     1.0  0.43826  0.04482  0.89180  1.0000
  H   H2470     1.0  0.46742  0.03963  0.75392  1.0000
  H   H2471     1.0  0.45417  0.05863  0.78523  1.0000
  H   H2472     1.0  0.46301  0.01988  0.90313  1.0000
  H   H2473     1.0  0.48246  0.19595  0.93286  1.0000
  S   S630      1.0  0.50667  0.28671  0.90394  1.0000
  H   H2474     1.0  0.54380  0.12061  0.77371  1.0000
  C   C1529     1.0  0.56143  0.26480  0.90120  1.0000
  H   H2475     1.0  0.47389  0.04060  0.90252  1.0000
  C   C1530     1.0  0.58766  0.27598  0.89290  1.0000
  H   H2476     1.0  0.59913  0.31122  0.90098  1.0000
  C   C1531     1.0  0.57197  0.11630  0.74350  1.0000
  C   C1532     1.0  0.40642  0.26035  0.93577  1.0000
  S   S631      1.0  0.43394  0.22950  0.91477  1.0000
  S   S632      1.0  0.34031  0.30315  0.96980  1.0000
  H   H2477     1.0  0.35481  0.22357  0.96785  1.0000
  C   C1533     1.0  0.50742  0.05284  0.73067  1.0000
  C   C1534     1.0  0.38318  0.25213  0.94300  1.0000
  N   N155      1.0  0.38993  0.26507  0.94002  1.0000
  H   H2478     1.0  0.34077  0.29807  0.88756  1.0000
  H   H2479     1.0  0.64544  0.23597  0.96256  1.0000
  C   C1535     1.0  0.46048  0.26000  0.91946  1.0000
  H   H2480     1.0  0.43990  0.23470  0.94036  1.0000
  H   H2481     1.0  0.62663  0.03581  0.78590  1.0000
  C   C1536     1.0  0.44502  0.24184  0.93061  1.0000
  H   H2482     1.0  0.60640  0.31026  0.91667  1.0000
  C   C1537     1.0  0.45057  0.25079  0.90404  1.0000
  H   H2483     1.0  0.46492  0.26649  0.89566  1.0000
  H   H2484     1.0  0.45420  0.25133  0.94290  1.0000
  S   S633      1.0  0.47155  0.27072  0.92154  1.0000
  H   H2485     1.0  0.41197  0.26980  0.93332  1.0000
  H   H2486     1.0  0.64011  0.25681  0.97507  1.0000
  H   H2487     1.0  0.56294  0.12156  0.77110  1.0000
  H   H2488     1.0  0.54295  0.12607  0.74156  1.0000
  H   H2489     1.0  0.57692  0.29252  0.87657  1.0000
  H   H2490     1.0  0.65445  0.24715  0.94611  1.0000
  C   C1538     1.0  0.56606  0.25315  0.86648  1.0000
  H   H2491     1.0  0.45853  0.13313  0.97500  1.0000
  H   H2492     1.0  0.64964  0.03798  0.79098  1.0000
  H   H2493     1.0  0.57173  0.06028  0.74659  1.0000
  C   C1539     1.0  0.38438  0.27666  0.92784  1.0000
  H   H2494     1.0  0.41098  0.25166  0.94475  1.0000
  H   H2495     1.0  0.37075  0.25516  0.94647  1.0000
  H   H2496     1.0  0.38929  0.28657  0.92530  1.0000
  C   C1540     1.0  0.45927  0.25973  0.90543  1.0000
  C   C1541     1.0  0.44904  0.10141  0.97553  1.0000
  H   H2497     1.0  0.40998  0.25558  0.92574  1.0000
  H   H2498     1.0  0.44960  0.25061  0.89318  1.0000
  C   C1542     1.0  0.38572  0.27110  0.95347  1.0000
  H   H2499     1.0  0.64926  0.06605  0.93459  1.0000
  H   H2500     1.0  0.38730  0.27251  0.91751  1.0000
  H   H2501     1.0  0.38726  0.24313  0.95204  1.0000
  S   S634      1.0  0.49001  0.28356  0.87902  1.0000
  C   C1543     1.0  0.44364  0.24166  0.91663  1.0000
  C   C1544     1.0  0.45316  0.25123  0.93204  1.0000
  H   H2502     1.0  0.38604  0.24731  0.93308  1.0000
  H   H2503     1.0  0.37334  0.27478  0.95696  1.0000
  H   H2504     1.0  0.48692  0.24858  0.87157  1.0000
  H   H2505     1.0  0.39064  0.28086  0.95167  1.0000
  Fe  Fe316     1.0  0.49143  0.27327  0.90269  1.0000
  S   S635      1.0  0.39481  0.98784  0.77654  1.0000
  H   H2506     1.0  0.50217  0.19538  0.92825  1.0000
  C   C1545     1.0  0.55540  0.25606  0.84558  1.0000
  C   C1546     1.0  0.49298  0.23837  0.86807  1.0000
  H   H2507     1.0  0.61333  0.13460  0.80181  1.0000
  H   H2508     1.0  0.49357  0.09966  0.83720  1.0000
  S   S636      1.0  0.51237  0.12046  0.77984  1.0000
  H   H2509     1.0  0.57458  0.22343  0.93199  1.0000
  Fe  Fe317     1.0  0.59977  0.09175  0.79551  1.0000
  S   S637      1.0  0.61785  0.10320  0.78073  1.0000
  S   S638      1.0  0.57573  0.10340  0.79663  1.0000
  Fe  Fe318     1.0  0.62159  0.06441  0.80694  1.0000
  S   S639      1.0  0.64151  0.07360  0.79341  1.0000
  S   S640      1.0  0.62612  0.04068  0.81897  1.0000
  Fe  Fe319     1.0  0.62843  0.09471  0.80048  1.0000
  S   S641      1.0  0.63944  0.10929  0.80672  1.0000
  Fe  Fe320     1.0  0.62904  0.08103  0.77520  1.0000
  S   S642      1.0  0.64081  0.07589  0.75297  1.0000
  S   S643      1.0  0.60944  0.08486  0.81568  1.0000
  S   S644      1.0  0.61000  0.07028  0.78823  1.0000
  H   H2510     1.0  0.51615  0.10415  0.86092  1.0000
  C   C1547     1.0  0.56241  0.09723  0.76323  1.0000
  S   S645      1.0  0.63454  0.02973  0.88399  1.0000
  C   C1548     1.0  0.39748  0.98719  0.84522  1.0000
  H   H2511     1.0  0.54440  0.26214  0.85098  1.0000
  H   H2512     1.0  0.53154  0.08915  0.85653  1.0000
  H   H2513     1.0  0.61031  0.19574  0.92717  1.0000
  H   H2514     1.0  0.61822  0.99432  0.90476  1.0000
  S   S646      1.0  0.63976  0.09823  0.93389  1.0000
  Fe  Fe321     1.0  0.61534  0.15154  0.86997  1.0000
  S   S647      1.0  0.59500  0.16396  0.88339  1.0000
  S   S648      1.0  0.61213  0.12997  0.86749  1.0000
  Fe  Fe322     1.0  0.63327  0.17452  0.86678  1.0000
  S   S649      1.0  0.61406  0.18898  0.87933  1.0000
  C   C1549     1.0  0.65969  0.19351  0.86452  1.0000
  Fe  Fe323     1.0  0.61064  0.16752  0.89475  1.0000
  S   S650      1.0  0.60707  0.16484  0.91912  1.0000
  Fe  Fe324     1.0  0.60028  0.18415  0.86660  1.0000
  S   S651      1.0  0.57983  0.20012  0.86008  1.0000
  S   S652      1.0  0.63066  0.15320  0.88308  1.0000
  S   S653      1.0  0.61984  0.17163  0.85228  1.0000
  Fe  Fe325     1.0  0.52848  0.16192  0.84757  1.0000
  S   S654      1.0  0.50761  0.17498  0.83948  1.0000
  S   S655      1.0  0.55229  0.16207  0.83543  1.0000
  S   S656      1.0  0.52181  0.14001  0.85409  1.0000
  S   S657      1.0  0.52028  0.16656  0.87034  1.0000
  C   C1550     1.0  0.51253  0.13613  0.79960  1.0000
  C   C1551     1.0  0.64493  0.20946  0.94915  1.0000
  H   H2515     1.0  0.59254  0.22791  0.92831  1.0000
  H   H2516     1.0  0.45277  0.31711  0.89321  1.0000
  C   C1552     1.0  0.57196  0.19077  0.85204  1.0000
  C   C1553     1.0  0.55644  0.19365  0.85346  1.0000
  C   C1554     1.0  0.55031  0.18513  0.84799  1.0000
  C   C1555     1.0  0.55969  0.17386  0.84101  1.0000
  C   C1556     1.0  0.57520  0.17141  0.83918  1.0000
  C   C1557     1.0  0.58128  0.17973  0.84479  1.0000
  H   H2517     1.0  0.54914  0.20218  0.85907  1.0000
  H   H2518     1.0  0.53834  0.18725  0.84917  1.0000
  H   H2519     1.0  0.58262  0.16292  0.83370  1.0000
  H   H2520     1.0  0.59324  0.17765  0.84336  1.0000
  C   C1558     1.0  0.65131  0.25908  0.96897  1.0000
  H   H2521     1.0  0.64973  0.26756  0.95864  1.0000
  C   C1559     1.0  0.46961  0.11198  0.95931  1.0000
  H   H2522     1.0  0.58035  0.13980  0.83314  1.0000
  C   C1560     1.0  0.57374  0.13250  0.89207  1.0000
  C   C1561     1.0  0.62838  0.11606  0.93183  1.0000
  C   C1562     1.0  0.62811  0.12565  0.94050  1.0000
  C   C1563     1.0  0.62060  0.14057  0.93731  1.0000
  C   C1564     1.0  0.61352  0.14583  0.92537  1.0000
  C   C1565     1.0  0.61321  0.13604  0.91720  1.0000
  C   C1566     1.0  0.62058  0.12115  0.92046  1.0000
  H   H2523     1.0  0.63387  0.12165  0.94951  1.0000
  H   H2524     1.0  0.62083  0.14812  0.94366  1.0000
  H   H2525     1.0  0.60760  0.14001  0.90807  1.0000
  H   H2526     1.0  0.62075  0.11376  0.91375  1.0000
  C   C1567     1.0  0.63170  0.11497  0.82363  1.0000
  C   C1568     1.0  0.63488  0.12765  0.82545  1.0000
  C   C1569     1.0  0.62884  0.13246  0.83881  1.0000
  C   C1570     1.0  0.61975  0.12446  0.85050  1.0000
  C   C1571     1.0  0.61660  0.11176  0.84870  1.0000
  C   C1572     1.0  0.62251  0.10704  0.83529  1.0000
  H   H2527     1.0  0.64205  0.13379  0.81650  1.0000
  H   H2528     1.0  0.63140  0.14223  0.84012  1.0000
  H   H2529     1.0  0.60966  0.10546  0.85774  1.0000
  H   H2530     1.0  0.62020  0.09711  0.83412  1.0000
  C   C1573     1.0  0.56454  0.09028  0.80249  1.0000
  C   C1574     1.0  0.57067  0.07524  0.80740  1.0000
  C   C1575     1.0  0.56215  0.06461  0.81012  1.0000
  C   C1576     1.0  0.54755  0.06904  0.80782  1.0000
  C   C1577     1.0  0.54118  0.08416  0.80374  1.0000
  C   C1578     1.0  0.54959  0.09478  0.80129  1.0000
  H   H2531     1.0  0.58204  0.07173  0.80892  1.0000
  H   H2532     1.0  0.56706  0.05294  0.81349  1.0000
  H   H2533     1.0  0.54463  0.10642  0.79795  1.0000
  C   C1579     1.0  0.62698  0.03776  0.83749  1.0000
  C   C1580     1.0  0.63340  0.02360  0.84462  1.0000
  C   C1581     1.0  0.63530  0.02109  0.85903  1.0000
  C   C1582     1.0  0.63066  0.03266  0.86651  1.0000
  C   C1583     1.0  0.62365  0.04675  0.85962  1.0000
  C   C1584     1.0  0.62195  0.04935  0.84503  1.0000
  H   H2534     1.0  0.63719  0.01460  0.83886  1.0000
  H   H2535     1.0  0.64029  0.01014  0.86433  1.0000
  H   H2536     1.0  0.61996  0.05575  0.86537  1.0000
  H   H2537     1.0  0.61682  0.06028  0.83966  1.0000
  H   H2538     1.0  0.65037  0.20964  0.93769  1.0000
  H   H2539     1.0  0.58910  0.21095  0.94083  1.0000
  C   C1585     1.0  0.49587  0.09244  0.91222  1.0000
  C   C1586     1.0  0.50332  0.10354  0.91113  1.0000
  C   C1587     1.0  0.60836  0.20391  0.91676  1.0000
  Fe  Fe326     1.0  0.51169  0.14582  0.87613  1.0000
  H   H2540     1.0  0.57541  0.13576  0.79792  1.0000
  Fe  Fe327     1.0  0.51183  0.07389  0.76604  1.0000
  H   H2541     1.0  0.57147  0.20444  0.92158  1.0000
  H   H2542     1.0  0.53124  0.07533  0.83846  1.0000
  H   H2543     1.0  0.55296  0.25042  0.83816  1.0000
  H   H2544     1.0  0.47641  0.10091  0.95745  1.0000
  C   C1588     1.0  0.61291  0.08129  0.74731  1.0000
  C   C1589     1.0  0.62824  0.07553  0.74284  1.0000
  S   S658      1.0  0.35011  0.31299  0.92486  1.0000
  C   C1590     1.0  0.34915  0.98591  0.73730  1.0000
  H   H2545     1.0  0.60877  0.08611  0.75693  1.0000
  H   H2546     1.0  0.55534  0.25880  0.87278  1.0000
  H   H2547     1.0  0.50803  0.10334  0.92018  1.0000
  C   C1591     1.0  0.62941  0.21472  0.95309  1.0000
  H   H2548     1.0  0.52256  0.13907  0.79207  1.0000
  S   S659      1.0  0.51754  0.25113  0.85725  1.0000
  H   H2549     1.0  0.43416  0.31465  0.93275  1.0000
  H   H2550     1.0  0.63337  0.31074  0.91294  1.0000
  H   H2551     1.0  0.46720  0.07638  0.74051  1.0000
  H   H2552     1.0  0.65158  0.02641  0.75070  1.0000
  H   H2553     1.0  0.57262  0.26175  0.86019  1.0000
  C   C1592     1.0  0.60295  0.08115  0.73909  1.0000
  H   H2554     1.0  0.61029  0.21803  0.97102  1.0000
  S   S660      1.0  0.65624  0.27497  0.92629  1.0000
  S   S661      1.0  0.54583  0.25662  0.90615  1.0000
  C   C1593     1.0  0.48128  0.05940  0.72909  1.0000
  C   C1594     1.0  0.46995  0.31277  0.91269  1.0000
  C   C1595     1.0  0.57588  0.28289  0.88553  1.0000
  C   C1596     1.0  0.63782  0.07156  0.91066  1.0000
  S   S662      1.0  0.65946  0.07974  0.96659  1.0000
  C   C1597     1.0  0.65230  0.21192  0.87960  1.0000
  H   H2555     1.0  0.51385  0.08538  0.86769  1.0000
  H   H2556     1.0  0.49495  0.08366  0.92207  1.0000
  H   H2557     1.0  0.49918  0.12394  0.87694  1.0000
  H   H2558     1.0  0.58736  0.19368  0.91116  1.0000
  H   H2559     1.0  0.53357  0.10150  0.82979  1.0000
  C   C1598     1.0  0.50806  0.23683  0.86072  1.0000
  C   C1599     1.0  0.56278  0.27729  0.88965  1.0000
  C   C1600     1.0  0.55083  0.04377  0.75586  1.0000
  N   N156      1.0  0.66206  0.24540  0.96564  1.0000
  H   H2560     1.0  0.57821  0.22746  0.90439  1.0000
  N   N157      1.0  0.59228  0.21100  0.91784  1.0000
  H   H2561     1.0  0.57700  0.16096  0.81086  1.0000
  C   C1601     1.0  0.59023  0.22188  0.90391  1.0000
  H   H2562     1.0  0.57549  0.10919  0.73525  1.0000
  H   H2563     1.0  0.62982  0.04880  0.76849  1.0000
  H   H2564     1.0  0.61238  0.29515  0.90743  1.0000
  C   C1602     1.0  0.57269  0.13620  0.86657  1.0000
  H   H2565     1.0  0.55453  0.11966  0.88694  1.0000
  H   H2566     1.0  0.56548  0.14028  0.85835  1.0000
  H   H2567     1.0  0.58214  0.14205  0.86230  1.0000
  H   H2568     1.0  0.57759  0.12419  0.86701  1.0000
  H   H2569     1.0  0.56768  0.13453  0.90323  1.0000
  N   N158      1.0  0.51422  0.09406  0.84449  1.0000
  C   C1603     1.0  0.49772  0.09899  0.84711  1.0000
  H   H2570     1.0  0.61520  0.21226  0.91471  1.0000
  C   C1604     1.0  0.49844  0.11511  0.88673  1.0000
  C   C1605     1.0  0.51918  0.09311  0.85799  1.0000
  S   S663      1.0  0.61884  0.22254  0.93952  1.0000
  C   C1606     1.0  0.55401  0.12285  0.76518  1.0000
  H   H2571     1.0  0.51752  0.10598  0.82180  1.0000
  H   H2572     1.0  0.64387  0.04972  0.93416  1.0000
  H   H2573     1.0  0.47752  0.11917  0.95775  1.0000
  C   C1607     1.0  0.50848  0.21206  0.85867  1.0000
  C   C1608     1.0  0.47839  0.06969  0.73787  1.0000
  Fe  Fe328     1.0  0.50647  0.29589  0.87990  1.0000
  H   H2574     1.0  0.64500  0.31290  0.89460  1.0000
  H   H2575     1.0  0.54330  0.23987  0.87167  1.0000
  H   H2576     1.0  0.55377  0.28261  0.88389  1.0000
  C   C1609     1.0  0.62229  0.21405  0.96796  1.0000
  C   C1610     1.0  0.57557  0.04864  0.74515  1.0000
  H   H2577     1.0  0.56193  0.26446  0.83860  1.0000
  C   C1611     1.0  0.64959  0.19993  0.87586  1.0000
  H   H2578     1.0  0.57630  0.23116  0.84164  1.0000
  Fe  Fe329     1.0  0.50013  0.15332  0.84813  1.0000
  Fe  Fe330     1.0  0.50691  0.09846  0.78232  1.0000
  C   C1612     1.0  0.51883  0.07934  0.84070  1.0000
  C   C1613     1.0  0.50519  0.12715  0.79619  1.0000
  H   H2579     1.0  0.59659  0.23069  0.90162  1.0000
  C   C1614     1.0  0.54626  0.11445  0.74773  1.0000
  C   C1615     1.0  0.56902  0.02797  0.74067  1.0000
  H   H2580     1.0  0.65298  0.04454  0.84229  1.0000
  H   H2581     1.0  0.49410  0.18919  0.91689  1.0000
  C   C1616     1.0  0.51573  0.22374  0.85586  1.0000
  C   C1617     1.0  0.50454  0.06327  0.73928  1.0000
  N   N159      1.0  0.56407  0.13890  0.88123  1.0000
  C   C1618     1.0  0.55103  0.13187  0.88600  1.0000
  H   H2582     1.0  0.54351  0.13637  0.87803  1.0000
  H   H2583     1.0  0.45542  0.00231  0.75159  1.0000
  H   H2584     1.0  0.37198  0.28057  0.93071  1.0000
  H   H2585     1.0  0.57788  0.12031  0.89313  1.0000
  H   H2586     1.0  0.64454  0.21672  0.88841  1.0000
  H   H2587     1.0  0.56564  0.08922  0.75594  1.0000
  H   H2588     1.0  0.58501  0.24546  0.84184  1.0000
  H   H2589     1.0  0.59423  0.21646  0.89430  1.0000
  H   H2590     1.0  0.65879  0.99609  0.82722  1.0000
  H   H2591     1.0  0.58383  0.13736  0.88866  1.0000
  H   H2592     1.0  0.54411  0.13382  0.89696  1.0000
  H   H2593     1.0  0.52983  0.08775  0.80220  1.0000
  H   H2594     1.0  0.56827  0.16080  0.87637  1.0000
  C   C1619     1.0  0.55877  0.15505  0.88024  1.0000
  H   H2595     1.0  0.55143  0.16013  0.87218  1.0000
  H   H2596     1.0  0.44396  0.13103  0.96796  1.0000
  H   H2597     1.0  0.59117  0.08565  0.74254  1.0000
  H   H2598     1.0  0.55228  0.15760  0.89109  1.0000
  H   H2599     1.0  0.49389  0.11023  0.84970  1.0000
  C   C1620     1.0  0.65333  0.20369  0.96014  1.0000
  S   S664      1.0  0.52672  0.27885  0.87252  1.0000
  H   H2600     1.0  0.51789  0.11610  0.83468  1.0000
  H   H2601     1.0  0.51270  0.14804  0.81554  1.0000
  S   S665      1.0  0.51407  0.12867  0.89696  1.0000
  H   H2602     1.0  0.50486  0.20706  0.89458  1.0000
  C   C1621     1.0  0.50461  0.11489  0.89838  1.0000
  H   H2603     1.0  0.63882  0.29592  0.90345  1.0000
  C   C1622     1.0  0.62502  0.31038  0.88100  1.0000
  S   S666      1.0  0.34005  0.27818  0.95249  1.0000
  H   H2604     1.0  0.58440  0.22946  0.85685  1.0000
  H   H2605     1.0  0.59290  0.12260  0.83045  1.0000
  H   H2606     1.0  0.60024  0.13877  0.82725  1.0000
  C   C1623     1.0  0.59082  0.13481  0.82601  1.0000
  H   H2607     1.0  0.59697  0.15896  0.80558  1.0000
  H   H2608     1.0  0.64605  0.14232  0.91142  1.0000
  C   C1624     1.0  0.50271  0.21477  0.90205  1.0000
  C   C1625     1.0  0.58368  0.19955  0.92044  1.0000
  C   C1626     1.0  0.58751  0.15484  0.80467  1.0000
  C   C1627     1.0  0.60327  0.13102  0.80154  1.0000
  S   S667      1.0  0.53755  0.05577  0.80921  1.0000
  N   N160      1.0  0.58950  0.13863  0.81044  1.0000
  H   H2609     1.0  0.60531  0.11880  0.80581  1.0000
  H   H2610     1.0  0.58682  0.15798  0.79284  1.0000
  H   H2611     1.0  0.60262  0.13330  0.78976  1.0000
  N   N161      1.0  0.56343  0.04336  0.74279  1.0000
  C   C1628     1.0  0.57642  0.13377  0.80956  1.0000
  H   H2612     1.0  0.56576  0.13976  0.81571  1.0000
  C   C1629     1.0  0.52113  0.10487  0.83215  1.0000
  C   C1630     1.0  0.64627  0.20367  0.97496  1.0000
  Fe  Fe331     1.0  0.65794  0.09611  0.94530  1.0000
  S   S668      1.0  0.51016  0.25404  0.89761  1.0000
  C   C1631     1.0  0.60938  0.30745  0.90564  1.0000
  H   H2613     1.0  0.54937  0.10702  0.73984  1.0000
  H   H2614     1.0  0.57728  0.12170  0.81441  1.0000
  H   H2615     1.0  0.51444  0.20197  0.85497  1.0000
  H   H2616     1.0  0.46316  0.11686  0.95046  1.0000
  H   H2617     1.0  0.58528  0.19094  0.93069  1.0000
  C   C1632     1.0  0.58685  0.21865  0.93028  1.0000
  S   S669      1.0  0.47978  0.06451  0.97450  1.0000
  H   H2618     1.0  0.45127  0.30008  0.90661  1.0000
  H   H2619     1.0  0.54621  0.05524  0.75773  1.0000
  C   C1633     1.0  0.35559  0.24147  0.97680  1.0000
  H   H2620     1.0  0.38956  0.26263  0.96296  1.0000
  H   H2621     1.0  0.65524  0.26413  0.97584  1.0000
  S   S670      1.0  0.65396  0.23896  0.91630  1.0000
  N   N162      1.0  0.55867  0.11271  0.75490  1.0000
  H   H2622     1.0  0.64672  0.00845  0.77469  1.0000
  H   H2623     1.0  0.58527  0.04849  0.73553  1.0000
  S   S671      1.0  0.38258  0.20234  0.96957  1.0000
  S   S672      1.0  0.50055  0.08391  0.80465  1.0000
  H   H2624     1.0  0.49210  0.09130  0.85657  1.0000
  C   C1634     1.0  0.65223  0.05676  0.92878  1.0000
  Fe  Fe332     1.0  0.52007  0.06708  0.79599  1.0000
  H   H2625     1.0  0.63979  0.19561  0.88185  1.0000
  C   C1635     1.0  0.50697  0.14120  0.81286  1.0000
  H   H2626     1.0  0.63776  0.07605  0.89871  1.0000
  H   H2627     1.0  0.61279  0.19779  0.90768  1.0000
  S   S673      1.0  0.52719  0.08193  0.77422  1.0000
  Fe  Fe333     1.0  0.62945  0.23940  0.92172  1.0000
  Fe  Fe334     1.0  0.49884  0.17802  0.86290  1.0000
  H   H2628     1.0  0.56010  0.22582  0.87367  1.0000
  H   H2629     1.0  0.52732  0.22259  0.84995  1.0000
  S   S674      1.0  0.41547  0.98864  0.88134  1.0000
  H   H2630     1.0  0.50108  0.22624  0.89510  1.0000
  H   H2631     1.0  0.51298  0.21279  0.90628  1.0000
  H   H2632     1.0  0.51523  0.07965  0.83057  1.0000
  H   H2633     1.0  0.51389  0.07087  0.84979  1.0000
  S   S675      1.0  0.50691  0.05703  0.78702  1.0000
  C   C1636     1.0  0.49345  0.21357  0.86603  1.0000
  H   H2634     1.0  0.55173  0.22849  0.85836  1.0000
  C   C1637     1.0  0.55425  0.23439  0.86549  1.0000
  H   H2635     1.0  0.57976  0.04162  0.75509  1.0000
  H   H2636     1.0  0.54145  0.03989  0.75444  1.0000
  Fe  Fe335     1.0  0.65777  0.01569  0.88396  1.0000
  H   H2637     1.0  0.47796  0.20739  0.90087  1.0000
  C   C1638     1.0  0.49389  0.13754  0.82253  1.0000
  Fe  Fe336     1.0  0.65157  0.24397  0.89283  1.0000
  C   C1639     1.0  0.57793  0.23755  0.84887  1.0000
  Fe  Fe337     1.0  0.64689  0.26363  0.91430  1.0000
  S   S676      1.0  0.62234  0.26357  0.92195  1.0000
  H   H2638     1.0  0.62893  0.06505  0.91552  1.0000
  Fe  Fe338     1.0  0.62260  0.26676  0.89799  1.0000
  S   S677      1.0  0.60420  0.28277  0.88753  1.0000
  S   S678      1.0  0.64670  0.26873  0.89018  1.0000
  C   C1640     1.0  0.63232  0.03684  0.77399  1.0000
  H   H2639     1.0  0.57185  0.24883  0.91793  1.0000
  N   N163      1.0  0.64864  0.03084  0.77215  1.0000
  C   C1641     1.0  0.48998  0.07156  0.74303  1.0000
  Fe  Fe339     1.0  0.52548  0.26849  0.89647  1.0000
  C   C1642     1.0  0.45575  0.99575  0.74401  1.0000
  C   C1643     1.0  0.65578  0.03266  0.75623  1.0000
  H   H2640     1.0  0.62715  0.03094  0.76902  1.0000
  C   C1644     1.0  0.65652  0.04969  0.90556  1.0000
  H   H2641     1.0  0.45294  0.00799  0.97779  1.0000
  H   H2642     1.0  0.63433  0.99782  0.89060  1.0000
  C   C1645     1.0  0.45099  0.12565  0.97627  1.0000
  H   H2643     1.0  0.45044  0.31476  0.93861  1.0000
  S   S679      1.0  0.51937  0.06648  0.74449  1.0000
  H   H2644     1.0  0.46327  0.03039  0.96834  1.0000
  H   H2645     1.0  0.45512  0.09012  0.97388  1.0000
  C   C1646     1.0  0.65632  0.23910  0.95657  1.0000
  C   C1647     1.0  0.65150  0.01493  0.77942  1.0000
  C   C1648     1.0  0.44662  0.31117  0.93055  1.0000
  H   H2646     1.0  0.44200  0.10628  0.96714  1.0000
  H   H2647     1.0  0.43245  0.98518  0.82004  1.0000
  H   H2648     1.0  0.43559  0.31576  0.90665  1.0000
  H   H2649     1.0  0.65363  0.04453  0.75032  1.0000
  H   H2650     1.0  0.56015  0.02378  0.73865  1.0000
  C   C1649     1.0  0.63352  0.06936  0.73029  1.0000
  C   C1650     1.0  0.46412  0.99866  0.72944  1.0000
  H   H2651     1.0  0.55359  0.06470  0.73082  1.0000
  C   C1651     1.0  0.36121  0.22762  0.97294  1.0000
  H   H2652     1.0  0.66043  0.07527  0.83071  1.0000
  C   C1652     1.0  0.65586  0.13346  0.90816  1.0000
  H   H2653     1.0  0.65676  0.12428  0.91813  1.0000
  H   H2654     1.0  0.63431  0.31524  0.87308  1.0000
  H   H2655     1.0  0.47554  0.31733  0.90117  1.0000
  H   H2656     1.0  0.64760  0.06875  0.82488  1.0000
  H   H2657     1.0  0.36716  0.30817  0.94715  1.0000
  C   C1653     1.0  0.63532  0.30820  0.90190  1.0000
  H   H2658     1.0  0.65325  0.12906  0.89989  1.0000
  H   H2659     1.0  0.65853  0.16068  0.89190  1.0000
  C   C1654     1.0  0.65961  0.06913  0.82285  1.0000
  H   H2660     1.0  0.65710  0.05348  0.89345  1.0000
  H   H2661     1.0  0.66154  0.08100  0.91154  1.0000
  C   C1655     1.0  0.55824  0.05306  0.72951  1.0000
  H   H2662     1.0  0.61498  0.31440  0.87603  1.0000
  N   N164      1.0  0.62181  0.31411  0.89559  1.0000
  C   C1656     1.0  0.44804  0.31240  0.90495  1.0000
  C   C1657     1.0  0.37251  0.31448  0.93687  1.0000
  H   H2663     1.0  0.39846  0.98487  0.85658  1.0000
  H   H2664     1.0  0.34480  0.24801  0.97483  1.0000
  Fe  Fe340     1.0  0.33980  0.27900  0.97554  1.0000
  C   C1658     1.0  0.37522  0.21913  0.97538  1.0000
  H   H2665     1.0  0.32944  0.28474  0.89094  1.0000
  H   H2666     1.0  0.47442  0.31644  0.92024  1.0000
  H   H2667     1.0  0.32956  0.27822  0.91785  1.0000
  H   H2668     1.0  0.38950  0.31726  0.94611  1.0000
  H   H2669     1.0  0.33283  0.31753  0.90166  1.0000
  H   H2670     1.0  0.62668  0.98627  0.86753  1.0000
  N   N165      1.0  0.45346  0.31759  0.91514  1.0000
  C   C1659     1.0  0.32952  0.29005  0.91678  1.0000
  C   C1660     1.0  0.36667  0.31789  0.92424  1.0000
  H   H2671     1.0  0.34209  0.43300  0.16083  1.0000
  H   H2672     1.0  0.60347  0.53390  0.13494  1.0000
  C   C1661     1.0  0.65111  0.64963  0.09917  1.0000
  Fe  Fe341     1.0  0.37295  0.39174  0.13706  1.0000
  S   S680      1.0  0.38115  0.37108  0.15312  1.0000
  S   S681      1.0  0.36762  0.41349  0.14422  1.0000
  Fe  Fe342     1.0  0.37050  0.37408  0.11640  1.0000
  S   S682      1.0  0.37884  0.35209  0.13064  1.0000
  S   S683      1.0  0.36354  0.37526  0.09558  1.0000
  Fe  Fe343     1.0  0.36348  0.36222  0.14923  1.0000
  S   S684      1.0  0.34691  0.35072  0.16687  1.0000
  Fe  Fe344     1.0  0.39570  0.36292  0.13298  1.0000
  S   S685      1.0  0.42040  0.35239  0.13107  1.0000
  S   S686      1.0  0.35403  0.38346  0.13488  1.0000
  S   S687      1.0  0.38874  0.38433  0.11702  1.0000
  H   H2673     1.0  0.55448  0.58276  0.15635  1.0000
  C   C1662     1.0  0.42653  0.33299  0.13252  1.0000
  H   H2674     1.0  0.44411  0.58880  0.98235  1.0000
  H   H2675     1.0  0.60900  0.62080  0.06461  1.0000
  H   H2676     1.0  0.44987  0.33392  0.12503  1.0000
  N   N166      1.0  0.40385  0.32560  0.09678  1.0000
  H   H2677     1.0  0.51368  0.64606  0.15247  1.0000
  C   C1663     1.0  0.35357  0.33497  0.11109  1.0000
  C   C1664     1.0  0.35548  0.34904  0.11039  1.0000
  C   C1665     1.0  0.35795  0.35901  0.09678  1.0000
  C   C1666     1.0  0.35703  0.35540  0.08400  1.0000
  C   C1667     1.0  0.35463  0.34141  0.08476  1.0000
  S   S688      1.0  0.33193  0.63343  0.04788  1.0000
  H   H2678     1.0  0.35499  0.35216  0.12043  1.0000
  H   H2679     1.0  0.35880  0.36316  0.07345  1.0000
  H   H2680     1.0  0.35447  0.33839  0.07482  1.0000
  H   H2681     1.0  0.63656  0.62218  0.03958  1.0000
  H   H2682     1.0  0.64456  0.32168  0.18726  1.0000
  C   C1668     1.0  0.62026  0.61740  0.06730  1.0000
  H   H2683     1.0  0.57886  0.53733  0.16253  1.0000
  C   C1669     1.0  0.41447  0.39399  0.12995  1.0000
  H   H2684     1.0  0.42150  0.40812  0.15522  1.0000
  S   S689      1.0  0.41050  0.45877  0.11675  1.0000
  H   H2685     1.0  0.34361  0.47295  0.13574  1.0000
  C   C1670     1.0  0.39773  0.44700  0.12383  1.0000
  C   C1671     1.0  0.38677  0.44831  0.13679  1.0000
  C   C1672     1.0  0.37736  0.43816  0.14275  1.0000
  C   C1673     1.0  0.37880  0.42670  0.13576  1.0000
  C   C1674     1.0  0.38936  0.42575  0.12249  1.0000
  C   C1675     1.0  0.39893  0.43576  0.11665  1.0000
  H   H2686     1.0  0.38573  0.45698  0.14237  1.0000
  H   H2687     1.0  0.36911  0.43906  0.15295  1.0000
  H   H2688     1.0  0.39017  0.41731  0.11673  1.0000
  H   H2689     1.0  0.40724  0.43487  0.10648  1.0000
  H   H2690     1.0  0.37128  0.62389  0.00763  1.0000
  H   H2691     1.0  0.34156  0.51614  0.97949  1.0000
  C   C1676     1.0  0.41565  0.32999  0.10075  1.0000
  C   C1677     1.0  0.51209  0.63452  0.15738  1.0000
  S   S690      1.0  0.65245  0.61489  0.99312  1.0000
  S   S691      1.0  0.39279  0.64703  0.05984  1.0000
  H   H2692     1.0  0.45449  0.60964  0.98294  1.0000
  H   H2693     1.0  0.41376  0.64029  0.03401  1.0000
  H   H2694     1.0  0.44156  0.39906  0.12672  1.0000
  H   H2695     1.0  0.41709  0.40301  0.12015  1.0000
  N   N167      1.0  0.42158  0.39352  0.14187  1.0000
  C   C1678     1.0  0.41734  0.38167  0.15472  1.0000
  C   C1679     1.0  0.41640  0.40801  0.14622  1.0000
  C   C1680     1.0  0.43803  0.39038  0.13651  1.0000
  H   H2696     1.0  0.33602  0.61444  0.00831  1.0000
  H   H2697     1.0  0.44220  0.37950  0.13315  1.0000
  H   H2698     1.0  0.41931  0.41722  0.13672  1.0000
  H   H2699     1.0  0.40399  0.41072  0.15018  1.0000
  H   H2700     1.0  0.42270  0.38075  0.16390  1.0000
  Fe  Fe345     1.0  0.40887  0.63775  0.07480  1.0000
  C   C1681     1.0  0.33814  0.64269  0.05756  1.0000
  H   H2701     1.0  0.41833  0.38338  0.12612  1.0000
  C   C1682     1.0  0.64247  0.64132  0.09666  1.0000
  C   C1683     1.0  0.59709  0.64569  0.18604  1.0000
  C   C1684     1.0  0.41636  0.32368  0.13720  1.0000
  H   H2702     1.0  0.56623  0.33951  0.11209  1.0000
  H   H2703     1.0  0.42075  0.37065  0.15167  1.0000
  C   C1685     1.0  0.52386  0.62697  0.13426  1.0000
  N   N168      1.0  0.57705  0.32227  0.12777  1.0000
  N   N169      1.0  0.44497  0.63808  0.10824  1.0000
  H   H2704     1.0  0.46427  0.62050  0.10409  1.0000
  C   C1686     1.0  0.43511  0.62772  0.11675  1.0000
  C   C1687     1.0  0.34026  0.47929  0.14423  1.0000
  Fe  Fe346     1.0  0.65857  0.62881  0.00471  1.0000
  S   S692      1.0  0.40200  0.47952  0.14943  1.0000
  H   H2705     1.0  0.44381  0.38995  0.14522  1.0000
  H   H2706     1.0  0.40498  0.38381  0.15911  1.0000
  H   H2707     1.0  0.40207  0.39592  0.13382  1.0000
  Fe  Fe347     1.0  0.40477  0.47955  0.12554  1.0000
  C   C1688     1.0  0.35111  0.48395  0.14804  1.0000
  H   H2708     1.0  0.36275  0.48097  0.14264  1.0000
  H   H2709     1.0  0.38092  0.51258  0.17062  1.0000
  H   H2710     1.0  0.47858  0.61902  0.18984  1.0000
  S   S693      1.0  0.40265  0.62493  0.99490  1.0000
  Fe  Fe348     1.0  0.45667  0.57045  0.15290  1.0000
  S   S694      1.0  0.43678  0.55947  0.16213  1.0000
  Fe  Fe349     1.0  0.46203  0.60154  0.14873  1.0000
  S   S695      1.0  0.45170  0.62506  0.15115  1.0000
  Fe  Fe350     1.0  0.47400  0.58518  0.12356  1.0000
  S   S696      1.0  0.47717  0.59006  0.09886  1.0000
  S   S697      1.0  0.45110  0.59206  0.13699  1.0000
  S   S698      1.0  0.46579  0.58062  0.16601  1.0000
  C   C1689     1.0  0.47243  0.62673  0.18190  1.0000
  H   H2711     1.0  0.41156  0.48550  0.18702  1.0000
  S   S699      1.0  0.43430  0.49909  0.14934  1.0000
  Fe  Fe351     1.0  0.39877  0.51325  0.11635  1.0000
  S   S700      1.0  0.39839  0.53302  0.09741  1.0000
  S   S701      1.0  0.39484  0.51604  0.13942  1.0000
  C   C1690     1.0  0.58380  0.61038  0.98423  1.0000
  S   S702      1.0  0.41308  0.61320  0.08443  1.0000
  C   C1691     1.0  0.38823  0.50006  0.20499  1.0000
  Fe  Fe352     1.0  0.63209  0.63312  0.99083  1.0000
  Fe  Fe353     1.0  0.38205  0.49800  0.14563  1.0000
  H   H2712     1.0  0.65662  0.33176  0.18987  1.0000
  C   C1692     1.0  0.58102  0.54735  0.15383  1.0000
  C   C1693     1.0  0.54654  0.58263  0.15030  1.0000
  H   H2713     1.0  0.56560  0.34475  0.12877  1.0000
  H   H2714     1.0  0.37640  0.50203  0.21135  1.0000
  C   C1694     1.0  0.33444  0.33846  0.15211  1.0000
  H   H2715     1.0  0.38895  0.34705  0.09643  1.0000
  C   C1695     1.0  0.38162  0.54622  0.10028  1.0000
  C   C1696     1.0  0.37416  0.55291  0.08871  1.0000
  C   C1697     1.0  0.36022  0.56273  0.09112  1.0000
  C   C1698     1.0  0.35388  0.56620  0.10499  1.0000
  C   C1699     1.0  0.36154  0.55982  0.11647  1.0000
  C   C1700     1.0  0.37536  0.54974  0.11415  1.0000
  H   H2716     1.0  0.37893  0.55010  0.07800  1.0000
  H   H2717     1.0  0.35424  0.56722  0.08233  1.0000
  H   H2718     1.0  0.35665  0.56245  0.12723  1.0000
  H   H2719     1.0  0.38114  0.54471  0.12309  1.0000
  H   H2720     1.0  0.39309  0.50933  0.20500  1.0000
  S   S703      1.0  0.48464  0.59659  0.13388  1.0000
  C   C1701     1.0  0.60277  0.62157  0.98633  1.0000
  H   H2721     1.0  0.43821  0.61754  0.11227  1.0000
  C   C1702     1.0  0.43124  0.60575  0.08746  1.0000
  C   C1703     1.0  0.44348  0.61098  0.07763  1.0000
  C   C1704     1.0  0.45782  0.60550  0.08075  1.0000
  C   C1705     1.0  0.45982  0.59504  0.09383  1.0000
  C   C1706     1.0  0.44768  0.58937  0.10331  1.0000
  C   C1707     1.0  0.43340  0.59468  0.10010  1.0000
  H   H2722     1.0  0.44188  0.61934  0.06770  1.0000
  H   H2723     1.0  0.46725  0.60977  0.07330  1.0000
  H   H2724     1.0  0.44928  0.58102  0.11322  1.0000
  H   H2725     1.0  0.42392  0.59068  0.10771  1.0000
  C   C1708     1.0  0.45848  0.63130  0.16290  1.0000
  H   H2726     1.0  0.38331  0.48543  0.17890  1.0000
  C   C1709     1.0  0.63076  0.63230  0.04405  1.0000
  H   H2727     1.0  0.56497  0.63499  0.17890  1.0000
  C   C1710     1.0  0.46636  0.62135  0.17325  1.0000
  C   C1711     1.0  0.43647  0.54288  0.15796  1.0000
  C   C1712     1.0  0.44964  0.53262  0.15381  1.0000
  C   C1713     1.0  0.44886  0.51925  0.15111  1.0000
  C   C1714     1.0  0.43496  0.51626  0.15210  1.0000
  C   C1715     1.0  0.42182  0.52671  0.15584  1.0000
  C   C1716     1.0  0.42257  0.53983  0.15905  1.0000
  H   H2728     1.0  0.46040  0.53483  0.15307  1.0000
  H   H2729     1.0  0.45907  0.51116  0.14832  1.0000
  H   H2730     1.0  0.41106  0.52453  0.15670  1.0000
  H   H2731     1.0  0.41236  0.54772  0.16230  1.0000
  H   H2732     1.0  0.38544  0.33603  0.08603  1.0000
  H   H2733     1.0  0.59323  0.33477  0.12614  1.0000
  H   H2734     1.0  0.39450  0.48966  0.21113  1.0000
  H   H2735     1.0  0.66186  0.50766  0.14421  1.0000
  C   C1717     1.0  0.40969  0.63319  0.01651  1.0000
  H   H2736     1.0  0.65076  0.61451  0.05893  1.0000
  H   H2737     1.0  0.40949  0.62199  0.02285  1.0000
  H   H2738     1.0  0.64208  0.64185  0.08546  1.0000
  H   H2739     1.0  0.33931  0.59660  0.02062  1.0000
  H   H2740     1.0  0.51738  0.58287  0.12894  1.0000
  N   N170      1.0  0.36606  0.60963  0.09522  1.0000
  C   C1718     1.0  0.36960  0.62415  0.09334  1.0000
  C   C1719     1.0  0.37938  0.59960  0.08833  1.0000
  C   C1720     1.0  0.35358  0.61170  0.08807  1.0000
  C   C1721     1.0  0.36166  0.60305  0.11116  1.0000
  H   H2741     1.0  0.35991  0.63193  0.09867  1.0000
  H   H2742     1.0  0.37249  0.62962  0.08145  1.0000
  H   H2743     1.0  0.37932  0.62300  0.09816  1.0000
  H   H2744     1.0  0.37698  0.58865  0.08923  1.0000
  H   H2745     1.0  0.38328  0.60447  0.07639  1.0000
  H   H2746     1.0  0.38893  0.59754  0.09369  1.0000
  H   H2747     1.0  0.35089  0.60093  0.08894  1.0000
  H   H2748     1.0  0.60956  0.64695  0.06305  1.0000
  S   S704      1.0  0.34101  0.59312  0.06549  1.0000
  H   H2749     1.0  0.37083  0.60134  0.11691  1.0000
  H   H2750     1.0  0.35884  0.59211  0.11296  1.0000
  H   H2751     1.0  0.35158  0.61030  0.11667  1.0000
  H   H2752     1.0  0.37027  0.48876  0.19558  1.0000
  N   N171      1.0  0.38913  0.49905  0.18976  1.0000
  C   C1722     1.0  0.38243  0.48675  0.19023  1.0000
  H   H2753     1.0  0.34440  0.53665  0.12837  1.0000
  C   C1723     1.0  0.38085  0.51314  0.18199  1.0000
  H   H2754     1.0  0.40113  0.34479  0.07894  1.0000
  S   S705      1.0  0.47914  0.56278  0.13858  1.0000
  H   H2755     1.0  0.57597  0.32585  0.14912  1.0000
  H   H2756     1.0  0.44158  0.64825  0.12646  1.0000
  H   H2757     1.0  0.46848  0.63808  0.10231  1.0000
  H   H2758     1.0  0.43587  0.62421  0.12859  1.0000
  H   H2759     1.0  0.41074  0.33788  0.10826  1.0000
  H   H2760     1.0  0.35221  0.32709  0.12161  1.0000
  H   H2761     1.0  0.55381  0.33294  0.12901  1.0000
  S   S706      1.0  0.38399  0.49703  0.12221  1.0000
  N   N172      1.0  0.35734  0.60798  0.01437  1.0000
  Fe  Fe354     1.0  0.41508  0.49757  0.14089  1.0000
  N   N173      1.0  0.43268  0.54739  0.10755  1.0000
  C   C1724     1.0  0.43167  0.53164  0.11164  1.0000
  C   C1725     1.0  0.42053  0.55643  0.09996  1.0000
  C   C1726     1.0  0.44735  0.54897  0.09759  1.0000
  C   C1727     1.0  0.43116  0.55253  0.12105  1.0000
  H   H2762     1.0  0.43264  0.52735  0.10174  1.0000
  H   H2763     1.0  0.42073  0.53009  0.11917  1.0000
  H   H2764     1.0  0.44062  0.52445  0.11747  1.0000
  C   C1728     1.0  0.34120  0.60805  0.01786  1.0000
  H   H2765     1.0  0.42122  0.55267  0.08982  1.0000
  H   H2766     1.0  0.40930  0.55550  0.10720  1.0000
  H   H2767     1.0  0.44849  0.56074  0.09435  1.0000
  H   H2768     1.0  0.44890  0.54517  0.08727  1.0000
  H   H2769     1.0  0.45676  0.54231  0.10301  1.0000
  H   H2770     1.0  0.43174  0.56437  0.11851  1.0000
  H   H2771     1.0  0.44028  0.54607  0.12690  1.0000
  H   H2772     1.0  0.42030  0.55136  0.12893  1.0000
  H   H2773     1.0  0.35407  0.63013  0.00123  1.0000
  H   H2774     1.0  0.33921  0.56501  0.01302  1.0000
  H   H2775     1.0  0.36204  0.58801  0.03083  1.0000
  H   H2776     1.0  0.42303  0.32021  0.10647  1.0000
  H   H2777     1.0  0.34509  0.33063  0.15053  1.0000
  C   C1729     1.0  0.65169  0.64915  0.11361  1.0000
  C   C1730     1.0  0.47095  0.64203  0.17993  1.0000
  H   H2778     1.0  0.33507  0.61325  0.02743  1.0000
  C   C1731     1.0  0.56552  0.54403  0.13954  1.0000
  C   C1732     1.0  0.44340  0.64267  0.09272  1.0000
  C   C1733     1.0  0.34688  0.49248  0.15873  1.0000
  Fe  Fe355     1.0  0.48794  0.57484  0.15023  1.0000
  S   S707      1.0  0.33355  0.33367  0.03223  1.0000
  H   H2779     1.0  0.46780  0.60953  0.17456  1.0000
  H   H2780     1.0  0.58103  0.62225  0.00100  1.0000
  H   H2781     1.0  0.57248  0.55707  0.15719  1.0000
  H   H2782     1.0  0.52583  0.63823  0.12844  1.0000
  H   H2783     1.0  0.33844  0.50862  0.10402  1.0000
  H   H2784     1.0  0.34664  0.53882  0.09556  1.0000
  H   H2785     1.0  0.61918  0.64076  0.07792  1.0000
  H   H2786     1.0  0.49795  0.61249  0.16273  1.0000
  H   H2787     1.0  0.40451  0.32825  0.14047  1.0000
  H   H2788     1.0  0.34318  0.61877  0.09334  1.0000
  H   H2789     1.0  0.37726  0.60097  0.99855  1.0000
  H   H2790     1.0  0.50609  0.60706  0.14547  1.0000
  H   H2791     1.0  0.40608  0.49591  0.17014  1.0000
  C   C1734     1.0  0.56514  0.33547  0.12426  1.0000
  H   H2792     1.0  0.36039  0.60699  0.99172  1.0000
  C   C1735     1.0  0.40501  0.49627  0.18181  1.0000
  C   C1736     1.0  0.61027  0.64404  0.16098  1.0000
  C   C1737     1.0  0.36380  0.59958  0.02732  1.0000
  C   C1738     1.0  0.65486  0.51707  0.14868  1.0000
  H   H2793     1.0  0.57531  0.63528  0.16031  1.0000
  H   H2794     1.0  0.42101  0.56838  0.09659  1.0000
  H   H2795     1.0  0.52304  0.62149  0.12586  1.0000
  S   S708      1.0  0.63693  0.64550  0.00480  1.0000
  S   S709      1.0  0.41983  0.49580  0.11731  1.0000
  C   C1739     1.0  0.35923  0.62341  0.01067  1.0000
  S   S710      1.0  0.36012  0.49985  0.16237  1.0000
  H   H2796     1.0  0.33122  0.54766  0.10805  1.0000
  H   H2797     1.0  0.34835  0.50080  0.11869  1.0000
  C   C1740     1.0  0.36508  0.60097  0.00165  1.0000
  C   C1741     1.0  0.34590  0.51081  0.10984  1.0000
  H   H2798     1.0  0.36017  0.52767  0.11624  1.0000
  C   C1742     1.0  0.58846  0.61854  0.99135  1.0000
  H   H2799     1.0  0.42317  0.63288  0.11640  1.0000
  H   H2800     1.0  0.61978  0.63649  0.04074  1.0000
  H   H2801     1.0  0.36886  0.51569  0.18778  1.0000
  H   H2802     1.0  0.53401  0.62052  0.13859  1.0000
  H   H2803     1.0  0.38810  0.47597  0.19635  1.0000
  S   S711      1.0  0.48005  0.64874  0.18939  1.0000
  C   C1743     1.0  0.63147  0.32574  0.15067  1.0000
  H   H2804     1.0  0.37607  0.59898  0.02486  1.0000
  H   H2805     1.0  0.52189  0.62802  0.16226  1.0000
  C   C1744     1.0  0.46072  0.63063  0.10875  1.0000
  H   H2806     1.0  0.35672  0.51192  0.10181  1.0000
  C   C1745     1.0  0.64541  0.32907  0.14929  1.0000
  H   H2807     1.0  0.62118  0.33346  0.15407  1.0000
  H   H2808     1.0  0.64579  0.33934  0.15154  1.0000
  H   H2809     1.0  0.35135  0.51698  0.13319  1.0000
  S   S712      1.0  0.33630  0.57824  0.10821  1.0000
  C   C1746     1.0  0.62084  0.64276  0.06571  1.0000
  C   C1747     1.0  0.64454  0.52756  0.14096  1.0000
  H   H2810     1.0  0.59504  0.56087  0.12705  1.0000
  N   N174      1.0  0.62891  0.62911  0.06028  1.0000
  H   H2811     1.0  0.59220  0.54887  0.15386  1.0000
  C   C1748     1.0  0.65635  0.32293  0.18462  1.0000
  H   H2812     1.0  0.36390  0.58928  0.00415  1.0000
  H   H2813     1.0  0.55629  0.63321  0.16535  1.0000
  C   C1749     1.0  0.39445  0.33894  0.08920  1.0000
  C   C1750     1.0  0.65595  0.51865  0.16228  1.0000
  H   H2814     1.0  0.64291  0.62028  0.07617  1.0000
  H   H2815     1.0  0.59369  0.33016  0.10911  1.0000
  H   H2816     1.0  0.57278  0.60786  0.98840  1.0000
  H   H2817     1.0  0.64738  0.53201  0.17866  1.0000
  Fe  Fe356     1.0  0.58199  0.59756  0.13516  1.0000
  S   S713      1.0  0.58857  0.58178  0.15542  1.0000
  S   S714      1.0  0.56115  0.60110  0.12663  1.0000
  Fe  Fe357     1.0  0.61173  0.60777  0.12484  1.0000
  S   S715      1.0  0.62095  0.59275  0.14418  1.0000
  S   S716      1.0  0.62396  0.62190  0.10495  1.0000
  Fe  Fe358     1.0  0.61120  0.57555  0.14064  1.0000
  Fe  Fe359     1.0  0.59764  0.60037  0.15724  1.0000
  S   S717      1.0  0.59210  0.60797  0.17864  1.0000
  S   S718      1.0  0.60382  0.59013  0.12020  1.0000
  S   S719      1.0  0.58921  0.61666  0.13803  1.0000
  C   C1751     1.0  0.64382  0.62399  0.06401  1.0000
  C   C1752     1.0  0.52540  0.58286  0.13497  1.0000
  C   C1753     1.0  0.64666  0.53079  0.16808  1.0000
  C   C1754     1.0  0.53492  0.57498  0.15733  1.0000
  S   S720      1.0  0.60802  0.63163  0.99598  1.0000
  C   C1755     1.0  0.53702  0.59043  0.12794  1.0000
  H   H2818     1.0  0.38584  0.52264  0.18103  1.0000
  H   H2819     1.0  0.57555  0.56952  0.13084  1.0000
  H   H2820     1.0  0.43603  0.62136  0.98463  1.0000
  C   C1756     1.0  0.58363  0.55937  0.12796  1.0000
  C   C1757     1.0  0.54753  0.59045  0.13560  1.0000
  N   N175      1.0  0.58054  0.54589  0.13913  1.0000
  C   C1758     1.0  0.41193  0.64359  0.02289  1.0000
  H   H2821     1.0  0.62947  0.55082  0.16473  1.0000
  C   C1759     1.0  0.63447  0.63238  0.10855  1.0000
  C   C1760     1.0  0.49717  0.63659  0.14008  1.0000
  H   H2822     1.0  0.46232  0.62705  0.12029  1.0000
  C   C1761     1.0  0.64353  0.64038  0.12555  1.0000
  H   H2823     1.0  0.65013  0.63300  0.06001  1.0000
  C   C1762     1.0  0.63500  0.63191  0.12301  1.0000
  C   C1763     1.0  0.50793  0.61247  0.15339  1.0000
  H   H2824     1.0  0.62896  0.62495  0.13221  1.0000
  C   C1764     1.0  0.59806  0.62433  0.17660  1.0000
  C   C1765     1.0  0.60650  0.63042  0.16305  1.0000
  H   H2825     1.0  0.51774  0.60526  0.15787  1.0000
  C   C1766     1.0  0.45657  0.64658  0.16133  1.0000
  C   C1767     1.0  0.59347  0.63189  0.18817  1.0000
  H   H2826     1.0  0.61002  0.62467  0.15410  1.0000
  H   H2827     1.0  0.35856  0.60496  0.03689  1.0000
  H   H2828     1.0  0.58694  0.62719  0.19869  1.0000
  H   H2829     1.0  0.53781  0.59636  0.11652  1.0000
  C   C1768     1.0  0.35346  0.33103  0.09825  1.0000
  H   H2830     1.0  0.41061  0.50510  0.18154  1.0000
  C   C1769     1.0  0.44192  0.32682  0.12862  1.0000
  S   S721      1.0  0.62250  0.55251  0.13662  1.0000
  H   H2831     1.0  0.33710  0.41092  0.15625  1.0000
  C   C1770     1.0  0.63542  0.53982  0.14665  1.0000
  H   H2832     1.0  0.49530  0.63156  0.13185  1.0000
  H   H2833     1.0  0.35372  0.62893  0.02013  1.0000
  H   H2834     1.0  0.35631  0.61705  0.07610  1.0000
  H   H2835     1.0  0.59214  0.53147  0.12409  1.0000
  H   H2836     1.0  0.61854  0.61486  0.07958  1.0000
  H   H2837     1.0  0.64364  0.52617  0.13053  1.0000
  H   H2838     1.0  0.41796  0.32030  0.07644  1.0000
  H   H2839     1.0  0.55664  0.55384  0.14222  1.0000
  C   C1771     1.0  0.40716  0.63744  0.00218  1.0000
  S   S722      1.0  0.50921  0.56643  0.15904  1.0000
  C   C1772     1.0  0.59202  0.53283  0.13520  1.0000
  C   C1773     1.0  0.52418  0.57528  0.14975  1.0000
  H   H2840     1.0  0.56265  0.53413  0.14804  1.0000
  H   H2841     1.0  0.58292  0.55890  0.11680  1.0000
  C   C1774     1.0  0.63655  0.54148  0.16020  1.0000
  H   H2842     1.0  0.53401  0.56913  0.16878  1.0000
  H   H2843     1.0  0.59004  0.52243  0.14337  1.0000
  H   H2844     1.0  0.56480  0.54273  0.12868  1.0000
  N   N176      1.0  0.51026  0.62764  0.14628  1.0000
  H   H2845     1.0  0.44753  0.63319  0.08719  1.0000
  H   H2846     1.0  0.62618  0.60690  0.06359  1.0000
  C   C1775     1.0  0.56402  0.63901  0.16712  1.0000
  H   H2847     1.0  0.42567  0.60067  0.98403  1.0000
  S   S723      1.0  0.33905  0.56888  0.04128  1.0000
  H   H2848     1.0  0.33948  0.43325  0.13606  1.0000
  C   C1776     1.0  0.33609  0.53726  0.10385  1.0000
  N   N177      1.0  0.33893  0.52421  0.11600  1.0000
  C   C1777     1.0  0.39441  0.31832  0.11032  1.0000
  C   C1778     1.0  0.59187  0.32610  0.12132  1.0000
  H   H2849     1.0  0.64402  0.63993  0.13674  1.0000
  C   C1779     1.0  0.65875  0.31906  0.14497  1.0000
  C   C1780     1.0  0.33180  0.49572  0.16609  1.0000
  H   H2850     1.0  0.38882  0.32591  0.11803  1.0000
  H   H2851     1.0  0.63764  0.64077  0.03841  1.0000
  H   H2852     1.0  0.50207  0.63508  0.16666  1.0000
  H   H2853     1.0  0.61668  0.64874  0.15037  1.0000
  C   C1781     1.0  0.34916  0.52649  0.12379  1.0000
  H   H2854     1.0  0.42295  0.33556  0.09081  1.0000
  C   C1782     1.0  0.33261  0.34996  0.15912  1.0000
  H   H2855     1.0  0.65955  0.32706  0.17246  1.0000
  C   C1783     1.0  0.35022  0.64953  0.05037  1.0000
  H   H2856     1.0  0.49849  0.64812  0.13460  1.0000
  H   H2857     1.0  0.35555  0.64905  0.03901  1.0000
  C   C1784     1.0  0.33128  0.64329  0.07229  1.0000
  H   H2858     1.0  0.48679  0.63740  0.14889  1.0000
  H   H2859     1.0  0.43149  0.64732  0.09201  1.0000
  C   C1785     1.0  0.32975  0.43730  0.16383  1.0000
  C   C1786     1.0  0.33663  0.65059  0.07984  1.0000
  H   H2860     1.0  0.33131  0.65103  0.09123  1.0000
  C   C1787     1.0  0.44062  0.65131  0.11470  1.0000
  H   H2861     1.0  0.44981  0.65133  0.08616  1.0000
  H   H2862     1.0  0.66238  0.65049  0.01217  1.0000
  H   H2863     1.0  0.40200  0.45900  0.89723  1.0000
  S   S724      1.0  0.43084  0.45078  0.90506  1.0000
  H   H2864     1.0  0.54958  0.62896  0.96179  1.0000
  H   H2865     1.0  0.37295  0.54326  0.93168  1.0000
  H   H2866     1.0  0.54769  0.53848  0.91852  1.0000
  C   C1788     1.0  0.41881  0.44015  0.90445  1.0000
  H   H2867     1.0  0.45356  0.43073  0.87095  1.0000
  Fe  Fe360     1.0  0.40018  0.38965  0.89544  1.0000
  S   S725      1.0  0.40814  0.38957  0.87141  1.0000
  S   S726      1.0  0.38906  0.41245  0.89996  1.0000
  Fe  Fe361     1.0  0.40698  0.35589  0.90368  1.0000
  S   S727      1.0  0.41502  0.35325  0.88013  1.0000
  S   S728      1.0  0.40655  0.33602  0.92261  1.0000
  Fe  Fe362     1.0  0.42704  0.37104  0.87778  1.0000
  S   S729      1.0  0.45025  0.37311  0.86497  1.0000
  Fe  Fe363     1.0  0.39519  0.37197  0.87619  1.0000
  S   S730      1.0  0.37867  0.37740  0.86173  1.0000
  S   S731      1.0  0.42029  0.37261  0.90160  1.0000
  S   S732      1.0  0.38610  0.37303  0.89997  1.0000
  Fe  Fe364     1.0  0.41893  0.47404  0.90752  1.0000
  H   H2868     1.0  0.38594  0.44379  0.89491  1.0000
  H   H2869     1.0  0.60833  0.64106  0.94415  1.0000
  C   C1789     1.0  0.46541  0.35775  0.86668  1.0000
  H   H2870     1.0  0.45576  0.39701  0.87564  1.0000
  C   C1790     1.0  0.39619  0.43840  0.89873  1.0000
  C   C1791     1.0  0.42317  0.42463  0.90767  1.0000
  H   H2871     1.0  0.33228  0.49325  0.87872  1.0000
  C   C1792     1.0  0.40527  0.44703  0.90003  1.0000
  C   C1793     1.0  0.47973  0.36053  0.86360  1.0000
  C   C1794     1.0  0.34759  0.36949  0.89908  1.0000
  H   H2872     1.0  0.38439  0.42498  0.86959  1.0000
  C   C1795     1.0  0.35014  0.43042  0.86234  1.0000
  H   H2873     1.0  0.62342  0.61906  0.96991  1.0000
  H   H2874     1.0  0.48121  0.37183  0.86035  1.0000
  H   H2875     1.0  0.45585  0.40320  0.84935  1.0000
  C   C1796     1.0  0.44472  0.41089  0.85167  1.0000
  H   H2876     1.0  0.36187  0.44118  0.91216  1.0000
  H   H2877     1.0  0.38475  0.40889  0.85318  1.0000
  H   H2878     1.0  0.53874  0.52376  0.89077  1.0000
  N   N178      1.0  0.44265  0.60989  0.96686  1.0000
  H   H2879     1.0  0.33330  0.45515  0.94313  1.0000
  C   C1797     1.0  0.39172  0.32836  0.92313  1.0000
  C   C1798     1.0  0.38607  0.33142  0.91045  1.0000
  H   H2880     1.0  0.34154  0.47016  0.94218  1.0000
  H   H2881     1.0  0.58644  0.61113  0.88968  1.0000
  H   H2882     1.0  0.39118  0.33801  0.90023  1.0000
  C   C1799     1.0  0.42691  0.64360  0.87185  1.0000
  H   H2883     1.0  0.44363  0.41969  0.84149  1.0000
  H   H2884     1.0  0.43612  0.40431  0.85370  1.0000
  C   C1800     1.0  0.35052  0.34457  0.86531  1.0000
  C   C1801     1.0  0.36358  0.33957  0.87091  1.0000
  C   C1802     1.0  0.37225  0.34957  0.87010  1.0000
  C   C1803     1.0  0.36806  0.36452  0.86328  1.0000
  C   C1804     1.0  0.35507  0.36946  0.85759  1.0000
  C   C1805     1.0  0.34620  0.35956  0.85880  1.0000
  H   H2885     1.0  0.36698  0.32795  0.87591  1.0000
  H   H2886     1.0  0.38231  0.34567  0.87443  1.0000
  H   H2887     1.0  0.35184  0.38100  0.85223  1.0000
  H   H2888     1.0  0.37405  0.55004  0.90478  1.0000
  H   H2889     1.0  0.37396  0.40225  0.87991  1.0000
  H   H2890     1.0  0.34341  0.43479  0.87222  1.0000
  C   C1806     1.0  0.47630  0.33118  0.87164  1.0000
  C   C1807     1.0  0.44479  0.40499  0.87766  1.0000
  H   H2891     1.0  0.44418  0.40924  0.88744  1.0000
  C   C1808     1.0  0.37304  0.43119  0.86788  1.0000
  C   C1809     1.0  0.40059  0.42289  0.90188  1.0000
  C   C1810     1.0  0.41409  0.41599  0.90635  1.0000
  H   H2892     1.0  0.41746  0.40401  0.90895  1.0000
  S   S733      1.0  0.39548  0.47737  0.92105  1.0000
  H   H2893     1.0  0.42664  0.43253  0.87650  1.0000
  H   H2894     1.0  0.37429  0.44106  0.85865  1.0000
  H   H2895     1.0  0.36690  0.43543  0.87805  1.0000
  N   N179      1.0  0.44302  0.41717  0.86453  1.0000
  C   C1811     1.0  0.57055  0.64482  0.92961  1.0000
  H   H2896     1.0  0.36768  0.40883  0.84893  1.0000
  H   H2897     1.0  0.35693  0.40169  0.87576  1.0000
  H   H2898     1.0  0.46607  0.41873  0.85927  1.0000
  H   H2899     1.0  0.34066  0.55997  0.93424  1.0000
  H   H2900     1.0  0.33242  0.46450  0.91700  1.0000
  N   N180      1.0  0.44013  0.63727  0.87857  1.0000
  H   H2901     1.0  0.64936  0.62597  0.94756  1.0000
  H   H2902     1.0  0.64058  0.63822  0.91049  1.0000
  H   H2903     1.0  0.55188  0.51088  0.92607  1.0000
  C   C1812     1.0  0.48514  0.64574  0.88955  1.0000
  H   H2904     1.0  0.37408  0.45537  0.92976  1.0000
  H   H2905     1.0  0.33628  0.53498  0.93519  1.0000
  H   H2906     1.0  0.56824  0.63930  0.96644  1.0000
  H   H2907     1.0  0.34438  0.49894  0.94205  1.0000
  C   C1813     1.0  0.33965  0.59223  0.96150  1.0000
  C   C1814     1.0  0.44624  0.61731  0.97652  1.0000
  C   C1815     1.0  0.46988  0.63527  0.91270  1.0000
  H   H2908     1.0  0.36452  0.47422  0.92356  1.0000
  H   H2909     1.0  0.61504  0.33361  0.90461  1.0000
  H   H2910     1.0  0.34050  0.56522  0.91492  1.0000
  H   H2911     1.0  0.64462  0.43512  0.95679  1.0000
  C   C1816     1.0  0.35582  0.44222  0.92363  1.0000
  H   H2912     1.0  0.42832  0.61516  0.95163  1.0000
  H   H2913     1.0  0.43358  0.41929  0.91122  1.0000
  H   H2914     1.0  0.42600  0.43590  0.85749  1.0000
  N   N181      1.0  0.35252  0.45770  0.92532  1.0000
  H   H2915     1.0  0.57873  0.63440  0.92764  1.0000
  H   H2916     1.0  0.45409  0.59873  0.94912  1.0000
  C   C1817     1.0  0.46365  0.34304  0.87066  1.0000
  C   C1818     1.0  0.49059  0.33409  0.86885  1.0000
  H   H2917     1.0  0.43071  0.61900  0.89285  1.0000
  H   H2918     1.0  0.37549  0.42509  0.84171  1.0000
  H   H2919     1.0  0.54638  0.62801  0.90330  1.0000
  C   C1819     1.0  0.37362  0.41592  0.85155  1.0000
  H   H2920     1.0  0.45361  0.43514  0.85159  1.0000
  H   H2921     1.0  0.35110  0.44013  0.85287  1.0000
  H   H2922     1.0  0.35643  0.41303  0.88790  1.0000
  C   C1820     1.0  0.45459  0.42583  0.86142  1.0000
  C   C1821     1.0  0.36300  0.40911  0.87768  1.0000
  H   H2923     1.0  0.45265  0.34086  0.87261  1.0000
  N   N182      1.0  0.36498  0.42166  0.86485  1.0000
  C   C1822     1.0  0.42799  0.42698  0.86740  1.0000
  C   C1823     1.0  0.60816  0.64566  0.93258  1.0000
  C   C1824     1.0  0.49221  0.34879  0.86476  1.0000
  C   C1825     1.0  0.44114  0.62120  0.88467  1.0000
  H   H2924     1.0  0.43593  0.39852  0.88067  1.0000
  H   H2925     1.0  0.41896  0.42065  0.87066  1.0000
  H   H2926     1.0  0.56422  0.61992  0.94894  1.0000
  S   S734      1.0  0.34877  0.46876  0.86512  1.0000
  H   H2927     1.0  0.34915  0.46654  0.90323  1.0000
  H   H2928     1.0  0.52395  0.51561  0.90373  1.0000
  H   H2929     1.0  0.37757  0.46812  0.86975  1.0000
  S   S735      1.0  0.38316  0.62391  0.96577  1.0000
  C   C1826     1.0  0.36936  0.47679  0.87454  1.0000
  S   S736      1.0  0.48141  0.58400  0.92858  1.0000
  H   H2930     1.0  0.43629  0.63014  0.95124  1.0000
  H   H2931     1.0  0.44740  0.54297  0.93557  1.0000
  N   N183      1.0  0.42737  0.53654  0.93593  1.0000
  C   C1827     1.0  0.61753  0.33040  0.89382  1.0000
  C   C1828     1.0  0.44376  0.53336  0.93446  1.0000
  H   H2932     1.0  0.56611  0.64253  0.86499  1.0000
  H   H2933     1.0  0.57704  0.60898  0.87702  1.0000
  S   S737      1.0  0.33993  0.63232  0.97797  1.0000
  H   H2934     1.0  0.42274  0.54968  0.95206  1.0000
  C   C1829     1.0  0.42306  0.52349  0.93441  1.0000
  Fe  Fe365     1.0  0.46617  0.56847  0.93288  1.0000
  S   S738      1.0  0.46730  0.56983  0.90910  1.0000
  S   S739      1.0  0.44334  0.57015  0.94779  1.0000
  Fe  Fe366     1.0  0.48684  0.55053  0.91106  1.0000
  S   S740      1.0  0.48433  0.54809  0.93532  1.0000
  Fe  Fe367     1.0  0.39087  0.49740  0.90309  1.0000
  S   S741      1.0  0.36765  0.50571  0.89876  1.0000
  Fe  Fe368     1.0  0.42015  0.50623  0.90072  1.0000
  C   C1830     1.0  0.42299  0.54949  0.92424  1.0000
  S   S742      1.0  0.43023  0.52635  0.89052  1.0000
  H   H2935     1.0  0.58285  0.63136  0.95275  1.0000
  S   S743      1.0  0.39225  0.49656  0.95339  1.0000
  S   S744      1.0  0.41380  0.49298  0.88841  1.0000
  S   S745      1.0  0.39674  0.51240  0.91342  1.0000
  C   C1831     1.0  0.65989  0.50992  0.92621  1.0000
  H   H2936     1.0  0.56253  0.64756  0.92228  1.0000
  C   C1832     1.0  0.34777  0.55961  0.92301  1.0000
  H   H2937     1.0  0.63482  0.64152  0.94230  1.0000
  H   H2938     1.0  0.43684  0.33803  0.91387  1.0000
  C   C1833     1.0  0.36483  0.54425  0.90672  1.0000
  H   H2939     1.0  0.45069  0.61615  0.89032  1.0000
  H   H2940     1.0  0.42624  0.51346  0.94300  1.0000
  C   C1834     1.0  0.35096  0.60021  0.95472  1.0000
  H   H2941     1.0  0.42281  0.53034  0.95967  1.0000
  C   C1835     1.0  0.33984  0.61701  0.97145  1.0000
  H   H2942     1.0  0.46287  0.63636  0.92346  1.0000
  H   H2943     1.0  0.34364  0.42356  0.86017  1.0000
  C   C1836     1.0  0.36413  0.53719  0.93297  1.0000
  H   H2944     1.0  0.39609  0.60638  0.94457  1.0000
  H   H2945     1.0  0.33619  0.36345  0.85437  1.0000
  C   C1837     1.0  0.47439  0.52783  0.89944  1.0000
  C   C1838     1.0  0.47010  0.51421  0.90305  1.0000
  C   C1839     1.0  0.45661  0.51351  0.90024  1.0000
  C   C1840     1.0  0.44761  0.52638  0.89349  1.0000
  C   C1841     1.0  0.45219  0.53985  0.88947  1.0000
  C   C1842     1.0  0.46545  0.54061  0.89257  1.0000
  H   H2946     1.0  0.47701  0.50428  0.90834  1.0000
  H   H2947     1.0  0.45321  0.50304  0.90325  1.0000
  H   H2948     1.0  0.44536  0.54980  0.88409  1.0000
  H   H2949     1.0  0.46886  0.55107  0.88941  1.0000
  C   C1843     1.0  0.41494  0.61457  0.92957  1.0000
  C   C1844     1.0  0.41673  0.59009  0.94586  1.0000
  C   C1845     1.0  0.43219  0.58678  0.94019  1.0000
  C   C1846     1.0  0.43891  0.59715  0.92888  1.0000
  C   C1847     1.0  0.43035  0.61111  0.92377  1.0000
  H   H2950     1.0  0.33961  0.36390  0.92899  1.0000
  H   H2951     1.0  0.45083  0.59470  0.92445  1.0000
  H   H2952     1.0  0.43583  0.61943  0.91590  1.0000
  C   C1848     1.0  0.48758  0.63265  0.88468  1.0000
  H   H2953     1.0  0.35706  0.53690  0.94436  1.0000
  C   C1849     1.0  0.47249  0.62210  0.90789  1.0000
  Fe  Fe369     1.0  0.36137  0.64052  0.96826  1.0000
  H   H2954     1.0  0.35970  0.61878  0.95419  1.0000
  H   H2955     1.0  0.46724  0.61320  0.91484  1.0000
  H   H2956     1.0  0.42758  0.63812  0.86287  1.0000
  S   S746      1.0  0.48370  0.60492  0.88711  1.0000
  H   H2957     1.0  0.35959  0.59693  0.94549  1.0000
  H   H2958     1.0  0.56224  0.61371  0.90792  1.0000
  H   H2959     1.0  0.41075  0.52544  0.93550  1.0000
  H   H2960     1.0  0.35071  0.45135  0.94883  1.0000
  C   C1850     1.0  0.34973  0.50114  0.94949  1.0000
  Fe  Fe370     1.0  0.40253  0.49228  0.93062  1.0000
  C   C1851     1.0  0.37253  0.50039  0.95666  1.0000
  C   C1852     1.0  0.43170  0.62051  0.95860  1.0000
  H   H2961     1.0  0.44756  0.52358  0.94300  1.0000
  C   C1853     1.0  0.34809  0.49908  0.88708  1.0000
  C   C1854     1.0  0.36294  0.49593  0.88853  1.0000
  H   H2962     1.0  0.44295  0.61513  0.87583  1.0000
  C   C1855     1.0  0.57358  0.64120  0.95444  1.0000
  C   C1856     1.0  0.59329  0.60536  0.97185  1.0000
  H   H2963     1.0  0.61495  0.60483  0.95697  1.0000
  H   H2964     1.0  0.42837  0.54723  0.91303  1.0000
  C   C1857     1.0  0.48135  0.62078  0.89386  1.0000
  H   H2965     1.0  0.34461  0.34193  0.90103  1.0000
  N   N184      1.0  0.35508  0.54419  0.92164  1.0000
  C   C1858     1.0  0.36383  0.50708  0.96835  1.0000
  C   C1859     1.0  0.40807  0.60394  0.94040  1.0000
  H   H2966     1.0  0.35615  0.56637  0.92123  1.0000
  H   H2967     1.0  0.41146  0.58205  0.95452  1.0000
  H   H2968     1.0  0.34534  0.43815  0.92605  1.0000
  H   H2969     1.0  0.44987  0.53095  0.92348  1.0000
  H   H2970     1.0  0.37303  0.46246  0.91069  1.0000
  H   H2971     1.0  0.42640  0.55944  0.92488  1.0000
  C   C1860     1.0  0.34357  0.53569  0.92388  1.0000
  H   H2972     1.0  0.41067  0.55239  0.92513  1.0000
  N   N185      1.0  0.33546  0.36219  0.90880  1.0000
  C   C1861     1.0  0.34379  0.49088  0.87966  1.0000
  H   H2973     1.0  0.34528  0.37474  0.88789  1.0000
  H   H2974     1.0  0.35855  0.36140  0.89760  1.0000
  H   H2975     1.0  0.42130  0.62490  0.96623  1.0000
  Fe  Fe371     1.0  0.48391  0.58394  0.90479  1.0000
  C   C1862     1.0  0.41970  0.53987  0.95060  1.0000
  S   S747      1.0  0.49042  0.52903  0.90430  1.0000
  H   H2976     1.0  0.42861  0.52071  0.92343  1.0000
  C   C1863     1.0  0.33409  0.35060  0.90225  1.0000
  H   H2977     1.0  0.40730  0.54233  0.95211  1.0000
  C   C1864     1.0  0.57142  0.63878  0.89184  1.0000
  H   H2978     1.0  0.52140  0.53528  0.89808  1.0000
  C   C1865     1.0  0.36540  0.49742  0.94727  1.0000
  S   S748      1.0  0.50685  0.31996  0.87022  1.0000
  C   C1866     1.0  0.54703  0.51106  0.91675  1.0000
  C   C1867     1.0  0.35107  0.61256  0.95968  1.0000
  C   C1868     1.0  0.34109  0.50826  0.96087  1.0000
  H   H2979     1.0  0.38510  0.48239  0.88330  1.0000
  S   S749      1.0  0.42673  0.48712  0.91897  1.0000
  H   H2980     1.0  0.47512  0.31982  0.87427  1.0000
  H   H2981     1.0  0.37190  0.49247  0.93814  1.0000
  H   H2982     1.0  0.54179  0.50129  0.91998  1.0000
  H   H2983     1.0  0.57927  0.64482  0.88291  1.0000
  S   S750      1.0  0.64280  0.64617  0.96932  1.0000
  H   H2984     1.0  0.34882  0.52411  0.92251  1.0000
  C   C1869     1.0  0.35441  0.47974  0.87338  1.0000
  C   C1870     1.0  0.37360  0.48480  0.88225  1.0000
  C   C1871     1.0  0.55881  0.63636  0.87444  1.0000
  Fe  Fe372     1.0  0.49997  0.56368  0.92836  1.0000
  H   H2985     1.0  0.46151  0.61399  0.94898  1.0000
  C   C1872     1.0  0.66114  0.64833  0.92816  1.0000
  H   H2986     1.0  0.33985  0.50771  0.89189  1.0000
  C   C1873     1.0  0.64363  0.63224  0.93834  1.0000
  C   C1874     1.0  0.45644  0.60463  0.95632  1.0000
  H   H2987     1.0  0.62668  0.33576  0.88629  1.0000
  H   H2988     1.0  0.33051  0.34914  0.93096  1.0000
  H   H2989     1.0  0.64615  0.45349  0.94619  1.0000
  H   H2990     1.0  0.55288  0.61211  0.89502  1.0000
  H   H2991     1.0  0.37007  0.53277  0.90512  1.0000
  H   H2992     1.0  0.49432  0.63173  0.87377  1.0000
  C   C1875     1.0  0.52982  0.52489  0.90093  1.0000
  C   C1876     1.0  0.37374  0.32597  0.91095  1.0000
  C   C1877     1.0  0.55659  0.62021  0.89873  1.0000
  H   H2993     1.0  0.50322  0.35110  0.86244  1.0000
  H   H2994     1.0  0.63789  0.62465  0.93624  1.0000
  H   H2995     1.0  0.46506  0.59671  0.96215  1.0000
  Fe  Fe373     1.0  0.59917  0.59038  0.94123  1.0000
  S   S751      1.0  0.62163  0.59518  0.92932  1.0000
  Fe  Fe374     1.0  0.59405  0.58293  0.91457  1.0000
  S   S752      1.0  0.61631  0.58708  0.90055  1.0000
  S   S753      1.0  0.57755  0.58111  0.90271  1.0000
  Fe  Fe375     1.0  0.62521  0.57459  0.92092  1.0000
  S   S754      1.0  0.64861  0.56033  0.92053  1.0000
  Fe  Fe376     1.0  0.61062  0.60702  0.91029  1.0000
  S   S755      1.0  0.61086  0.63019  0.89697  1.0000
  S   S756      1.0  0.60326  0.56879  0.93436  1.0000
  S   S757      1.0  0.58792  0.60375  0.92283  1.0000
  S   S758      1.0  0.51884  0.55866  0.94003  1.0000
  C   C1878     1.0  0.56097  0.57570  0.91358  1.0000
  C   C1879     1.0  0.54875  0.57848  0.90706  1.0000
  C   C1880     1.0  0.53553  0.57388  0.91532  1.0000
  C   C1881     1.0  0.53463  0.56605  0.93000  1.0000
  C   C1882     1.0  0.54681  0.56339  0.93657  1.0000
  C   C1883     1.0  0.55991  0.56835  0.92843  1.0000
  H   H2996     1.0  0.54950  0.58420  0.89559  1.0000
  H   H2997     1.0  0.52612  0.57623  0.91023  1.0000
  H   H2998     1.0  0.54615  0.55740  0.94796  1.0000
  H   H2999     1.0  0.56930  0.56618  0.93353  1.0000
  H   H3000     1.0  0.55287  0.53693  0.89949  1.0000
  C   C1884     1.0  0.65111  0.44144  0.94672  1.0000
  H   H3001     1.0  0.34117  0.47930  0.91531  1.0000
  C   C1885     1.0  0.65186  0.54088  0.92379  1.0000
  C   C1886     1.0  0.64271  0.53379  0.92033  1.0000
  C   C1887     1.0  0.64678  0.51833  0.92146  1.0000
  H   H3002     1.0  0.63276  0.54028  0.91637  1.0000
  H   H3003     1.0  0.63990  0.51294  0.91839  1.0000
  S   S759      1.0  0.33969  0.57700  0.95475  1.0000
  C   C1888     1.0  0.54333  0.53773  0.90923  1.0000
  H   H3004     1.0  0.54753  0.63156  0.94320  1.0000
  C   C1889     1.0  0.60892  0.64211  0.90849  1.0000
  C   C1890     1.0  0.60860  0.63640  0.92355  1.0000
  C   C1891     1.0  0.34415  0.45862  0.94056  1.0000
  H   H3005     1.0  0.60880  0.62481  0.92826  1.0000
  C   C1892     1.0  0.33903  0.35538  0.92351  1.0000
  H   H3006     1.0  0.53533  0.54843  0.90637  1.0000
  H   H3007     1.0  0.64936  0.43871  0.93693  1.0000
  H   H3008     1.0  0.33164  0.35535  0.89103  1.0000
  C   C1893     1.0  0.52369  0.52653  0.92650  1.0000
  H   H3009     1.0  0.42826  0.64332  0.89930  1.0000
  C   C1894     1.0  0.55566  0.63041  0.94999  1.0000
  H   H3010     1.0  0.55647  0.50956  0.90704  1.0000
  H   H3011     1.0  0.35005  0.34738  0.92266  1.0000
  H   H3012     1.0  0.51541  0.53713  0.92437  1.0000
  H   H3013     1.0  0.34891  0.37837  0.90361  1.0000
  H   H3014     1.0  0.35838  0.54980  0.89793  1.0000
  S   S760      1.0  0.50379  0.56471  0.90415  1.0000
  H   H3015     1.0  0.52786  0.52659  0.93617  1.0000
  S   S761      1.0  0.40472  0.63262  0.92430  1.0000
  N   N186      1.0  0.53598  0.52505  0.91334  1.0000
  C   C1895     1.0  0.34340  0.46746  0.91476  1.0000
  C   C1896     1.0  0.36666  0.46262  0.92224  1.0000
  H   H3016     1.0  0.51752  0.51744  0.92973  1.0000
  H   H3017     1.0  0.45104  0.62709  0.96998  1.0000
  N   N187      1.0  0.56269  0.64336  0.94530  1.0000
  H   H3018     1.0  0.33626  0.54082  0.91578  1.0000
  H   H3019     1.0  0.56163  0.64724  0.89597  1.0000
  N   N188      1.0  0.65436  0.63783  0.92494  1.0000
  H   H3020     1.0  0.36979  0.52555  0.93228  1.0000
  H   H3021     1.0  0.44828  0.64020  0.89596  1.0000
  H   H3022     1.0  0.58803  0.62294  0.87156  1.0000
  S   S762      1.0  0.58647  0.59549  0.96328  1.0000
  H   H3023     1.0  0.36923  0.50934  0.97571  1.0000
  H   H3024     1.0  0.60735  0.33519  0.88907  1.0000
  C   C1897     1.0  0.64646  0.64556  0.91281  1.0000
  H   H3025     1.0  0.46405  0.63449  0.87190  1.0000
  H   H3026     1.0  0.54865  0.64464  0.87832  1.0000
  C   C1898     1.0  0.60755  0.60867  0.96652  1.0000
  C   C1899     1.0  0.61235  0.61670  0.97384  1.0000
  S   S763      1.0  0.33954  0.33205  0.86681  1.0000
  C   C1900     1.0  0.38516  0.31959  0.93627  1.0000
  Fe  Fe377     1.0  0.39011  0.64008  0.94477  1.0000
  H   H3027     1.0  0.36949  0.32834  0.90108  1.0000
  C   C1901     1.0  0.43857  0.64473  0.89056  1.0000
  C   C1902     1.0  0.45388  0.63957  0.86723  1.0000
  H   H3028     1.0  0.45278  0.33822  0.92017  1.0000
  C   C1903     1.0  0.58014  0.61737  0.88088  1.0000
  H   H3029     1.0  0.45436  0.33916  0.90099  1.0000
  C   C1904     1.0  0.44918  0.33396  0.91243  1.0000
  Fe  Fe378     1.0  0.39070  0.63728  0.97660  1.0000
  C   C1905     1.0  0.47627  0.64707  0.90356  1.0000
  H   H3030     1.0  0.55509  0.62872  0.87012  1.0000
  H   H3031     1.0  0.36301  0.43457  0.93118  1.0000
  H   H3032     1.0  0.43325  0.59129  0.96902  1.0000
  H   H3033     1.0  0.57742  0.63299  0.90094  1.0000
  C   C1906     1.0  0.34815  0.51109  0.97038  1.0000
  N   N189      1.0  0.56674  0.62818  0.88647  1.0000
  H   H3034     1.0  0.41636  0.64217  0.88024  1.0000
  H   H3035     1.0  0.45527  0.63436  0.85785  1.0000
  C   C1907     1.0  0.43614  0.59710  0.97599  1.0000
  H   H3036     1.0  0.65432  0.64941  0.90236  1.0000
  H   H3037     1.0  0.33013  0.39068  0.87203  1.0000
  H   H3038     1.0  0.66137  0.61714  0.91798  1.0000
  H   H3039     1.0  0.57873  0.65098  0.95159  1.0000
  H   H3040     1.0  0.47961  0.67645  0.22285  1.0000
  H   H3041     1.0  0.42979  0.70170  0.12892  1.0000
  Fe  Fe379     1.0  0.48195  0.67193  0.17742  1.0000
  S   S764      1.0  0.48407  0.71224  0.15632  1.0000
  C   C1908     1.0  0.56958  0.66240  0.16575  1.0000
  H   H3042     1.0  0.39623  0.72561  0.11518  1.0000
  C   C1909     1.0  0.46110  0.72862  0.09616  1.0000
  Fe  Fe380     1.0  0.40705  0.66358  0.04816  1.0000
  S   S765      1.0  0.39427  0.68031  0.06188  1.0000
  S   S766      1.0  0.41201  0.67184  0.02357  1.0000
  C   C1910     1.0  0.54395  0.65978  0.17259  1.0000
  Fe  Fe381     1.0  0.38136  0.66270  0.07481  1.0000
  S   S767      1.0  0.35644  0.66502  0.08269  1.0000
  Fe  Fe382     1.0  0.41084  0.66839  0.07622  1.0000
  S   S768      1.0  0.42470  0.67896  0.08410  1.0000
  H   H3043     1.0  0.49295  0.73770  0.19473  1.0000
  C   C1911     1.0  0.65609  0.95850  0.17869  1.0000
  Fe  Fe383     1.0  0.47608  0.70359  0.18058  1.0000
  S   S769      1.0  0.46589  0.71929  0.19600  1.0000
  H   H3044     1.0  0.41233  0.69652  0.13183  1.0000
  Fe  Fe384     1.0  0.47164  0.69703  0.15319  1.0000
  S   S770      1.0  0.45724  0.70202  0.13679  1.0000
  S   S771      1.0  0.46164  0.69043  0.17734  1.0000
  H   H3045     1.0  0.65824  0.76074  0.05338  1.0000
  C   C1912     1.0  0.46465  0.71303  0.11996  1.0000
  C   C1913     1.0  0.45689  0.71773  0.10854  1.0000
  C   C1914     1.0  0.47763  0.71803  0.11819  1.0000
  H   H3046     1.0  0.44734  0.71336  0.10942  1.0000
  H   H3047     1.0  0.64550  0.69246  0.16339  1.0000
  H   H3048     1.0  0.61123  0.82097  0.21511  1.0000
  H   H3049     1.0  0.34793  0.68253  0.02824  1.0000
  H   H3050     1.0  0.45700  0.77619  0.00987  1.0000
  H   H3051     1.0  0.37819  0.66667  0.99953  1.0000
  H   H3052     1.0  0.62728  0.71180  0.14061  1.0000
  H   H3053     1.0  0.41895  0.71001  0.04906  1.0000
  H   H3054     1.0  0.59506  0.80435  0.08834  1.0000
  C   C1915     1.0  0.41906  0.69810  0.08350  1.0000
  C   C1916     1.0  0.40402  0.70541  0.08453  1.0000
  H   H3055     1.0  0.39571  0.69936  0.08528  1.0000
  C   C1917     1.0  0.48210  0.72867  0.10557  1.0000
  H   H3056     1.0  0.39606  0.73616  0.01481  1.0000
  C   C1918     1.0  0.65400  0.77856  0.03466  1.0000
  H   H3057     1.0  0.42073  0.69975  0.02761  1.0000
  N   N190      1.0  0.41038  0.71962  0.13073  1.0000
  H   H3058     1.0  0.64564  0.71278  0.14098  1.0000
  H   H3059     1.0  0.38622  0.68920  0.01069  1.0000
  C   C1919     1.0  0.40886  0.71839  0.04618  1.0000
  C   C1920     1.0  0.47358  0.71625  0.21139  1.0000
  H   H3060     1.0  0.57056  0.65903  0.17749  1.0000
  C   C1921     1.0  0.41013  0.66218  0.00026  1.0000
  H   H3061     1.0  0.54010  0.67206  0.17050  1.0000
  H   H3062     1.0  0.41027  0.67339  0.99398  1.0000
  C   C1922     1.0  0.60637  0.82709  0.20529  1.0000
  H   H3063     1.0  0.40817  0.72840  0.05020  1.0000
  H   H3064     1.0  0.55473  0.67226  0.14400  1.0000
  H   H3065     1.0  0.64201  0.90581  0.22388  1.0000
  C   C1923     1.0  0.42972  0.70598  0.08271  1.0000
  H   H3066     1.0  0.39466  0.74344  0.03039  1.0000
  C   C1924     1.0  0.47908  0.76614  0.98834  1.0000
  H   H3067     1.0  0.42977  0.72889  0.12587  1.0000
  H   H3068     1.0  0.62399  0.84140  0.21073  1.0000
  N   N191      1.0  0.36564  0.68542  0.00884  1.0000
  H   H3069     1.0  0.45463  0.73280  0.08770  1.0000
  S   S772      1.0  0.64397  0.86108  0.16375  1.0000
  C   C1925     1.0  0.41061  0.70840  0.02524  1.0000
  C   C1926     1.0  0.46298  0.65193  0.16965  1.0000
  H   H3070     1.0  0.38555  0.72865  0.03271  1.0000
  H   H3071     1.0  0.63906  0.83267  0.18125  1.0000
  H   H3072     1.0  0.58454  0.66193  0.98467  1.0000
  H   H3073     1.0  0.48406  0.71396  0.12665  1.0000
  H   H3074     1.0  0.60430  0.81869  0.20062  1.0000
  H   H3075     1.0  0.65737  0.71657  0.01249  1.0000
  C   C1927     1.0  0.62187  0.74338  0.22295  1.0000
  C   C1928     1.0  0.39962  0.72043  0.08526  1.0000
  H   H3076     1.0  0.42345  0.73135  0.00989  1.0000
  C   C1929     1.0  0.35730  0.68847  0.02347  1.0000
  H   H3077     1.0  0.35242  0.70053  0.02274  1.0000
  C   C1930     1.0  0.46622  0.72458  0.22215  1.0000
  H   H3078     1.0  0.45187  0.78364  0.98489  1.0000
  C   C1931     1.0  0.40525  0.85784  0.21696  1.0000
  C   C1932     1.0  0.60964  0.84398  0.18140  1.0000
  H   H3079     1.0  0.63629  0.81982  0.19875  1.0000
  C   C1933     1.0  0.41025  0.72827  0.08465  1.0000
  C   C1934     1.0  0.42536  0.72110  0.08309  1.0000
  H   H3080     1.0  0.44138  0.70036  0.08193  1.0000
  H   H3081     1.0  0.43361  0.72708  0.08263  1.0000
  H   H3082     1.0  0.42111  0.73249  0.11053  1.0000
  Fe  Fe385     1.0  0.41669  0.76486  0.97922  1.0000
  H   H3083     1.0  0.40073  0.70336  0.03097  1.0000
  H   H3084     1.0  0.42018  0.70674  0.11406  1.0000
  C   C1935     1.0  0.45316  0.80020  0.21626  1.0000
  H   H3085     1.0  0.45052  0.65432  0.15332  1.0000
  C   C1936     1.0  0.39582  0.73300  0.02689  1.0000
  H   H3086     1.0  0.38789  0.72595  0.08654  1.0000
  C   C1937     1.0  0.37152  0.66927  0.01030  1.0000
  S   S773      1.0  0.43144  0.97197  0.21615  1.0000
  H   H3087     1.0  0.61601  0.71870  0.22075  1.0000
  H   H3088     1.0  0.55230  0.72753  0.20810  1.0000
  C   C1938     1.0  0.45816  0.76448  0.00935  1.0000
  C   C1939     1.0  0.41852  0.70552  0.12619  1.0000
  H   H3089     1.0  0.41131  0.71067  0.01312  1.0000
  C   C1940     1.0  0.47342  0.73442  0.09488  1.0000
  H   H3090     1.0  0.62243  0.74814  0.18652  1.0000
  N   N192      1.0  0.40952  0.72201  0.03010  1.0000
  H   H3091     1.0  0.52108  0.73782  0.22390  1.0000
  H   H3092     1.0  0.35118  0.70301  0.99663  1.0000
  H   H3093     1.0  0.49280  0.69950  0.20472  1.0000
  C   C1941     1.0  0.42278  0.72831  0.02204  1.0000
  C   C1942     1.0  0.41881  0.73133  0.12271  1.0000
  H   H3094     1.0  0.49187  0.73285  0.10444  1.0000
  H   H3095     1.0  0.39890  0.71374  0.05263  1.0000
  H   H3096     1.0  0.41250  0.74236  0.12503  1.0000
  C   C1943     1.0  0.39538  0.72405  0.12723  1.0000
  S   S774      1.0  0.49101  0.67743  0.15300  1.0000
  H   H3097     1.0  0.38476  0.69097  0.99216  1.0000
  H   H3098     1.0  0.42004  0.71409  0.14973  1.0000
  S   S775      1.0  0.40715  0.76536  0.00329  1.0000
  C   C1944     1.0  0.48983  0.93587  0.14039  1.0000
  C   C1945     1.0  0.48364  0.80029  0.20964  1.0000
  H   H3099     1.0  0.60528  0.73139  0.98846  1.0000
  H   H3100     1.0  0.64228  0.71014  0.12454  1.0000
  H   H3101     1.0  0.44781  0.65940  0.10853  1.0000
  Fe  Fe386     1.0  0.42123  0.76054  0.08211  1.0000
  S   S776      1.0  0.44108  0.76010  0.06302  1.0000
  S   S777      1.0  0.40413  0.74655  0.08725  1.0000
  Fe  Fe387     1.0  0.42775  0.78566  0.09171  1.0000
  S   S778      1.0  0.44785  0.78768  0.07296  1.0000
  S   S779      1.0  0.42052  0.79578  0.11198  1.0000
  Fe  Fe388     1.0  0.43384  0.78491  0.05898  1.0000
  S   S780      1.0  0.43452  0.79717  0.03527  1.0000
  Fe  Fe389     1.0  0.45332  0.76286  0.07843  1.0000
  H   H3102     1.0  0.50112  0.95796  0.12004  1.0000
  S   S781      1.0  0.41305  0.78530  0.07717  1.0000
  S   S782      1.0  0.43417  0.76083  0.09809  1.0000
  Fe  Fe390     1.0  0.46571  0.83670  0.17134  1.0000
  S   S783      1.0  0.44681  0.83016  0.16685  1.0000
  Fe  Fe391     1.0  0.45651  0.86931  0.15700  1.0000
  S   S784      1.0  0.43695  0.86541  0.15112  1.0000
  S   S785      1.0  0.45823  0.89337  0.15073  1.0000
  Fe  Fe392     1.0  0.43314  0.85117  0.17393  1.0000
  S   S786      1.0  0.41011  0.85418  0.18856  1.0000
  Fe  Fe393     1.0  0.45231  0.84488  0.14441  1.0000
  S   S787      1.0  0.45343  0.83982  0.12247  1.0000
  S   S788      1.0  0.45150  0.85649  0.18037  1.0000
  S   S789      1.0  0.47243  0.84995  0.14829  1.0000
  Fe  Fe394     1.0  0.47577  0.95005  0.18262  1.0000
  C   C1946     1.0  0.48243  0.94318  0.11696  1.0000
  H   H3103     1.0  0.48135  0.79344  0.11522  1.0000
  H   H3104     1.0  0.37895  0.66472  0.01837  1.0000
  H   H3105     1.0  0.40290  0.72804  0.15058  1.0000
  C   C1947     1.0  0.47538  0.89337  0.16964  1.0000
  C   C1948     1.0  0.47528  0.91585  0.17677  1.0000
  S   S790      1.0  0.45298  0.96192  0.17873  1.0000
  H   H3106     1.0  0.43334  0.72030  0.02410  1.0000
  H   H3107     1.0  0.49417  0.93959  0.11099  1.0000
  C   C1949     1.0  0.46388  0.90120  0.16220  1.0000
  S   S791      1.0  0.48274  0.82014  0.18326  1.0000
  H   H3108     1.0  0.48332  0.97054  0.11862  1.0000
  C   C1950     1.0  0.45771  0.91616  0.16263  1.0000
  S   S792      1.0  0.47640  0.75024  0.08119  1.0000
  H   H3109     1.0  0.44870  0.92220  0.15702  1.0000
  C   C1951     1.0  0.42995  0.80786  0.11475  1.0000
  C   C1952     1.0  0.43856  0.81618  0.10290  1.0000
  C   C1953     1.0  0.44572  0.82587  0.10548  1.0000
  C   C1954     1.0  0.44443  0.82727  0.11991  1.0000
  C   C1955     1.0  0.43602  0.81877  0.13181  1.0000
  C   C1956     1.0  0.42866  0.80922  0.12921  1.0000
  H   H3110     1.0  0.43942  0.81539  0.09171  1.0000
  H   H3111     1.0  0.45217  0.83246  0.09621  1.0000
  H   H3112     1.0  0.43517  0.81960  0.14296  1.0000
  H   H3113     1.0  0.42204  0.80277  0.13843  1.0000
  S   S793      1.0  0.48373  0.92520  0.18449  1.0000
  C   C1957     1.0  0.46104  0.77026  0.11342  1.0000
  C   C1958     1.0  0.40883  0.71757  0.14680  1.0000
  N   N193      1.0  0.59710  0.67851  0.98120  1.0000
  H   H3114     1.0  0.47191  0.78099  0.13023  1.0000
  H   H3115     1.0  0.38748  0.86391  0.16686  1.0000
  H   H3116     1.0  0.40606  0.65506  0.98276  1.0000
  C   C1959     1.0  0.41133  0.84813  0.20724  1.0000
  C   C1960     1.0  0.41829  0.83348  0.21251  1.0000
  H   H3117     1.0  0.53194  0.69696  0.22682  1.0000
  H   H3118     1.0  0.42290  0.82590  0.20512  1.0000
  S   S794      1.0  0.36837  0.65275  0.98096  1.0000
  H   H3119     1.0  0.63687  0.67152  0.14103  1.0000
  C   C1961     1.0  0.45942  0.80919  0.20313  1.0000
  C   C1962     1.0  0.47469  0.80914  0.19974  1.0000
  H   H3120     1.0  0.43503  0.92361  0.21000  1.0000
  H   H3121     1.0  0.45240  0.81610  0.19565  1.0000
  C   C1963     1.0  0.41385  0.77524  0.01194  1.0000
  C   C1964     1.0  0.42085  0.78694  0.00387  1.0000
  C   C1965     1.0  0.42683  0.79399  0.01112  1.0000
  C   C1966     1.0  0.42583  0.78932  0.02643  1.0000
  C   C1967     1.0  0.41841  0.77794  0.03451  1.0000
  C   C1968     1.0  0.41237  0.77099  0.02730  1.0000
  H   H3122     1.0  0.42155  0.79061  0.99207  1.0000
  H   H3123     1.0  0.43233  0.80298  0.00488  1.0000
  H   H3124     1.0  0.41721  0.77454  0.04637  1.0000
  H   H3125     1.0  0.40660  0.76225  0.03370  1.0000
  C   C1969     1.0  0.60537  0.65184  0.17235  1.0000
  H   H3126     1.0  0.48912  0.93904  0.15087  1.0000
  C   C1970     1.0  0.62083  0.75149  0.19711  1.0000
  C   C1971     1.0  0.46325  0.92340  0.17003  1.0000
  N   N194      1.0  0.48191  0.94817  0.13028  1.0000
  C   C1972     1.0  0.60441  0.74101  0.97942  1.0000
  H   H3127     1.0  0.46009  0.94362  0.14091  1.0000
  H   H3128     1.0  0.46246  0.83719  0.20583  1.0000
  C   C1973     1.0  0.65934  0.68508  0.13726  1.0000
  H   H3129     1.0  0.48788  0.75891  0.12004  1.0000
  C   C1974     1.0  0.37825  0.69308  0.00317  1.0000
  H   H3130     1.0  0.48355  0.79254  0.08942  1.0000
  H   H3131     1.0  0.47561  0.77960  0.08546  1.0000
  C   C1975     1.0  0.64314  0.70869  0.98316  1.0000
  C   C1976     1.0  0.64679  0.84276  0.14552  1.0000
  N   N195      1.0  0.39878  0.85160  0.14986  1.0000
  C   C1977     1.0  0.39498  0.86522  0.15563  1.0000
  C   C1978     1.0  0.38493  0.84845  0.14857  1.0000
  C   C1979     1.0  0.40612  0.83902  0.16015  1.0000
  C   C1980     1.0  0.40905  0.85368  0.13513  1.0000
  H   H3132     1.0  0.38934  0.87499  0.14825  1.0000
  H   H3133     1.0  0.40515  0.86793  0.15678  1.0000
  H   H3134     1.0  0.38740  0.83820  0.14429  1.0000
  H   H3135     1.0  0.37694  0.84681  0.15950  1.0000
  H   H3136     1.0  0.37911  0.85772  0.14086  1.0000
  H   H3137     1.0  0.39885  0.83736  0.17148  1.0000
  H   H3138     1.0  0.41666  0.84102  0.16124  1.0000
  H   H3139     1.0  0.40897  0.82849  0.15631  1.0000
  H   H3140     1.0  0.41172  0.84382  0.13023  1.0000
  H   H3141     1.0  0.41993  0.85544  0.13572  1.0000
  H   H3142     1.0  0.40415  0.86345  0.12721  1.0000
  H   H3143     1.0  0.46207  0.76269  0.10619  1.0000
  N   N196      1.0  0.62425  0.73845  0.20909  1.0000
  N   N197      1.0  0.47382  0.77766  0.10860  1.0000
  H   H3144     1.0  0.36495  0.66194  0.05231  1.0000
  H   H3145     1.0  0.48031  0.88187  0.16923  1.0000
  H   H3146     1.0  0.48496  0.92587  0.14345  1.0000
  C   C1981     1.0  0.54122  0.70300  0.22211  1.0000
  C   C1982     1.0  0.47209  0.78740  0.11867  1.0000
  H   H3147     1.0  0.45022  0.77846  0.11303  1.0000
  H   H3148     1.0  0.50867  0.76368  0.18711  1.0000
  H   H3149     1.0  0.45994  0.96240  0.13071  1.0000
  H   H3150     1.0  0.46028  0.76351  0.12491  1.0000
  N   N198      1.0  0.48581  0.76134  0.19262  1.0000
  H   H3151     1.0  0.46532  0.95632  0.14810  1.0000
  H   H3152     1.0  0.61033  0.78322  0.06681  1.0000
  H   H3153     1.0  0.47021  0.74451  0.98256  1.0000
  H   H3154     1.0  0.62226  0.68797  0.14031  1.0000
  S   S795      1.0  0.65724  0.77817  0.09759  1.0000
  H   H3155     1.0  0.52596  0.72857  0.20891  1.0000
  H   H3156     1.0  0.44682  0.76195  0.01389  1.0000
  H   H3157     1.0  0.65534  0.81432  0.03163  1.0000
  C   C1983     1.0  0.65516  0.72799  0.03570  1.0000
  C   C1984     1.0  0.46612  0.95278  0.13783  1.0000
  H   H3158     1.0  0.61006  0.74928  0.22643  1.0000
  C   C1985     1.0  0.48112  0.90072  0.17683  1.0000
  H   H3159     1.0  0.47070  0.68613  0.20770  1.0000
  C   C1986     1.0  0.48924  0.96089  0.12595  1.0000
  H   H3160     1.0  0.49780  0.77150  0.10568  1.0000
  S   S796      1.0  0.47372  0.95961  0.20196  1.0000
  H   H3161     1.0  0.45848  0.93494  0.17011  1.0000
  C   C1987     1.0  0.54982  0.72491  0.22036  1.0000
  H   H3162     1.0  0.49042  0.89478  0.18206  1.0000
  H   H3163     1.0  0.46359  0.79517  0.09268  1.0000
  H   H3164     1.0  0.36147  0.68834  0.98734  1.0000
  H   H3165     1.0  0.59874  0.77223  0.14583  1.0000
  H   H3166     1.0  0.50191  0.93247  0.13529  1.0000
  H   H3167     1.0  0.63469  0.84489  0.14843  1.0000
  H   H3168     1.0  0.63752  0.68578  0.12450  1.0000
  H   H3169     1.0  0.47652  0.95221  0.10913  1.0000
  S   S797      1.0  0.48719  0.96759  0.16660  1.0000
  H   H3170     1.0  0.49664  0.77254  0.20161  1.0000
  H   H3171     1.0  0.40246  0.70886  0.15325  1.0000
  H   H3172     1.0  0.46143  0.79594  0.11879  1.0000
  C   C1988     1.0  0.47417  0.78665  0.09338  1.0000
  H   H3173     1.0  0.48715  0.75923  0.99531  1.0000
  H   H3174     1.0  0.65234  0.96936  0.18126  1.0000
  H   H3175     1.0  0.38898  0.73478  0.13026  1.0000
  C   C1989     1.0  0.65444  0.84938  0.15153  1.0000
  C   C1990     1.0  0.48794  0.76633  0.10888  1.0000
  S   S798      1.0  0.64926  0.81329  0.10018  1.0000
  H   H3176     1.0  0.59641  0.66472  0.00307  1.0000
  H   H3177     1.0  0.38862  0.71554  0.13313  1.0000
  C   C1991     1.0  0.63920  0.68740  0.15873  1.0000
  S   S799      1.0  0.64928  0.76718  0.02601  1.0000
  C   C1992     1.0  0.44335  0.92881  0.21161  1.0000
  H   H3178     1.0  0.42230  0.73863  0.02542  1.0000
  H   H3179     1.0  0.45042  0.66505  0.21289  1.0000
  H   H3180     1.0  0.46550  0.75731  0.01696  1.0000
  S   S800      1.0  0.42455  0.65269  0.06152  1.0000
  Fe  Fe395     1.0  0.57379  0.71539  0.18328  1.0000
  S   S801      1.0  0.57617  0.69245  0.19757  1.0000
  Fe  Fe396     1.0  0.60638  0.71586  0.17994  1.0000
  S   S802      1.0  0.61095  0.69329  0.19460  1.0000
  Fe  Fe397     1.0  0.59818  0.68715  0.18174  1.0000
  S   S803      1.0  0.60922  0.66954  0.16846  1.0000
  Fe  Fe398     1.0  0.58863  0.70108  0.20887  1.0000
  S   S804      1.0  0.59467  0.70953  0.16631  1.0000
  S   S805      1.0  0.58517  0.72429  0.19537  1.0000
  H   H3181     1.0  0.48910  0.96483  0.13579  1.0000
  H   H3182     1.0  0.49892  0.74844  0.17653  1.0000
  Fe  Fe399     1.0  0.65170  0.89711  0.18874  1.0000
  H   H3183     1.0  0.64214  0.72682  0.19447  1.0000
  C   C1993     1.0  0.34900  0.65706  0.07276  1.0000
  H   H3184     1.0  0.47104  0.77420  0.17813  1.0000
  N   N199      1.0  0.55889  0.65530  0.16323  1.0000
  H   H3185     1.0  0.61404  0.66167  0.99029  1.0000
  H   H3186     1.0  0.47974  0.74660  0.18322  1.0000
  C   C1994     1.0  0.47138  0.67607  0.21682  1.0000
  C   C1995     1.0  0.60149  0.79298  0.09229  1.0000
  C   C1996     1.0  0.47733  0.79143  0.22287  1.0000
  S   S806      1.0  0.55042  0.72683  0.18032  1.0000
  S   S807      1.0  0.62711  0.72502  0.17009  1.0000
  H   H3187     1.0  0.64872  0.82878  0.13071  1.0000
  H   H3188     1.0  0.47127  0.85164  0.20503  1.0000
  Fe  Fe400     1.0  0.50268  0.69199  0.15817  1.0000
  C   C1997     1.0  0.63455  0.68379  0.13679  1.0000
  N   N200      1.0  0.46427  0.76222  0.99407  1.0000
  H   H3189     1.0  0.47673  0.75057  0.21478  1.0000
  C   C1998     1.0  0.52392  0.72675  0.22116  1.0000
  H   H3190     1.0  0.59533  0.83415  0.20933  1.0000
  H   H3191     1.0  0.64669  0.76416  0.13165  1.0000
  C   C1999     1.0  0.53311  0.70271  0.15630  1.0000
  C   C2000     1.0  0.54840  0.70267  0.15303  1.0000
  C   C2001     1.0  0.55380  0.70988  0.16056  1.0000
  C   C2002     1.0  0.54384  0.71761  0.17097  1.0000
  C   C2003     1.0  0.52850  0.71797  0.17400  1.0000
  C   C2004     1.0  0.52316  0.71038  0.16679  1.0000
  H   H3192     1.0  0.55609  0.69704  0.14471  1.0000
  H   H3193     1.0  0.56564  0.70972  0.15808  1.0000
  H   H3194     1.0  0.52080  0.72389  0.18209  1.0000
  C   C2005     1.0  0.65337  0.79365  0.02844  1.0000
  H   H3195     1.0  0.45484  0.74320  0.99827  1.0000
  H   H3196     1.0  0.62674  0.85376  0.19300  1.0000
  H   H3197     1.0  0.59866  0.85149  0.18472  1.0000
  C   C2006     1.0  0.65471  0.83365  0.13546  1.0000
  H   H3198     1.0  0.64717  0.73497  0.02865  1.0000
  H   H3199     1.0  0.36231  0.66316  0.01406  1.0000
  C   C2007     1.0  0.63790  0.74687  0.14847  1.0000
  C   C2008     1.0  0.46821  0.84112  0.21206  1.0000
  H   H3200     1.0  0.39983  0.86919  0.21292  1.0000
  H   H3201     1.0  0.47878  0.83272  0.21327  1.0000
  S   S808      1.0  0.52671  0.69250  0.14779  1.0000
  S   S809      1.0  0.49575  0.68437  0.18270  1.0000
  H   H3202     1.0  0.65971  0.70178  0.02846  1.0000
  H   H3203     1.0  0.45296  0.94313  0.22605  1.0000
  H   H3204     1.0  0.60837  0.67786  0.99786  1.0000
  N   N201      1.0  0.64314  0.69085  0.14239  1.0000
  H   H3205     1.0  0.54410  0.65580  0.18456  1.0000
  H   H3206     1.0  0.57538  0.68492  0.99492  1.0000
  H   H3207     1.0  0.58728  0.69792  0.99029  1.0000
  C   C2009     1.0  0.58397  0.68995  0.98602  1.0000
  C   C2010     1.0  0.65768  0.77243  0.04853  1.0000
  C   C2011     1.0  0.64665  0.81586  0.22433  1.0000
  H   H3208     1.0  0.37428  0.70531  0.00181  1.0000
  H   H3209     1.0  0.62708  0.69175  0.16290  1.0000
  C   C2012     1.0  0.40774  0.65182  0.99393  1.0000
  H   H3210     1.0  0.36473  0.68479  0.03151  1.0000
  Fe  Fe401     1.0  0.65484  0.86979  0.17673  1.0000
  C   C2013     1.0  0.65193  0.93380  0.18208  1.0000
  H   H3211     1.0  0.65017  0.79850  0.01792  1.0000
  H   H3212     1.0  0.47599  0.66621  0.21172  1.0000
  H   H3213     1.0  0.34577  0.68541  0.00235  1.0000
  H   H3214     1.0  0.46986  0.77019  0.21042  1.0000
  H   H3215     1.0  0.64933  0.71993  0.04449  1.0000
  H   H3216     1.0  0.51134  0.71051  0.16933  1.0000
  H   H3217     1.0  0.65945  0.82933  0.99053  1.0000
  H   H3218     1.0  0.60900  0.75768  0.19983  1.0000
  C   C2014     1.0  0.61896  0.84697  0.20096  1.0000
  C   C2015     1.0  0.61430  0.72832  0.21130  1.0000
  C   C2016     1.0  0.46583  0.74651  0.99399  1.0000
  H   H3219     1.0  0.54361  0.70469  0.20985  1.0000
  C   C2017     1.0  0.55813  0.65999  0.14746  1.0000
  H   H3220     1.0  0.59337  0.65160  0.19490  1.0000
  Fe  Fe402     1.0  0.64424  0.79159  0.11442  1.0000
  C   C2018     1.0  0.48116  0.77469  0.18143  1.0000
  C   C2019     1.0  0.35554  0.69079  0.99838  1.0000
  H   H3221     1.0  0.62964  0.81811  0.18377  1.0000
  H   H3222     1.0  0.64288  0.72055  0.21369  1.0000
  Fe  Fe403     1.0  0.46410  0.98025  0.16404  1.0000
  H   H3223     1.0  0.60089  0.74746  0.16310  1.0000
  C   C2020     1.0  0.64948  0.82946  0.22411  1.0000
  H   H3224     1.0  0.59510  0.78491  0.09228  1.0000
  H   H3225     1.0  0.46197  0.90405  0.22229  1.0000
  H   H3226     1.0  0.47367  0.73896  0.00092  1.0000
  H   H3227     1.0  0.45594  0.73273  0.22090  1.0000
  S   S810      1.0  0.64105  0.92052  0.19138  1.0000
  S   S811      1.0  0.63782  0.88015  0.19449  1.0000
  H   H3228     1.0  0.61919  0.81273  0.07869  1.0000
  C   C2021     1.0  0.62474  0.80122  0.08338  1.0000
  S   S812      1.0  0.64161  0.75628  0.99497  1.0000
  S   S813      1.0  0.62119  0.78766  0.12587  1.0000
  H   H3229     1.0  0.49545  0.80031  0.20709  1.0000
  C   C2022     1.0  0.60967  0.76512  0.14649  1.0000
  Fe  Fe404     1.0  0.65102  0.77198  0.00135  1.0000
  C   C2023     1.0  0.45397  0.77175  0.98453  1.0000
  C   C2024     1.0  0.62504  0.74209  0.15735  1.0000
  H   H3230     1.0  0.48973  0.75918  0.10096  1.0000
  C   C2025     1.0  0.62259  0.76997  0.13773  1.0000
  C   C2026     1.0  0.64716  0.94796  0.18523  1.0000
  H   H3231     1.0  0.63664  0.95073  0.19291  1.0000
  H   H3232     1.0  0.60779  0.83612  0.17588  1.0000
  C   C2027     1.0  0.49910  0.76263  0.19682  1.0000
  C   C2028     1.0  0.41171  0.65820  0.01492  1.0000
  H   H3233     1.0  0.60179  0.79199  0.10401  1.0000
  H   H3234     1.0  0.64888  0.73988  0.14921  1.0000
  H   H3235     1.0  0.56607  0.67470  0.16304  1.0000
  H   H3236     1.0  0.60832  0.85474  0.20465  1.0000
  H   H3237     1.0  0.62520  0.80082  0.09487  1.0000
  Fe  Fe405     1.0  0.65316  0.86642  0.20933  1.0000
  H   H3238     1.0  0.47694  0.93359  0.11991  1.0000
  N   N202      1.0  0.61680  0.79020  0.08301  1.0000
  C   C2029     1.0  0.62494  0.77509  0.08884  1.0000
  C   C2030     1.0  0.61606  0.79150  0.06758  1.0000
  H   H3239     1.0  0.63646  0.79919  0.07688  1.0000
  H   H3240     1.0  0.61918  0.76650  0.08887  1.0000
  H   H3241     1.0  0.63652  0.77257  0.08206  1.0000
  H   H3242     1.0  0.62584  0.77378  0.10043  1.0000
  H   H3243     1.0  0.46337  0.75845  0.20322  1.0000
  H   H3244     1.0  0.62749  0.78964  0.06032  1.0000
  H   H3245     1.0  0.60993  0.80273  0.06284  1.0000
  N   N203      1.0  0.61648  0.83606  0.19423  1.0000
  C   C2031     1.0  0.35567  0.65665  0.05796  1.0000
  H   H3246     1.0  0.49023  0.77602  0.17129  1.0000
  H   H3247     1.0  0.50292  0.75276  0.20525  1.0000
  H   H3248     1.0  0.46181  0.66373  0.16797  1.0000
  H   H3249     1.0  0.61393  0.75342  0.98849  1.0000
  C   C2032     1.0  0.60423  0.67037  0.99375  1.0000
  Fe  Fe406     1.0  0.45142  0.97257  0.19711  1.0000
  C   C2033     1.0  0.48954  0.74797  0.18648  1.0000
  H   H3250     1.0  0.64149  0.67520  0.16333  1.0000
  H   H3251     1.0  0.62916  0.75108  0.22173  1.0000
  C   C2034     1.0  0.65627  0.80256  0.03619  1.0000
  H   H3252     1.0  0.42884  0.65723  0.11429  1.0000
  H   H3253     1.0  0.61695  0.85098  0.17294  1.0000
  C   C2035     1.0  0.63099  0.82622  0.18929  1.0000
  C   C2036     1.0  0.61088  0.75112  0.15626  1.0000
  C   C2037     1.0  0.47340  0.76008  0.20582  1.0000
  H   H3254     1.0  0.47837  0.78498  0.18573  1.0000
  H   H3255     1.0  0.43918  0.94107  0.20882  1.0000
  C   C2038     1.0  0.64001  0.73057  0.20497  1.0000
  H   H3256     1.0  0.62819  0.75935  0.19505  1.0000
  C   C2039     1.0  0.63668  0.76070  0.13857  1.0000
  H   H3257     1.0  0.46778  0.92814  0.22071  1.0000
  H   H3258     1.0  0.44459  0.68490  0.20914  1.0000
  H   H3259     1.0  0.55138  0.69566  0.22593  1.0000
  H   H3260     1.0  0.61634  0.72379  0.20133  1.0000
  S   S814      1.0  0.39661  0.65243  0.09072  1.0000
  H   H3261     1.0  0.64788  0.73782  0.20331  1.0000
  H   H3262     1.0  0.60232  0.73413  0.21357  1.0000
  C   C2040     1.0  0.48683  0.70571  0.21311  1.0000
  C   C2041     1.0  0.63944  0.70711  0.13684  1.0000
  H   H3263     1.0  0.56015  0.71799  0.22390  1.0000
  H   H3264     1.0  0.53537  0.65533  0.17043  1.0000
  H   H3265     1.0  0.45397  0.92606  0.20342  1.0000
  H   H3266     1.0  0.51400  0.72166  0.22611  1.0000
  H   H3267     1.0  0.47825  0.77799  0.98808  1.0000
  H   H3268     1.0  0.65460  0.80868  0.21747  1.0000
  H   H3269     1.0  0.44951  0.69924  0.22391  1.0000
  Fe  Fe407     1.0  0.64872  0.65779  0.98339  1.0000
  S   S815      1.0  0.64255  0.79179  0.98441  1.0000
  H   H3270     1.0  0.54736  0.73556  0.22385  1.0000
  H   H3271     1.0  0.63108  0.71189  0.98454  1.0000
  H   H3272     1.0  0.65968  0.83261  0.21727  1.0000
  H   H3273     1.0  0.44143  0.79994  0.21865  1.0000
  H   H3274     1.0  0.43855  0.85082  0.21786  1.0000
  H   H3275     1.0  0.44296  0.76850  0.98800  1.0000
  H   H3276     1.0  0.45628  0.97999  0.22044  1.0000
  H   H3277     1.0  0.58096  0.65938  0.15877  1.0000
  H   H3278     1.0  0.44691  0.86531  0.21791  1.0000
  C   C2042     1.0  0.44611  0.67481  0.21817  1.0000
  H   H3279     1.0  0.64514  0.73007  0.98420  1.0000
  C   C2043     1.0  0.65110  0.71903  0.98289  1.0000
  H   H3280     1.0  0.65726  0.65646  0.08991  1.0000
  C   C2044     1.0  0.65071  0.69436  0.98128  1.0000
  H   H3281     1.0  0.62716  0.65177  0.06073  1.0000
  C   C2045     1.0  0.49247  0.70325  0.22576  1.0000
  H   H3282     1.0  0.65769  0.73549  0.04119  1.0000
  Fe  Fe408     1.0  0.48253  0.97860  0.18561  1.0000
  N   N204      1.0  0.53723  0.71729  0.22666  1.0000
  C   C2046     1.0  0.44457  0.85430  0.22423  1.0000
  C   C2047     1.0  0.60939  0.75343  0.97940  1.0000
  C   C2048     1.0  0.66079  0.78130  0.05615  1.0000
  C   C2049     1.0  0.65996  0.79642  0.05006  1.0000
  C   C2050     1.0  0.46208  0.79138  0.22617  1.0000
  H   H3283     1.0  0.54984  0.65524  0.14518  1.0000
  N   N205      1.0  0.45849  0.84322  0.22654  1.0000
  H   H3284     1.0  0.43485  0.67396  0.22532  1.0000
  N   N206      1.0  0.45651  0.67552  0.22670  1.0000
  H   H3285     1.0  0.56920  0.65643  0.14019  1.0000
  N   N207      1.0  0.44568  0.92367  0.22690  1.0000
  C   C2051     1.0  0.41878  0.82842  0.22751  1.0000
  S   S816      1.0  0.64038  0.68255  0.97976  1.0000
  H   H3286     1.0  0.50266  0.69502  0.22713  1.0000
  H   H3287     1.0  0.66243  0.67281  0.14122  1.0000
  C   C2052     1.0  0.35362  0.88248  0.44075  1.0000
  H   H3288     1.0  0.62553  0.81817  0.27189  1.0000
  H   H3289     1.0  0.63531  0.83973  0.28321  1.0000
  C   C2053     1.0  0.55399  0.97041  0.31129  1.0000
  H   H3290     1.0  0.54395  0.70748  0.24736  1.0000
  C   C2054     1.0  0.33616  0.77571  0.40132  1.0000
  H   H3291     1.0  0.33738  0.95990  0.34285  1.0000
  H   H3292     1.0  0.43965  0.68894  0.24055  1.0000
  S   S817      1.0  0.45405  0.96579  0.27345  1.0000
  H   H3293     1.0  0.46587  0.97659  0.24283  1.0000
  H   H3294     1.0  0.42880  0.96680  0.41122  1.0000
  Fe  Fe409     1.0  0.39733  0.77266  0.47773  1.0000
  H   H3295     1.0  0.65035  0.83946  0.30058  1.0000
  S   S818      1.0  0.33695  0.98435  0.40027  1.0000
  Fe  Fe410     1.0  0.47208  0.76330  0.25270  1.0000
  C   C2055     1.0  0.43925  0.77898  0.28078  1.0000
  N   N208      1.0  0.44085  0.79084  0.28680  1.0000
  S   S819      1.0  0.45422  0.77975  0.24220  1.0000
  H   H3296     1.0  0.52480  0.98196  0.31095  1.0000
  H   H3297     1.0  0.45736  0.79806  0.26773  1.0000
  C   C2056     1.0  0.42168  0.90395  0.27978  1.0000
  H   H3298     1.0  0.36707  0.88226  0.41223  1.0000
  H   H3299     1.0  0.34402  0.79549  0.37613  1.0000
  C   C2057     1.0  0.40809  0.90188  0.28954  1.0000
  C   C2058     1.0  0.63060  0.81404  0.28174  1.0000
  C   C2059     1.0  0.33350  0.79941  0.38393  1.0000
  H   H3300     1.0  0.45859  0.69010  0.23901  1.0000
  Fe  Fe411     1.0  0.42816  0.84096  0.29540  1.0000
  H   H3301     1.0  0.43135  0.78337  0.27318  1.0000
  H   H3302     1.0  0.57603  0.72930  0.23240  1.0000
  C   C2060     1.0  0.45169  0.78457  0.29652  1.0000
  Fe  Fe412     1.0  0.42169  0.87187  0.27585  1.0000
  H   H3303     1.0  0.33992  0.80016  0.44752  1.0000
  S   S820      1.0  0.46716  0.74367  0.27076  1.0000
  H   H3304     1.0  0.62248  0.81883  0.29090  1.0000
  H   H3305     1.0  0.46476  0.96841  0.29646  1.0000
  C   C2061     1.0  0.41295  0.83810  0.23719  1.0000
  C   C2062     1.0  0.65566  0.81137  0.26652  1.0000
  H   H3306     1.0  0.64937  0.91329  0.24315  1.0000
  C   C2063     1.0  0.59965  0.76250  0.35343  1.0000
  H   H3307     1.0  0.42151  0.78869  0.30456  1.0000
  Fe  Fe413     1.0  0.43578  0.96421  0.29396  1.0000
  H   H3308     1.0  0.63168  0.80180  0.28500  1.0000
  Fe  Fe414     1.0  0.41245  0.84619  0.27065  1.0000
  H   H3309     1.0  0.43837  0.80743  0.26692  1.0000
  H   H3310     1.0  0.42832  0.92989  0.29359  1.0000
  H   H3311     1.0  0.63783  0.87938  0.26801  1.0000
  H   H3312     1.0  0.40165  0.86040  0.23936  1.0000
  C   C2064     1.0  0.34687  0.79489  0.40315  1.0000
  S   S821      1.0  0.41455  0.83114  0.25570  1.0000
  S   S822      1.0  0.64240  0.85599  0.23239  1.0000
  S   S823      1.0  0.43001  0.89302  0.26650  1.0000
  H   H3313     1.0  0.34676  0.77103  0.39408  1.0000
  S   S824      1.0  0.40001  0.86928  0.27312  1.0000
  H   H3314     1.0  0.42707  0.80597  0.30041  1.0000
  C   C2065     1.0  0.46633  0.95816  0.33866  1.0000
  S   S825      1.0  0.44573  0.82250  0.30448  1.0000
  H   H3315     1.0  0.34752  0.78974  0.41487  1.0000
  Fe  Fe415     1.0  0.39642  0.85954  0.29763  1.0000
  S   S826      1.0  0.40664  0.83618  0.29494  1.0000
  H   H3316     1.0  0.40231  0.89420  0.28838  1.0000
  H   H3317     1.0  0.41785  0.80255  0.28823  1.0000
  C   C2066     1.0  0.44630  0.80254  0.27446  1.0000
  C   C2067     1.0  0.42615  0.79727  0.29538  1.0000
  C   C2068     1.0  0.42880  0.91431  0.28107  1.0000
  S   S827      1.0  0.41758  0.86334  0.30040  1.0000
  H   H3318     1.0  0.35774  0.79052  0.39606  1.0000
  H   H3319     1.0  0.47916  0.96487  0.30631  1.0000
  Fe  Fe416     1.0  0.48279  0.74948  0.28088  1.0000
  H   H3320     1.0  0.65011  0.87131  0.34093  1.0000
  H   H3321     1.0  0.35057  0.93743  0.33250  1.0000
  H   H3322     1.0  0.49391  0.98371  0.30215  1.0000
  H   H3323     1.0  0.37144  0.94147  0.35801  1.0000
  H   H3324     1.0  0.46961  0.85916  0.22809  1.0000
  H   H3325     1.0  0.42292  0.92171  0.23710  1.0000
  H   H3326     1.0  0.65417  0.89305  0.42599  1.0000
  H   H3327     1.0  0.45018  0.77390  0.27433  1.0000
  H   H3328     1.0  0.44756  0.81172  0.27861  1.0000
  C   C2069     1.0  0.40924  0.91971  0.30246  1.0000
  C   C2070     1.0  0.63923  0.83880  0.23290  1.0000
  C   C2071     1.0  0.42258  0.92219  0.29241  1.0000
  S   S828      1.0  0.43451  0.84980  0.27105  1.0000
  H   H3329     1.0  0.62136  0.88968  0.26113  1.0000
  H   H3330     1.0  0.43938  0.91587  0.27367  1.0000
  S   S829      1.0  0.41222  0.96490  0.29362  1.0000
  S   S830      1.0  0.58324  0.69726  0.23372  1.0000
  H   H3331     1.0  0.43512  0.76995  0.28974  1.0000
  C   C2072     1.0  0.40188  0.90977  0.30083  1.0000
  S   S831      1.0  0.47606  0.75003  0.30498  1.0000
  H   H3332     1.0  0.39135  0.90815  0.30828  1.0000
  H   H3333     1.0  0.45300  0.79310  0.30154  1.0000
  H   H3334     1.0  0.65313  0.86294  0.35935  1.0000
  H   H3335     1.0  0.44040  0.98207  0.42486  1.0000
  C   C2073     1.0  0.64260  0.90586  0.25169  1.0000
  S   S832      1.0  0.40181  0.92861  0.31737  1.0000
  H   H3336     1.0  0.43561  0.80718  0.37713  1.0000
  H   H3337     1.0  0.37044  0.93090  0.33076  1.0000
  H   H3338     1.0  0.64764  0.90205  0.26161  1.0000
  S   S833      1.0  0.33624  0.86369  0.39824  1.0000
  S   S834      1.0  0.35457  0.83116  0.37683  1.0000
  H   H3339     1.0  0.37488  0.95924  0.34765  1.0000
  C   C2074     1.0  0.34663  0.75773  0.46845  1.0000
  S   S835      1.0  0.37799  0.97463  0.40568  1.0000
  Fe  Fe417     1.0  0.40662  0.79877  0.45449  1.0000
  S   S836      1.0  0.40232  0.81396  0.43303  1.0000
  H   H3340     1.0  0.34872  0.88792  0.45032  1.0000
  H   H3341     1.0  0.34599  0.80698  0.40144  1.0000
  S   S837      1.0  0.40427  0.96336  0.32910  1.0000
  Fe  Fe418     1.0  0.35037  0.94574  0.38990  1.0000
  H   H3342     1.0  0.34411  0.95008  0.35937  1.0000
  S   S838      1.0  0.35751  0.92396  0.38277  1.0000
  C   C2075     1.0  0.48891  0.76411  0.41975  1.0000
  S   S839      1.0  0.38985  0.79715  0.47612  1.0000
  H   H3343     1.0  0.37501  0.95581  0.31757  1.0000
  S   S840      1.0  0.34897  0.94826  0.41268  1.0000
  S   S841      1.0  0.36255  0.96405  0.37845  1.0000
  C   C2076     1.0  0.37347  0.94847  0.34668  1.0000
  H   H3344     1.0  0.35838  0.96135  0.45916  1.0000
  H   H3345     1.0  0.36030  0.96094  0.43309  1.0000
  H   H3346     1.0  0.52451  0.70884  0.24814  1.0000
  H   H3347     1.0  0.54525  0.96317  0.34103  1.0000
  H   H3348     1.0  0.63282  0.87374  0.25419  1.0000
  C   C2077     1.0  0.62625  0.83444  0.24205  1.0000
  C   C2078     1.0  0.35176  0.90616  0.42341  1.0000
  S   S842      1.0  0.45373  0.76020  0.46336  1.0000
  H   H3349     1.0  0.37914  0.87591  0.36638  1.0000
  C   C2079     1.0  0.43543  0.96134  0.25864  1.0000
  C   C2080     1.0  0.34207  0.91688  0.38388  1.0000
  C   C2081     1.0  0.34394  0.90563  0.37653  1.0000
  C   C2082     1.0  0.65366  0.88456  0.42043  1.0000
  C   C2083     1.0  0.33139  0.89347  0.43080  1.0000
  H   H3350     1.0  0.35477  0.90164  0.36988  1.0000
  C   C2084     1.0  0.38359  0.98407  0.42739  1.0000
  C   C2085     1.0  0.35424  0.84097  0.43856  1.0000
  C   C2086     1.0  0.36153  0.83693  0.45028  1.0000
  C   C2087     1.0  0.37636  0.82871  0.44859  1.0000
  C   C2088     1.0  0.38394  0.82461  0.43517  1.0000
  C   C2089     1.0  0.37673  0.82895  0.42336  1.0000
  C   C2090     1.0  0.36185  0.83702  0.42509  1.0000
  H   H3351     1.0  0.35571  0.84002  0.46069  1.0000
  H   H3352     1.0  0.38203  0.82577  0.45759  1.0000
  H   H3353     1.0  0.38256  0.82583  0.41295  1.0000
  H   H3354     1.0  0.35633  0.84011  0.41596  1.0000
  H   H3355     1.0  0.39734  0.86647  0.32971  1.0000
  H   H3356     1.0  0.48117  0.74127  0.45360  1.0000
  Fe  Fe419     1.0  0.41300  0.94725  0.31426  1.0000
  H   H3357     1.0  0.65777  0.87464  0.23813  1.0000
  C   C2091     1.0  0.36929  0.85787  0.33013  1.0000
  C   C2092     1.0  0.35630  0.86378  0.33968  1.0000
  C   C2093     1.0  0.35184  0.85572  0.35410  1.0000
  C   C2094     1.0  0.36028  0.84161  0.35897  1.0000
  C   C2095     1.0  0.37338  0.83575  0.34950  1.0000
  C   C2096     1.0  0.37793  0.84390  0.33511  1.0000
  H   H3358     1.0  0.34960  0.87460  0.33585  1.0000
  H   H3359     1.0  0.34172  0.86031  0.36134  1.0000
  H   H3360     1.0  0.37996  0.82485  0.35326  1.0000
  H   H3361     1.0  0.38800  0.83930  0.32782  1.0000
  S   S843      1.0  0.66047  0.81348  0.38293  1.0000
  S   S844      1.0  0.48781  0.78273  0.36719  1.0000
  C   C2097     1.0  0.64328  0.83432  0.27439  1.0000
  S   S845      1.0  0.62975  0.79507  0.23245  1.0000
  H   H3362     1.0  0.52394  0.79768  0.26214  1.0000
  H   H3363     1.0  0.46838  0.80403  0.31945  1.0000
  C   C2098     1.0  0.34691  0.95748  0.34830  1.0000
  Fe  Fe420     1.0  0.33519  0.84380  0.39113  1.0000
  H   H3364     1.0  0.45336  0.90329  0.24158  1.0000
  N   N209      1.0  0.44139  0.79252  0.39705  1.0000
  C   C2099     1.0  0.53652  0.97026  0.33491  1.0000
  H   H3365     1.0  0.36411  0.90518  0.42030  1.0000
  C   C2100     1.0  0.42992  0.96347  0.24599  1.0000
  H   H3366     1.0  0.35520  0.96244  0.31852  1.0000
  C   C2101     1.0  0.45079  0.68901  0.23285  1.0000
  H   H3367     1.0  0.47385  0.79805  0.46149  1.0000
  H   H3368     1.0  0.55981  0.98290  0.33014  1.0000
  C   C2102     1.0  0.44129  0.79550  0.38119  1.0000
  C   C2103     1.0  0.53401  0.71455  0.24297  1.0000
  H   H3369     1.0  0.43825  0.84111  0.34918  1.0000
  H   H3370     1.0  0.44929  0.77426  0.41383  1.0000
  H   H3371     1.0  0.45523  0.78361  0.43594  1.0000
  H   H3372     1.0  0.47491  0.80394  0.34244  1.0000
  C   C2104     1.0  0.47967  0.75091  0.44466  1.0000
  H   H3373     1.0  0.43546  0.78808  0.37900  1.0000
  N   N210      1.0  0.36113  0.95067  0.33930  1.0000
  C   C2105     1.0  0.43132  0.92764  0.23734  1.0000
  H   H3374     1.0  0.63114  0.91264  0.25491  1.0000
  C   C2106     1.0  0.48019  0.96192  0.33615  1.0000
  H   H3375     1.0  0.34718  0.91339  0.41377  1.0000
  H   H3376     1.0  0.39223  0.89683  0.35664  1.0000
  H   H3377     1.0  0.44325  0.81469  0.39558  1.0000
  H   H3378     1.0  0.37081  0.88170  0.35052  1.0000
  H   H3379     1.0  0.40892  0.85812  0.35130  1.0000
  C   C2107     1.0  0.47619  0.77570  0.42137  1.0000
  C   C2108     1.0  0.37328  0.97629  0.45357  1.0000
  H   H3380     1.0  0.40705  0.87080  0.36265  1.0000
  H   H3381     1.0  0.46300  0.77996  0.29034  1.0000
  C   C2109     1.0  0.46680  0.76220  0.44628  1.0000
  C   C2110     1.0  0.44954  0.77710  0.40178  1.0000
  C   C2111     1.0  0.36531  0.96781  0.45030  1.0000
  H   H3382     1.0  0.44299  0.90157  0.22951  1.0000
  H   H3383     1.0  0.41940  0.80615  0.40278  1.0000
  H   H3384     1.0  0.63499  0.88924  0.22862  1.0000
  C   C2112     1.0  0.48700  0.75813  0.31111  1.0000
  H   H3385     1.0  0.46075  0.80160  0.39304  1.0000
  H   H3386     1.0  0.63555  0.97374  0.33214  1.0000
  C   C2113     1.0  0.45301  0.96852  0.34208  1.0000
  C   C2114     1.0  0.55605  0.77968  0.24253  1.0000
  C   C2115     1.0  0.35466  0.88380  0.41516  1.0000
  H   H3387     1.0  0.44666  0.98221  0.37268  1.0000
  C   C2116     1.0  0.55019  0.76995  0.23852  1.0000
  H   H3388     1.0  0.40895  0.98427  0.26175  1.0000
  C   C2117     1.0  0.46648  0.84848  0.23450  1.0000
  H   H3389     1.0  0.44521  0.96316  0.37869  1.0000
  S   S846      1.0  0.42924  0.98204  0.30682  1.0000
  H   H3390     1.0  0.64921  0.88576  0.29362  1.0000
  Fe  Fe421     1.0  0.40570  0.98094  0.30828  1.0000
  H   H3391     1.0  0.42642  0.93975  0.23464  1.0000
  S   S847      1.0  0.55429  0.80042  0.25758  1.0000
  H   H3392     1.0  0.45419  0.80542  0.46782  1.0000
  H   H3393     1.0  0.48430  0.78462  0.23048  1.0000
  H   H3394     1.0  0.64806  0.85273  0.34939  1.0000
  H   H3395     1.0  0.42550  0.79229  0.41790  1.0000
  Fe  Fe422     1.0  0.42841  0.96312  0.32662  1.0000
  Fe  Fe423     1.0  0.43025  0.77407  0.46675  1.0000
  H   H3396     1.0  0.38025  0.77690  0.45689  1.0000
  S   S848      1.0  0.42546  0.79867  0.46420  1.0000
  N   N211      1.0  0.54302  0.97979  0.32101  1.0000
  C   C2118     1.0  0.46176  0.81215  0.32590  1.0000
  C   C2119     1.0  0.48069  0.97596  0.33729  1.0000
  H   H3397     1.0  0.44453  0.76897  0.39964  1.0000
  S   S849      1.0  0.50385  0.80941  0.34495  1.0000
  C   C2120     1.0  0.44969  0.82274  0.32107  1.0000
  C   C2121     1.0  0.39637  0.87815  0.33014  1.0000
  H   H3398     1.0  0.38654  0.88495  0.32545  1.0000
  H   H3399     1.0  0.41846  0.87315  0.34419  1.0000
  H   H3400     1.0  0.40651  0.88184  0.32264  1.0000
  S   S850      1.0  0.41274  0.77433  0.45527  1.0000
  H   H3401     1.0  0.43173  0.84131  0.32583  1.0000
  C   C2122     1.0  0.40785  0.87000  0.35117  1.0000
  H   H3402     1.0  0.46031  0.78805  0.46218  1.0000
  H   H3403     1.0  0.46154  0.77534  0.39585  1.0000
  N   N212      1.0  0.39470  0.87957  0.34538  1.0000
  H   H3404     1.0  0.44816  0.77544  0.30576  1.0000
  H   H3405     1.0  0.47359  0.75567  0.33335  1.0000
  H   H3406     1.0  0.38417  0.90274  0.34060  1.0000
  C   C2123     1.0  0.44110  0.83316  0.32950  1.0000
  H   H3407     1.0  0.40405  0.89900  0.33837  1.0000
  C   C2124     1.0  0.39372  0.89520  0.34530  1.0000
  H   H3408     1.0  0.38135  0.86311  0.35507  1.0000
  H   H3409     1.0  0.36383  0.78123  0.43955  1.0000
  C   C2125     1.0  0.46504  0.77472  0.43464  1.0000
  H   H3410     1.0  0.41968  0.78701  0.40432  1.0000
  C   C2126     1.0  0.46548  0.81210  0.33894  1.0000
  C   C2127     1.0  0.36162  0.77393  0.45032  1.0000
  C   C2128     1.0  0.44476  0.83301  0.34270  1.0000
  H   H3411     1.0  0.45148  0.98262  0.47489  1.0000
  C   C2129     1.0  0.34935  0.76719  0.45453  1.0000
  C   C2130     1.0  0.37094  0.77149  0.46015  1.0000
  C   C2131     1.0  0.45706  0.82257  0.34732  1.0000
  S   S851      1.0  0.33693  0.77142  0.44270  1.0000
  C   C2132     1.0  0.47212  0.72249  0.23454  1.0000
  C   C2133     1.0  0.44890  0.80293  0.39938  1.0000
  H   H3412     1.0  0.45289  0.79385  0.37427  1.0000
  H   H3413     1.0  0.54860  0.96298  0.30848  1.0000
  S   S852      1.0  0.46197  0.82249  0.36357  1.0000
  H   H3414     1.0  0.64048  0.96399  0.31745  1.0000
  C   C2134     1.0  0.36637  0.96758  0.43556  1.0000
  H   H3415     1.0  0.47509  0.78537  0.41244  1.0000
  H   H3416     1.0  0.44890  0.80124  0.41126  1.0000
  C   C2135     1.0  0.65147  0.81226  0.29214  1.0000
  C   C2136     1.0  0.49059  0.75182  0.43149  1.0000
  C   C2137     1.0  0.42582  0.79456  0.40586  1.0000
  Fe  Fe424     1.0  0.48461  0.80731  0.36436  1.0000
  S   S853      1.0  0.43722  0.94523  0.31366  1.0000
  C   C2138     1.0  0.38090  0.87489  0.35478  1.0000
  S   S854      1.0  0.37456  0.86838  0.31222  1.0000
  C   C2139     1.0  0.48329  0.75942  0.32589  1.0000
  H   H3417     1.0  0.44996  0.97201  0.39043  1.0000
  Fe  Fe425     1.0  0.35904  0.96815  0.40106  1.0000
  C   C2140     1.0  0.64567  0.87580  0.30042  1.0000
  H   H3418     1.0  0.59848  0.79278  0.36559  1.0000
  H   H3419     1.0  0.48707  0.77590  0.47697  1.0000
  H   H3420     1.0  0.48951  0.76595  0.34263  1.0000
  C   C2141     1.0  0.46307  0.79504  0.46806  1.0000
  H   H3421     1.0  0.40546  0.98316  0.38313  1.0000
  S   S855      1.0  0.43573  0.96350  0.34662  1.0000
  C   C2142     1.0  0.65970  0.81735  0.40004  1.0000
  H   H3422     1.0  0.49725  0.96993  0.28255  1.0000
  H   H3423     1.0  0.53093  0.72511  0.24677  1.0000
  H   H3424     1.0  0.34760  0.96812  0.35017  1.0000
  H   H3425     1.0  0.54854  0.82352  0.31726  1.0000
  H   H3426     1.0  0.62381  0.90520  0.23564  1.0000
  C   C2143     1.0  0.42253  0.96746  0.40283  1.0000
  H   H3427     1.0  0.42485  0.95618  0.40064  1.0000
  C   C2144     1.0  0.62802  0.79334  0.32192  1.0000
  C   C2145     1.0  0.44283  0.97369  0.38245  1.0000
  C   C2146     1.0  0.43754  0.97013  0.23218  1.0000
  S   S856      1.0  0.49790  0.80606  0.38076  1.0000
  N   N213      1.0  0.34786  0.89148  0.42753  1.0000
  H   H3428     1.0  0.53616  0.83205  0.30464  1.0000
  C   C2147     1.0  0.49226  0.76528  0.33115  1.0000
  H   H3429     1.0  0.55387  0.76252  0.27180  1.0000
  H   H3430     1.0  0.57600  0.76388  0.37708  1.0000
  Fe  Fe426     1.0  0.48804  0.73084  0.25839  1.0000
  S   S857      1.0  0.60530  0.73437  0.26512  1.0000
  C   C2148     1.0  0.58933  0.70834  0.24163  1.0000
  C   C2149     1.0  0.59915  0.70130  0.25110  1.0000
  C   C2150     1.0  0.60386  0.70955  0.25810  1.0000
  C   C2151     1.0  0.59863  0.72493  0.25593  1.0000
  C   C2152     1.0  0.58855  0.73212  0.24663  1.0000
  C   C2153     1.0  0.58389  0.72379  0.23947  1.0000
  H   H3431     1.0  0.60318  0.68938  0.25305  1.0000
  H   H3432     1.0  0.61156  0.70392  0.26533  1.0000
  H   H3433     1.0  0.55604  0.74145  0.26086  1.0000
  C   C2154     1.0  0.60348  0.80206  0.31598  1.0000
  H   H3434     1.0  0.35808  0.92841  0.34874  1.0000
  H   H3435     1.0  0.57176  0.77994  0.35350  1.0000
  N   N214      1.0  0.64525  0.81800  0.27869  1.0000
  C   C2155     1.0  0.38233  0.98451  0.44210  1.0000
  H   H3436     1.0  0.57254  0.73955  0.27762  1.0000
  H   H3437     1.0  0.55050  0.72481  0.27239  1.0000
  C   C2156     1.0  0.37566  0.97557  0.42410  1.0000
  C   C2157     1.0  0.45587  0.97288  0.24374  1.0000
  C   C2158     1.0  0.54791  0.73709  0.27083  1.0000
  H   H3438     1.0  0.56785  0.77951  0.23893  1.0000
  H   H3439     1.0  0.49048  0.95381  0.33379  1.0000
  H   H3440     1.0  0.46213  0.97837  0.31046  1.0000
  H   H3441     1.0  0.42997  0.95552  0.26912  1.0000
  C   C2159     1.0  0.45680  0.93087  0.22847  1.0000
  S   S858      1.0  0.50326  0.73462  0.27029  1.0000
  H   H3442     1.0  0.36603  0.88067  0.43861  1.0000
  S   S859      1.0  0.49266  0.70912  0.25181  1.0000
  H   H3443     1.0  0.33330  0.89067  0.37225  1.0000
  H   H3444     1.0  0.38428  0.94284  0.34053  1.0000
  H   H3445     1.0  0.50229  0.76233  0.29003  1.0000
  H   H3446     1.0  0.34713  0.91213  0.43261  1.0000
  S   S860      1.0  0.57976  0.76981  0.27934  1.0000
  C   C2160     1.0  0.49950  0.76307  0.30149  1.0000
  H   H3447     1.0  0.62156  0.76997  0.30465  1.0000
  H   H3448     1.0  0.58436  0.74401  0.24500  1.0000
  H   H3449     1.0  0.35207  0.87261  0.41801  1.0000
  C   C2161     1.0  0.53742  0.73590  0.29690  1.0000
  C   C2162     1.0  0.47054  0.97378  0.30134  1.0000
  H   H3450     1.0  0.55260  0.81732  0.28606  1.0000
  H   H3451     1.0  0.53964  0.72357  0.29956  1.0000
  Fe  Fe427     1.0  0.50522  0.75467  0.25193  1.0000
  H   H3452     1.0  0.43278  0.92466  0.24892  1.0000
  C   C2163     1.0  0.65951  0.82331  0.42717  1.0000
  H   H3453     1.0  0.61822  0.84170  0.24877  1.0000
  C   C2164     1.0  0.62338  0.82087  0.24219  1.0000
  Fe  Fe428     1.0  0.59561  0.78116  0.28288  1.0000
  S   S861      1.0  0.61587  0.76850  0.26957  1.0000
  H   H3454     1.0  0.46643  0.72905  0.24277  1.0000
  H   H3455     1.0  0.42372  0.81695  0.23167  1.0000
  C   C2165     1.0  0.55533  0.80828  0.29565  1.0000
  C   C2166     1.0  0.45784  0.66220  0.23884  1.0000
  N   N215      1.0  0.64219  0.89315  0.24617  1.0000
  C   C2167     1.0  0.33182  0.89940  0.37790  1.0000
  C   C2168     1.0  0.36000  0.93619  0.33775  1.0000
  H   H3456     1.0  0.65744  0.79906  0.26939  1.0000
  H   H3457     1.0  0.43669  0.85580  0.23495  1.0000
  H   H3458     1.0  0.64227  0.88209  0.42471  1.0000
  H   H3459     1.0  0.65231  0.86168  0.44405  1.0000
  H   H3460     1.0  0.55903  0.97731  0.30066  1.0000
  S   S862      1.0  0.49800  0.98036  0.33481  1.0000
  H   H3461     1.0  0.52816  0.97700  0.34249  1.0000
  C   C2169     1.0  0.65975  0.98020  0.29888  1.0000
  H   H3462     1.0  0.36498  0.97161  0.32538  1.0000
  H   H3463     1.0  0.41991  0.95976  0.24691  1.0000
  C   C2170     1.0  0.40628  0.85289  0.23190  1.0000
  C   C2171     1.0  0.44818  0.96642  0.25758  1.0000
  H   H3464     1.0  0.56536  0.80979  0.29833  1.0000
  H   H3465     1.0  0.41915  0.96834  0.37604  1.0000
  H   H3466     1.0  0.51812  0.77268  0.29938  1.0000
  C   C2172     1.0  0.54548  0.75790  0.28128  1.0000
  S   S863      1.0  0.65897  0.82757  0.44402  1.0000
  H   H3467     1.0  0.51357  0.78030  0.25518  1.0000
  C   C2173     1.0  0.60589  0.78974  0.30997  1.0000
  C   C2174     1.0  0.48516  0.71171  0.23643  1.0000
  H   H3468     1.0  0.53657  0.74149  0.26828  1.0000
  N   N216      1.0  0.54866  0.74155  0.28403  1.0000
  H   H3469     1.0  0.53162  0.79618  0.30063  1.0000
  H   H3470     1.0  0.65409  0.83773  0.27221  1.0000
  H   H3471     1.0  0.56481  0.73851  0.29698  1.0000
  Fe  Fe429     1.0  0.59955  0.75893  0.26412  1.0000
  C   C2175     1.0  0.50850  0.76882  0.30679  1.0000
  S   S864      1.0  0.52821  0.75691  0.23909  1.0000
  S   S865      1.0  0.49134  0.74998  0.23934  1.0000
  H   H3472     1.0  0.61318  0.81777  0.24898  1.0000
  N   N217      1.0  0.65459  0.97885  0.31504  1.0000
  C   C2176     1.0  0.54663  0.78961  0.25111  1.0000
  C   C2177     1.0  0.53124  0.79003  0.25545  1.0000
  Fe  Fe430     1.0  0.50247  0.78154  0.38230  1.0000
  C   C2178     1.0  0.52539  0.78014  0.25160  1.0000
  H   H3473     1.0  0.45942  0.85034  0.24541  1.0000
  H   H3474     1.0  0.60979  0.78680  0.34929  1.0000
  Fe  Fe431     1.0  0.61094  0.78711  0.25030  1.0000
  C   C2179     1.0  0.65099  0.86250  0.29555  1.0000
  S   S866      1.0  0.59207  0.80067  0.26411  1.0000
  C   C2180     1.0  0.65489  0.86082  0.34818  1.0000
  S   S867      1.0  0.33556  0.85082  0.44083  1.0000
  H   H3475     1.0  0.53426  0.76294  0.27861  1.0000
  Fe  Fe432     1.0  0.57763  0.78849  0.25961  1.0000
  C   C2181     1.0  0.53491  0.77005  0.24323  1.0000
  C   C2182     1.0  0.64603  0.84978  0.30419  1.0000
  C   C2183     1.0  0.63313  0.88359  0.25789  1.0000
  H   H3476     1.0  0.53733  0.73949  0.30697  1.0000
  C   C2184     1.0  0.56383  0.73538  0.28708  1.0000
  N   N218      1.0  0.54254  0.80823  0.30855  1.0000
  S   S868      1.0  0.37165  0.97649  0.47207  1.0000
  S   S869      1.0  0.59611  0.77661  0.24389  1.0000
  C   C2185     1.0  0.45471  0.82896  0.23532  1.0000
  H   H3477     1.0  0.56676  0.72305  0.28905  1.0000
  C   C2186     1.0  0.36419  0.96056  0.32452  1.0000
  S   S870      1.0  0.59089  0.78636  0.30523  1.0000
  C   C2187     1.0  0.65762  0.88449  0.24209  1.0000
  H   H3478     1.0  0.52612  0.81601  0.29507  1.0000
  H   H3479     1.0  0.34490  0.81049  0.45761  1.0000
  C   C2188     1.0  0.63354  0.81160  0.23327  1.0000
  H   H3480     1.0  0.52588  0.74011  0.29482  1.0000
  H   H3481     1.0  0.54570  0.76173  0.29107  1.0000
  H   H3482     1.0  0.33663  0.76978  0.41296  1.0000
  H   H3483     1.0  0.64116  0.77314  0.31527  1.0000
  S   S871      1.0  0.48621  0.77009  0.26357  1.0000
  C   C2189     1.0  0.61969  0.77957  0.30922  1.0000
  H   H3484     1.0  0.63135  0.98330  0.31439  1.0000
  C   C2190     1.0  0.58512  0.76934  0.37640  1.0000
  H   H3485     1.0  0.54885  0.78481  0.31752  1.0000
  H   H3486     1.0  0.47355  0.76590  0.47755  1.0000
  Fe  Fe433     1.0  0.63981  0.81610  0.37414  1.0000
  Fe  Fe434     1.0  0.51775  0.80572  0.36146  1.0000
  H   H3487     1.0  0.63572  0.82478  0.40570  1.0000
  S   S872      1.0  0.64455  0.82428  0.34950  1.0000
  Fe  Fe435     1.0  0.60763  0.81542  0.37486  1.0000
  S   S873      1.0  0.58621  0.80825  0.38859  1.0000
  Fe  Fe436     1.0  0.62206  0.83960  0.35340  1.0000
  S   S874      1.0  0.62013  0.86329  0.34089  1.0000
  S   S875      1.0  0.61785  0.83251  0.37813  1.0000
  S   S876      1.0  0.61002  0.82414  0.35042  1.0000
  H   H3488     1.0  0.56000  0.83304  0.34807  1.0000
  H   H3489     1.0  0.57943  0.82949  0.36192  1.0000
  C   C2191     1.0  0.63073  0.78135  0.31525  1.0000
  C   C2192     1.0  0.55988  0.82505  0.35850  1.0000
  C   C2193     1.0  0.64615  0.82290  0.40906  1.0000
  H   H3490     1.0  0.47695  0.84028  0.23654  1.0000
  C   C2194     1.0  0.63107  0.86335  0.32300  1.0000
  C   C2195     1.0  0.54648  0.79562  0.32072  1.0000
  H   H3491     1.0  0.63216  0.84034  0.32441  1.0000
  C   C2196     1.0  0.54842  0.80677  0.37776  1.0000
  C   C2197     1.0  0.55958  0.80470  0.38558  1.0000
  C   C2198     1.0  0.57118  0.81248  0.37965  1.0000
  H   H3492     1.0  0.53972  0.80050  0.38223  1.0000
  H   H3493     1.0  0.55942  0.79682  0.39608  1.0000
  C   C2199     1.0  0.60369  0.78286  0.36070  1.0000
  H   H3494     1.0  0.63887  0.83901  0.26413  1.0000
  H   H3495     1.0  0.59335  0.76119  0.38255  1.0000
  H   H3496     1.0  0.58581  0.78942  0.34120  1.0000
  H   H3497     1.0  0.46594  0.94714  0.33828  1.0000
  C   C2200     1.0  0.57105  0.82291  0.36626  1.0000
  C   C2201     1.0  0.48829  0.97890  0.27821  1.0000
  H   H3498     1.0  0.50040  0.74288  0.43036  1.0000
  H   H3499     1.0  0.41034  0.97040  0.40785  1.0000
  H   H3500     1.0  0.55755  0.76222  0.23195  1.0000
  H   H3501     1.0  0.35082  0.87135  0.44420  1.0000
  S   S877      1.0  0.51743  0.77565  0.32813  1.0000
  C   C2202     1.0  0.50503  0.76974  0.32165  1.0000
  C   C2203     1.0  0.53898  0.82225  0.31356  1.0000
  H   H3502     1.0  0.51947  0.80667  0.31373  1.0000
  H   H3503     1.0  0.56328  0.96331  0.31666  1.0000
  H   H3504     1.0  0.57559  0.79515  0.35796  1.0000
  C   C2204     1.0  0.61460  0.80397  0.32173  1.0000
  C   C2205     1.0  0.64608  0.82587  0.42257  1.0000
  H   H3505     1.0  0.61217  0.77563  0.36706  1.0000
  S   S878      1.0  0.64118  0.79448  0.33097  1.0000
  H   H3506     1.0  0.55858  0.79765  0.29192  1.0000
  S   S879      1.0  0.50170  0.98128  0.37367  1.0000
  H   H3507     1.0  0.46491  0.82022  0.23711  1.0000
  Fe  Fe437     1.0  0.50834  0.78469  0.34892  1.0000
  H   H3508     1.0  0.64372  0.81675  0.30166  1.0000
  H   H3509     1.0  0.52925  0.82261  0.32319  1.0000
  C   C2206     1.0  0.52937  0.80674  0.30428  1.0000
  H   H3510     1.0  0.48279  0.97406  0.27245  1.0000
  C   C2207     1.0  0.58088  0.78530  0.35304  1.0000
  S   S880      1.0  0.52350  0.78107  0.36427  1.0000
  H   H3511     1.0  0.53717  0.79545  0.33073  1.0000
  S   S881      1.0  0.53576  0.81900  0.35326  1.0000
  H   H3512     1.0  0.59285  0.81001  0.31650  1.0000
  H   H3513     1.0  0.60849  0.75457  0.35894  1.0000
  H   H3514     1.0  0.55658  0.79624  0.32398  1.0000
  Fe  Fe438     1.0  0.63221  0.80812  0.34853  1.0000
  H   H3515     1.0  0.33733  0.75231  0.47162  1.0000
  N   N219      1.0  0.59233  0.77499  0.36089  1.0000
  C   C2208     1.0  0.54867  0.81685  0.36409  1.0000
  H   H3516     1.0  0.44854  0.82479  0.22967  1.0000
  H   H3517     1.0  0.62432  0.73382  0.23226  1.0000
  S   S882      1.0  0.50316  0.76421  0.40348  1.0000
  H   H3518     1.0  0.63182  0.88642  0.31812  1.0000
  H   H3519     1.0  0.65484  0.88965  0.40840  1.0000
  H   H3520     1.0  0.61263  0.81355  0.32624  1.0000
  H   H3521     1.0  0.58008  0.77851  0.38242  1.0000
  H   H3522     1.0  0.33210  0.81165  0.38218  1.0000
  C   C2209     1.0  0.63600  0.85022  0.31783  1.0000
  H   H3523     1.0  0.63554  0.83005  0.42955  1.0000
  C   C2210     1.0  0.63571  0.87622  0.31418  1.0000
  C   C2211     1.0  0.45352  0.98271  0.34269  1.0000
  H   H3524     1.0  0.53053  0.96289  0.33281  1.0000
  S   S883      1.0  0.62936  0.79822  0.37290  1.0000
  H   H3525     1.0  0.59139  0.75627  0.35345  1.0000
  H   H3526     1.0  0.60508  0.76651  0.34167  1.0000
  H   H3527     1.0  0.44735  0.83014  0.24633  1.0000
  H   H3528     1.0  0.46564  0.66239  0.24547  1.0000
  C   C2212     1.0  0.45128  0.90741  0.23017  1.0000
  H   H3529     1.0  0.35041  0.89016  0.40506  1.0000
  H   H3530     1.0  0.45876  0.92740  0.23992  1.0000
  N   N220      1.0  0.42675  0.97840  0.38909  1.0000
  C   C2213     1.0  0.63984  0.97478  0.31999  1.0000
  Fe  Fe439     1.0  0.33980  0.97890  0.37841  1.0000
  H   H3531     1.0  0.44680  0.66137  0.24653  1.0000
  C   C2214     1.0  0.33593  0.81004  0.45252  1.0000
  C   C2215     1.0  0.45053  0.97473  0.23108  1.0000
  H   H3532     1.0  0.33479  0.81997  0.44336  1.0000
  H   H3533     1.0  0.65331  0.79995  0.29562  1.0000
  C   C2216     1.0  0.36822  0.76203  0.47410  1.0000
  N   N221      1.0  0.33411  0.79188  0.39944  1.0000
  C   C2217     1.0  0.63546  0.89860  0.23303  1.0000
  C   C2218     1.0  0.41765  0.97934  0.37858  1.0000
  H   H3534     1.0  0.65126  0.81539  0.25622  1.0000
  H   H3535     1.0  0.65331  0.85667  0.42008  1.0000
  H   H3536     1.0  0.66087  0.96958  0.29574  1.0000
  H   H3537     1.0  0.46222  0.65187  0.23448  1.0000
  H   H3538     1.0  0.66183  0.96573  0.33487  1.0000
  H   H3539     1.0  0.66239  0.81529  0.29040  1.0000
  C   C2219     1.0  0.48986  0.77191  0.66110  1.0000
  H   H3540     1.0  0.37350  0.74099  0.54222  1.0000
  H   H3541     1.0  0.36383  0.72603  0.54950  1.0000
  C   C2220     1.0  0.36268  0.73791  0.54366  1.0000
  H   H3542     1.0  0.34473  0.72446  0.53748  1.0000
  H   H3543     1.0  0.35396  0.74448  0.55120  1.0000
  S   S884      1.0  0.33543  0.86540  0.66896  1.0000
  S   S885      1.0  0.42890  0.77765  0.56320  1.0000
  H   H3544     1.0  0.65814  0.81991  0.53821  1.0000
  H   H3545     1.0  0.37150  0.81820  0.64058  1.0000
  H   H3546     1.0  0.47856  0.80001  0.48489  1.0000
  H   H3547     1.0  0.38619  0.77072  0.56790  1.0000
  H   H3548     1.0  0.33691  0.88147  0.69217  1.0000
  C   C2221     1.0  0.34814  0.77672  0.60914  1.0000
  H   H3549     1.0  0.35613  0.84759  0.62266  1.0000
  Fe  Fe440     1.0  0.41998  0.79428  0.61125  1.0000
  H   H3550     1.0  0.39593  0.77455  0.54896  1.0000
  S   S886      1.0  0.39747  0.80975  0.61340  1.0000
  H   H3551     1.0  0.35381  0.80179  0.65345  1.0000
  C   C2222     1.0  0.37457  0.76688  0.60069  1.0000
  Fe  Fe441     1.0  0.52460  0.81376  0.65489  1.0000
  H   H3552     1.0  0.41573  0.80805  0.55064  1.0000
  H   H3553     1.0  0.41272  0.83592  0.60887  1.0000
  N   N222      1.0  0.65891  0.83477  0.55090  1.0000
  H   H3554     1.0  0.45393  0.84653  0.60724  1.0000
  C   C2223     1.0  0.37102  0.75696  0.59458  1.0000
  C   C2224     1.0  0.44085  0.83544  0.59269  1.0000
  H   H3555     1.0  0.37594  0.83489  0.60461  1.0000
  H   H3556     1.0  0.63809  0.84157  0.54377  1.0000
  C   C2225     1.0  0.45714  0.79599  0.61619  1.0000
  C   C2226     1.0  0.36309  0.77675  0.60801  1.0000
  H   H3557     1.0  0.43277  0.83637  0.58590  1.0000
  H   H3558     1.0  0.42102  0.86389  0.60944  1.0000
  C   C2227     1.0  0.42370  0.78616  0.54614  1.0000
  C   C2228     1.0  0.41229  0.80771  0.52958  1.0000
  C   C2229     1.0  0.41708  0.80128  0.54291  1.0000
  H   H3559     1.0  0.40720  0.81944  0.52714  1.0000
  H   H3560     1.0  0.43944  0.84615  0.62386  1.0000
  C   C2230     1.0  0.33981  0.82033  0.60324  1.0000
  H   H3561     1.0  0.38616  0.76674  0.59989  1.0000
  H   H3562     1.0  0.45701  0.97728  0.67197  1.0000
  C   C2231     1.0  0.47597  0.77342  0.48311  1.0000
  H   H3563     1.0  0.44995  0.77735  0.50324  1.0000
  C   C2232     1.0  0.34462  0.76728  0.60251  1.0000
  H   H3564     1.0  0.34081  0.73798  0.52117  1.0000
  C   C2233     1.0  0.44461  0.84105  0.61407  1.0000
  H   H3565     1.0  0.41865  0.85962  0.59340  1.0000
  N   N223      1.0  0.37330  0.78726  0.55335  1.0000
  C   C2234     1.0  0.36674  0.77631  0.55060  1.0000
  C   C2235     1.0  0.36284  0.79420  0.56530  1.0000
  C   C2236     1.0  0.37597  0.79880  0.53969  1.0000
  H   H3566     1.0  0.35589  0.78165  0.54717  1.0000
  H   H3567     1.0  0.36452  0.76749  0.56074  1.0000
  H   H3568     1.0  0.35190  0.80008  0.56229  1.0000
  H   H3569     1.0  0.36540  0.80480  0.53597  1.0000
  H   H3570     1.0  0.38382  0.79395  0.53042  1.0000
  H   H3571     1.0  0.38105  0.80717  0.54133  1.0000
  C   C2237     1.0  0.42695  0.85828  0.60010  1.0000
  C   C2238     1.0  0.37570  0.97106  0.70430  1.0000
  C   C2239     1.0  0.44894  0.80031  0.64100  1.0000
  C   C2240     1.0  0.37568  0.84612  0.60478  1.0000
  C   C2241     1.0  0.42563  0.77756  0.53590  1.0000
  H   H3572     1.0  0.49784  0.76382  0.65473  1.0000
  H   H3573     1.0  0.45008  0.84075  0.58531  1.0000
  H   H3574     1.0  0.36964  0.97069  0.71600  1.0000
  H   H3575     1.0  0.43573  0.86434  0.59297  1.0000
  H   H3576     1.0  0.37441  0.77081  0.54171  1.0000
  S   S887      1.0  0.37990  0.75876  0.48649  1.0000
  S   S888      1.0  0.42899  0.79147  0.63148  1.0000
  C   C2242     1.0  0.49899  0.84350  0.70256  1.0000
  C   C2243     1.0  0.46273  0.80374  0.63975  1.0000
  S   S889      1.0  0.54918  0.81454  0.64881  1.0000
  C   C2244     1.0  0.64566  0.80471  0.64856  1.0000
  Fe  Fe442     1.0  0.41826  0.79003  0.58159  1.0000
  S   S890      1.0  0.36710  0.78959  0.61540  1.0000
  C   C2245     1.0  0.47396  0.80284  0.62690  1.0000
  N   N224      1.0  0.43346  0.84244  0.60547  1.0000
  C   C2246     1.0  0.38634  0.85360  0.59464  1.0000
  S   S891      1.0  0.39572  0.80544  0.58147  1.0000
  C   C2247     1.0  0.35605  0.75514  0.47822  1.0000
  S   S892      1.0  0.40689  0.80747  0.50335  1.0000
  C   C2248     1.0  0.38535  0.86845  0.59435  1.0000
  C   C2249     1.0  0.41388  0.79906  0.51949  1.0000
  H   H3577     1.0  0.60555  0.76011  0.67273  1.0000
  H   H3578     1.0  0.47699  0.76707  0.49448  1.0000
  C   C2250     1.0  0.42139  0.83495  0.61498  1.0000
  H   H3579     1.0  0.34264  0.80973  0.59953  1.0000
  H   H3580     1.0  0.44009  0.97965  0.50185  1.0000
  H   H3581     1.0  0.42162  0.77712  0.51510  1.0000
  H   H3582     1.0  0.41565  0.83982  0.62482  1.0000
  H   H3583     1.0  0.36049  0.78575  0.57569  1.0000
  H   H3584     1.0  0.43069  0.76583  0.53840  1.0000
  H   H3585     1.0  0.58064  0.77479  0.66826  1.0000
  C   C2251     1.0  0.42053  0.78394  0.52270  1.0000
  H   H3586     1.0  0.36756  0.80233  0.56784  1.0000
  H   H3587     1.0  0.50525  0.85243  0.69990  1.0000
  S   S893      1.0  0.42831  0.80549  0.58772  1.0000
  C   C2252     1.0  0.38766  0.77969  0.55781  1.0000
  S   S894      1.0  0.41191  0.77736  0.60512  1.0000
  C   C2253     1.0  0.46771  0.79679  0.49080  1.0000
  H   H3588     1.0  0.39278  0.78752  0.56030  1.0000
  C   C2254     1.0  0.47102  0.79917  0.61506  1.0000
  H   H3589     1.0  0.33923  0.78411  0.61502  1.0000
  C   C2255     1.0  0.66012  0.79893  0.64113  1.0000
  C   C2256     1.0  0.52445  0.78682  0.71736  1.0000
  N   N225      1.0  0.46410  0.78712  0.48339  1.0000
  Fe  Fe443     1.0  0.39012  0.79397  0.60525  1.0000
  S   S895      1.0  0.40129  0.84455  0.58257  1.0000
  S   S896      1.0  0.35161  0.74627  0.58604  1.0000
  C   C2257     1.0  0.35344  0.84627  0.72595  1.0000
  Fe  Fe444     1.0  0.40507  0.81980  0.58962  1.0000
  H   H3590     1.0  0.45512  0.79286  0.60710  1.0000
  H   H3591     1.0  0.64108  0.85404  0.55295  1.0000
  C   C2258     1.0  0.49416  0.82025  0.71854  1.0000
  H   H3592     1.0  0.62513  0.82099  0.64658  1.0000
  H   H3593     1.0  0.42583  0.82293  0.61900  1.0000
  H   H3594     1.0  0.45747  0.97190  0.71695  1.0000
  H   H3595     1.0  0.52219  0.81975  0.70230  1.0000
  C   C2259     1.0  0.44616  0.79630  0.62927  1.0000
  C   C2260     1.0  0.36361  0.86813  0.61482  1.0000
  C   C2261     1.0  0.35715  0.75643  0.52200  1.0000
  H   H3596     1.0  0.44973  0.82921  0.61821  1.0000
  H   H3597     1.0  0.37185  0.71951  0.52480  1.0000
  H   H3598     1.0  0.39337  0.87438  0.58637  1.0000
  H   H3599     1.0  0.47963  0.79853  0.60505  1.0000
  H   H3600     1.0  0.37989  0.74920  0.58909  1.0000
  H   H3601     1.0  0.37338  0.88715  0.60417  1.0000
  C   C2262     1.0  0.36436  0.85335  0.61493  1.0000
  C   C2263     1.0  0.37404  0.87568  0.60441  1.0000
  H   H3602     1.0  0.44577  0.82343  0.59633  1.0000
  S   S897      1.0  0.34981  0.87758  0.62739  1.0000
  H   H3603     1.0  0.48991  0.74387  0.67597  1.0000
  C   C2264     1.0  0.35604  0.75736  0.59523  1.0000
  H   H3604     1.0  0.61321  0.76335  0.65311  1.0000
  H   H3605     1.0  0.38759  0.96542  0.70444  1.0000
  C   C2265     1.0  0.65570  0.81627  0.61830  1.0000
  S   S898      1.0  0.49180  0.80600  0.62532  1.0000
  N   N226      1.0  0.35860  0.74055  0.52929  1.0000
  C   C2266     1.0  0.44960  0.78324  0.49160  1.0000
  H   H3606     1.0  0.59088  0.79997  0.67369  1.0000
  H   H3607     1.0  0.50170  0.83903  0.69245  1.0000
  C   C2267     1.0  0.34417  0.73631  0.53178  1.0000
  H   H3608     1.0  0.52504  0.78659  0.69496  1.0000
  H   H3609     1.0  0.48769  0.75518  0.68872  1.0000
  H   H3610     1.0  0.35250  0.80665  0.67051  1.0000
  H   H3611     1.0  0.37052  0.82287  0.65763  1.0000
  H   H3612     1.0  0.33459  0.91404  0.65605  1.0000
  Fe  Fe445     1.0  0.33553  0.86434  0.64610  1.0000
  S   S899      1.0  0.35229  0.82677  0.68816  1.0000
  H   H3613     1.0  0.61010  0.78944  0.63789  1.0000
  S   S900      1.0  0.63903  0.79633  0.66706  1.0000
  H   H3614     1.0  0.57810  0.81916  0.64669  1.0000
  H   H3615     1.0  0.46467  0.80708  0.64871  1.0000
  Fe  Fe446     1.0  0.49264  0.82885  0.66652  1.0000
  S   S901      1.0  0.48305  0.81004  0.66664  1.0000
  S   S902      1.0  0.47777  0.84815  0.67588  1.0000
  H   H3616     1.0  0.34895  0.76361  0.52919  1.0000
  H   H3617     1.0  0.38048  0.78405  0.67832  1.0000
  H   H3618     1.0  0.44031  0.79329  0.49190  1.0000
  C   C2268     1.0  0.64676  0.84644  0.54523  1.0000
  C   C2269     1.0  0.38147  0.79542  0.67187  1.0000
  H   H3619     1.0  0.48189  0.82507  0.72064  1.0000
  S   S903      1.0  0.34140  0.96117  0.69162  1.0000
  C   C2270     1.0  0.46902  0.76221  0.66129  1.0000
  C   C2271     1.0  0.50582  0.77923  0.71008  1.0000
  H   H3620     1.0  0.39531  0.78918  0.64521  1.0000
  H   H3621     1.0  0.37090  0.96435  0.69986  1.0000
  H   H3622     1.0  0.46855  0.79114  0.50240  1.0000
  C   C2272     1.0  0.44318  0.83017  0.71516  1.0000
  C   C2273     1.0  0.44110  0.84546  0.70925  1.0000
  C   C2274     1.0  0.45190  0.85108  0.69734  1.0000
  C   C2275     1.0  0.46473  0.84140  0.69139  1.0000
  C   C2276     1.0  0.46705  0.82621  0.69776  1.0000
  C   C2277     1.0  0.45627  0.82059  0.70957  1.0000
  H   H3623     1.0  0.43104  0.85291  0.71362  1.0000
  H   H3624     1.0  0.45014  0.86285  0.69251  1.0000
  H   H3625     1.0  0.47713  0.81872  0.69360  1.0000
  H   H3626     1.0  0.45799  0.80878  0.71425  1.0000
  C   C2278     1.0  0.35253  0.83406  0.70293  1.0000
  C   C2279     1.0  0.65632  0.85993  0.70634  1.0000
  H   H3627     1.0  0.52244  0.81617  0.72151  1.0000
  H   H3628     1.0  0.33033  0.84790  0.70385  1.0000
  H   H3629     1.0  0.33082  0.97597  0.50628  1.0000
  C   C2280     1.0  0.36525  0.82964  0.70905  1.0000
  Fe  Fe447     1.0  0.33530  0.84132  0.67503  1.0000
  H   H3630     1.0  0.39512  0.98162  0.67980  1.0000
  H   H3631     1.0  0.37480  0.82156  0.70486  1.0000
  H   H3632     1.0  0.38137  0.73465  0.51734  1.0000
  C   C2281     1.0  0.51908  0.82496  0.71200  1.0000
  H   H3633     1.0  0.60185  0.80457  0.64713  1.0000
  C   C2282     1.0  0.38317  0.78895  0.64896  1.0000
  H   H3634     1.0  0.45887  0.75802  0.66801  1.0000
  H   H3635     1.0  0.37562  0.80316  0.67942  1.0000
  H   H3636     1.0  0.36806  0.75982  0.51905  1.0000
  H   H3637     1.0  0.50572  0.84691  0.72648  1.0000
  H   H3638     1.0  0.38838  0.81557  0.64676  1.0000
  H   H3639     1.0  0.65432  0.84597  0.62892  1.0000
  H   H3640     1.0  0.45862  0.98312  0.68745  1.0000
  S   S904      1.0  0.41548  0.76992  0.48956  1.0000
  H   H3641     1.0  0.44657  0.77581  0.48645  1.0000
  C   C2283     1.0  0.37379  0.98029  0.64516  1.0000
  H   H3642     1.0  0.47192  0.78058  0.68545  1.0000
  C   C2284     1.0  0.37036  0.73157  0.51969  1.0000
  H   H3643     1.0  0.45887  0.80717  0.49126  1.0000
  H   H3644     1.0  0.49613  0.77454  0.66782  1.0000
  S   S905      1.0  0.49837  0.77741  0.69610  1.0000
  C   C2285     1.0  0.33656  0.98034  0.49477  1.0000
  H   H3645     1.0  0.37127  0.89228  0.66653  1.0000
  H   H3646     1.0  0.48821  0.77185  0.72789  1.0000
  H   H3647     1.0  0.46219  0.78759  0.67065  1.0000
  N   N227      1.0  0.35906  0.88517  0.68870  1.0000
  C   C2286     1.0  0.36702  0.89162  0.69563  1.0000
  C   C2287     1.0  0.34328  0.88640  0.69692  1.0000
  C   C2288     1.0  0.36639  0.86938  0.68912  1.0000
  C   C2289     1.0  0.35957  0.89327  0.67317  1.0000
  H   H3648     1.0  0.37898  0.89087  0.68973  1.0000
  H   H3649     1.0  0.36688  0.88569  0.70736  1.0000
  H   H3650     1.0  0.36178  0.90356  0.69547  1.0000
  H   H3651     1.0  0.36797  0.91066  0.72793  1.0000
  H   H3652     1.0  0.64432  0.82022  0.56439  1.0000
  H   H3653     1.0  0.34250  0.88053  0.70873  1.0000
  H   H3654     1.0  0.37811  0.86804  0.68251  1.0000
  H   H3655     1.0  0.36022  0.86389  0.68473  1.0000
  H   H3656     1.0  0.36689  0.86314  0.70060  1.0000
  H   H3657     1.0  0.35327  0.88895  0.66776  1.0000
  H   H3658     1.0  0.35454  0.90531  0.67243  1.0000
  N   N228      1.0  0.47676  0.76601  0.67059  1.0000
  N   N229      1.0  0.37502  0.79947  0.65864  1.0000
  H   H3659     1.0  0.58811  0.77823  0.64861  1.0000
  H   H3660     1.0  0.39355  0.79580  0.66878  1.0000
  C   C2290     1.0  0.35900  0.79881  0.66320  1.0000
  C   C2291     1.0  0.46635  0.77732  0.67848  1.0000
  H   H3661     1.0  0.38234  0.77735  0.65471  1.0000
  Fe  Fe448     1.0  0.40930  0.79464  0.48614  1.0000
  H   H3662     1.0  0.37897  0.97975  0.67500  1.0000
  H   H3663     1.0  0.46536  0.77204  0.65272  1.0000
  S   S906      1.0  0.33742  0.83980  0.65169  1.0000
  H   H3664     1.0  0.52601  0.83332  0.70942  1.0000
  H   H3665     1.0  0.59262  0.78141  0.68465  1.0000
  Fe  Fe449     1.0  0.49866  0.80958  0.64457  1.0000
  H   H3666     1.0  0.35516  0.97482  0.66273  1.0000
  H   H3667     1.0  0.47650  0.75354  0.65535  1.0000
  H   H3668     1.0  0.62173  0.76816  0.66506  1.0000
  H   H3669     1.0  0.37855  0.79161  0.63892  1.0000
  H   H3670     1.0  0.45643  0.77319  0.68591  1.0000
  H   H3671     1.0  0.48648  0.78227  0.65295  1.0000
  H   H3672     1.0  0.65166  0.83196  0.65506  1.0000
  H   H3673     1.0  0.33735  0.89819  0.69663  1.0000
  C   C2292     1.0  0.65961  0.85833  0.64804  1.0000
  H   H3674     1.0  0.35746  0.78751  0.66941  1.0000
  C   C2293     1.0  0.37643  0.81470  0.65053  1.0000
  H   H3675     1.0  0.44041  0.80079  0.65107  1.0000
  Fe  Fe450     1.0  0.50261  0.79571  0.67608  1.0000
  H   H3676     1.0  0.33499  0.74309  0.53873  1.0000
  C   C2294     1.0  0.36577  0.83584  0.72044  1.0000
  H   H3677     1.0  0.47231  0.74779  0.68885  1.0000
  C   C2295     1.0  0.48187  0.75259  0.68150  1.0000
  H   H3678     1.0  0.37906  0.96886  0.64465  1.0000
  C   C2296     1.0  0.34061  0.85041  0.72004  1.0000
  C   C2297     1.0  0.58653  0.78227  0.65879  1.0000
  C   C2298     1.0  0.51898  0.78447  0.70635  1.0000
  H   H3679     1.0  0.60891  0.78927  0.67679  1.0000
  H   H3680     1.0  0.37572  0.83259  0.72493  1.0000
  H   H3681     1.0  0.35326  0.75897  0.51152  1.0000
  C   C2299     1.0  0.64126  0.82209  0.62575  1.0000
  H   H3682     1.0  0.63384  0.83089  0.61976  1.0000
  H   H3683     1.0  0.36758  0.73337  0.50876  1.0000
  H   H3684     1.0  0.34442  0.81794  0.61328  1.0000
  C   C2300     1.0  0.59821  0.78864  0.67468  1.0000
  H   H3685     1.0  0.61952  0.85868  0.71436  1.0000
  H   H3686     1.0  0.33304  0.76761  0.60319  1.0000
  H   H3687     1.0  0.35386  0.74779  0.48895  1.0000
  H   H3688     1.0  0.57875  0.79336  0.65752  1.0000
  C   C2301     1.0  0.34024  0.84451  0.70842  1.0000
  C   C2302     1.0  0.61078  0.76796  0.66311  1.0000
  H   H3689     1.0  0.61965  0.79311  0.64965  1.0000
  H   H3690     1.0  0.65767  0.82722  0.71356  1.0000
  C   C2303     1.0  0.63634  0.81653  0.64093  1.0000
  S   S907      1.0  0.33376  0.93483  0.67240  1.0000
  S   S908      1.0  0.50685  0.82977  0.64352  1.0000
  N   N230      1.0  0.60096  0.78296  0.66123  1.0000
  Fe  Fe451     1.0  0.62576  0.83858  0.69211  1.0000
  S   S909      1.0  0.63433  0.81416  0.69930  1.0000
  S   S910      1.0  0.64310  0.85168  0.68905  1.0000
  Fe  Fe452     1.0  0.59615  0.83453  0.68934  1.0000
  S   S911      1.0  0.60260  0.80978  0.69627  1.0000
  S   S912      1.0  0.57259  0.84468  0.68606  1.0000
  Fe  Fe453     1.0  0.61136  0.81410  0.71354  1.0000
  Fe  Fe454     1.0  0.62487  0.81231  0.68130  1.0000
  S   S913      1.0  0.60333  0.83879  0.70785  1.0000
  S   S914      1.0  0.61788  0.83681  0.67287  1.0000
  H   H3691     1.0  0.53462  0.79092  0.71436  1.0000
  C   C2304     1.0  0.56611  0.83668  0.67538  1.0000
  C   C2305     1.0  0.57603  0.82994  0.66421  1.0000
  C   C2306     1.0  0.57056  0.82379  0.65573  1.0000
  C   C2307     1.0  0.55529  0.82374  0.65875  1.0000
  C   C2308     1.0  0.54533  0.83072  0.66975  1.0000
  C   C2309     1.0  0.55072  0.83734  0.67791  1.0000
  H   H3692     1.0  0.58785  0.82983  0.66189  1.0000
  H   H3693     1.0  0.53349  0.83122  0.67183  1.0000
  H   H3694     1.0  0.54299  0.84293  0.68623  1.0000
  C   C2310     1.0  0.60844  0.79294  0.64839  1.0000
  S   S915      1.0  0.51773  0.79351  0.65400  1.0000
  H   H3695     1.0  0.33226  0.79766  0.48161  1.0000
  S   S916      1.0  0.51093  0.81455  0.67775  1.0000
  C   C2311     1.0  0.62989  0.86021  0.71560  1.0000
  C   C2312     1.0  0.64298  0.85775  0.70469  1.0000
  H   H3696     1.0  0.64739  0.85931  0.64940  1.0000
  H   H3697     1.0  0.49693  0.81468  0.70915  1.0000
  H   H3698     1.0  0.65117  0.85331  0.53431  1.0000
  H   H3699     1.0  0.64691  0.83286  0.57362  1.0000
  C   C2313     1.0  0.36034  0.98366  0.65548  1.0000
  C   C2314     1.0  0.65262  0.82586  0.56534  1.0000
  N   N231      1.0  0.50289  0.83173  0.71537  1.0000
  H   H3700     1.0  0.34262  0.97070  0.48960  1.0000
  H   H3701     1.0  0.34985  0.92061  0.72419  1.0000
  H   H3702     1.0  0.34586  0.82823  0.59448  1.0000
  C   C2315     1.0  0.49835  0.77598  0.72495  1.0000
  H   H3703     1.0  0.48680  0.84870  0.70454  1.0000
  C   C2316     1.0  0.45689  0.97866  0.72443  1.0000
  C   C2317     1.0  0.65668  0.86424  0.71897  1.0000
  S   S917      1.0  0.66134  0.82288  0.59916  1.0000
  S   S918      1.0  0.39494  0.85889  0.72583  1.0000
  H   H3704     1.0  0.33098  0.85837  0.72434  1.0000
  H   H3705     1.0  0.66157  0.81715  0.57009  1.0000
  H   H3706     1.0  0.66129  0.85867  0.65891  1.0000
  H   H3707     1.0  0.33210  0.98354  0.72784  1.0000
  C   C2318     1.0  0.63014  0.86502  0.72800  1.0000
  H   H3708     1.0  0.64967  0.82654  0.83128  1.0000
  C   C2319     1.0  0.40975  0.69469  0.96531  1.0000
  H   H3709     1.0  0.44398  0.96331  0.83704  1.0000
  H   H3710     1.0  0.42616  0.70768  0.92021  1.0000
  C   C2320     1.0  0.45603  0.70311  0.91283  1.0000
  C   C2321     1.0  0.45280  0.71421  0.93333  1.0000
  C   C2322     1.0  0.38363  0.71384  0.95793  1.0000
  Fe  Fe455     1.0  0.49017  0.67698  0.89757  1.0000
  S   S919      1.0  0.47270  0.66358  0.90958  1.0000
  H   H3711     1.0  0.45107  0.70211  0.90409  1.0000
  S   S920      1.0  0.48640  0.69704  0.87928  1.0000
  S   S921      1.0  0.36761  0.65586  0.94632  1.0000
  S   S922      1.0  0.37180  0.69146  0.95648  1.0000
  H   H3712     1.0  0.63831  0.75516  0.94896  1.0000
  H   H3713     1.0  0.42335  0.71685  0.93488  1.0000
  C   C2323     1.0  0.44277  0.72858  0.91200  1.0000
  Fe  Fe456     1.0  0.37667  0.66665  0.95885  1.0000
  C   C2324     1.0  0.39063  0.97841  0.84083  1.0000
  C   C2325     1.0  0.65511  0.82382  0.94877  1.0000
  C   C2326     1.0  0.48558  0.72133  0.82851  1.0000
  H   H3714     1.0  0.64018  0.71522  0.95308  1.0000
  H   H3715     1.0  0.48989  0.65490  0.88235  1.0000
  S   S923      1.0  0.42222  0.71643  0.96628  1.0000
  C   C2327     1.0  0.39878  0.68900  0.96298  1.0000
  H   H3716     1.0  0.44544  0.72211  0.94020  1.0000
  H   H3717     1.0  0.64085  0.83430  0.73660  1.0000
  C   C2328     1.0  0.38571  0.69853  0.95924  1.0000
  H   H3718     1.0  0.48809  0.70286  0.84711  1.0000
  H   H3719     1.0  0.46672  0.70674  0.90723  1.0000
  Fe  Fe457     1.0  0.65537  0.87255  0.89472  1.0000
  H   H3720     1.0  0.45883  0.69179  0.91985  1.0000
  H   H3721     1.0  0.43754  0.72855  0.90305  1.0000
  H   H3722     1.0  0.43508  0.73683  0.91836  1.0000
  S   S924      1.0  0.49700  0.68866  0.91095  1.0000
  H   H3723     1.0  0.65956  0.89832  0.81432  1.0000
  Fe  Fe458     1.0  0.38663  0.97627  0.76400  1.0000
  S   S925      1.0  0.66011  0.89054  0.85305  1.0000
  Fe  Fe459     1.0  0.49543  0.70795  0.89158  1.0000
  H   H3724     1.0  0.45328  0.73263  0.90664  1.0000
  H   H3725     1.0  0.49771  0.71966  0.91750  1.0000
  S   S926      1.0  0.60808  0.79964  0.73647  1.0000
  H   H3726     1.0  0.61152  0.69405  0.97276  1.0000
  H   H3727     1.0  0.34364  0.88564  0.75236  1.0000
  N   N232      1.0  0.44577  0.71366  0.92169  1.0000
  H   H3728     1.0  0.46361  0.71779  0.92851  1.0000
  C   C2329     1.0  0.49385  0.70948  0.83733  1.0000
  H   H3729     1.0  0.65260  0.74070  0.95640  1.0000
  H   H3730     1.0  0.61119  0.82889  0.73607  1.0000
  H   H3731     1.0  0.41975  0.96414  0.83249  1.0000
  C   C2330     1.0  0.43152  0.70877  0.92861  1.0000
  H   H3732     1.0  0.65484  0.75346  0.92398  1.0000
  H   H3733     1.0  0.49470  0.73788  0.86034  1.0000
  H   H3734     1.0  0.39480  0.93783  0.83484  1.0000
  H   H3735     1.0  0.40367  0.91973  0.91148  1.0000
  S   S927      1.0  0.44469  0.94989  0.88481  1.0000
  H   H3736     1.0  0.65198  0.71392  0.93521  1.0000
  Fe  Fe460     1.0  0.41552  0.86489  0.87928  1.0000
  S   S928      1.0  0.43689  0.87309  0.87072  1.0000
  S   S929      1.0  0.41028  0.85663  0.90406  1.0000
  Fe  Fe461     1.0  0.40925  0.87217  0.84833  1.0000
  S   S930      1.0  0.43050  0.88009  0.83759  1.0000
  S   S931      1.0  0.39308  0.87753  0.83354  1.0000
  Fe  Fe462     1.0  0.44070  0.86039  0.85325  1.0000
  S   S932      1.0  0.46266  0.84475  0.84754  1.0000
  Fe  Fe463     1.0  0.42430  0.89199  0.85607  1.0000
  S   S933      1.0  0.42165  0.91687  0.85021  1.0000
  S   S934      1.0  0.41998  0.85122  0.86248  1.0000
  S   S935      1.0  0.40249  0.88496  0.86620  1.0000
  C   C2331     1.0  0.39467  0.71957  0.96021  1.0000
  H   H3737     1.0  0.45115  0.83093  0.87843  1.0000
  S   S936      1.0  0.43446  0.74437  0.97674  1.0000
  Fe  Fe464     1.0  0.39527  0.84628  0.76784  1.0000
  S   S937      1.0  0.41451  0.85389  0.75073  1.0000
  S   S938      1.0  0.40050  0.83598  0.79036  1.0000
  Fe  Fe465     1.0  0.37664  0.85168  0.74462  1.0000
  H   H3738     1.0  0.56469  0.81464  0.75328  1.0000
  H   H3739     1.0  0.49648  0.81146  0.72844  1.0000
  C   C2332     1.0  0.49930  0.83822  0.72846  1.0000
  Fe  Fe466     1.0  0.39702  0.87181  0.74090  1.0000
  H   H3740     1.0  0.36976  0.89741  0.75373  1.0000
  S   S939      1.0  0.39180  0.83155  0.75526  1.0000
  S   S940      1.0  0.37797  0.86556  0.75928  1.0000
  H   H3741     1.0  0.45976  0.86466  0.78488  1.0000
  H   H3742     1.0  0.43514  0.79806  0.89966  1.0000
  S   S941      1.0  0.46571  0.81685  0.79465  1.0000
  S   S942      1.0  0.40876  0.78827  0.92614  1.0000
  S   S943      1.0  0.40925  0.96201  0.75661  1.0000
  H   H3743     1.0  0.38644  0.96927  0.84881  1.0000
  H   H3744     1.0  0.51482  0.73929  0.87095  1.0000
  S   S944      1.0  0.47074  0.75352  0.95082  1.0000
  H   H3745     1.0  0.43908  0.86049  0.77701  1.0000
  C   C2333     1.0  0.38621  0.93097  0.84003  1.0000
  H   H3746     1.0  0.50105  0.76207  0.85521  1.0000
  C   C2334     1.0  0.49294  0.73007  0.81586  1.0000
  H   H3747     1.0  0.64904  0.81852  0.95927  1.0000
  C   C2335     1.0  0.34360  0.96237  0.73859  1.0000
  H   H3748     1.0  0.36270  0.92012  0.84123  1.0000
  H   H3749     1.0  0.45644  0.87904  0.79475  1.0000
  H   H3750     1.0  0.49781  0.77623  0.74739  1.0000
  C   C2336     1.0  0.50375  0.77849  0.73599  1.0000
  S   S945      1.0  0.35409  0.85513  0.73939  1.0000
  S   S946      1.0  0.48470  0.73197  0.89143  1.0000
  H   H3751     1.0  0.42103  0.91154  0.91743  1.0000
  H   H3752     1.0  0.46620  0.75801  0.90058  1.0000
  H   H3753     1.0  0.37877  0.92813  0.80860  1.0000
  H   H3754     1.0  0.43011  0.89279  0.80290  1.0000
  S   S947      1.0  0.40279  0.76047  0.96615  1.0000
  H   H3755     1.0  0.45505  0.70318  0.94098  1.0000
  H   H3756     1.0  0.40210  0.80972  0.90036  1.0000
  S   S948      1.0  0.62736  0.73849  0.89620  1.0000
  H   H3757     1.0  0.58209  0.79335  0.78512  1.0000
  S   S949      1.0  0.42919  0.77957  0.95999  1.0000
  H   H3758     1.0  0.45001  0.86232  0.80386  1.0000
  H   H3759     1.0  0.41513  0.88935  0.79751  1.0000
  H   H3760     1.0  0.44202  0.96727  0.74252  1.0000
  H   H3761     1.0  0.42404  0.87556  0.81094  1.0000
  C   C2337     1.0  0.41305  0.82983  0.92404  1.0000
  C   C2338     1.0  0.46891  0.75648  0.92238  1.0000
  C   C2339     1.0  0.39889  0.90331  0.74641  1.0000
  C   C2340     1.0  0.40027  0.91803  0.74347  1.0000
  C   C2341     1.0  0.40153  0.92384  0.75478  1.0000
  C   C2342     1.0  0.40127  0.91496  0.76903  1.0000
  C   C2343     1.0  0.39910  0.90052  0.77208  1.0000
  C   C2344     1.0  0.39816  0.89462  0.76076  1.0000
  H   H3762     1.0  0.56839  0.78208  0.79339  1.0000
  H   H3763     1.0  0.40308  0.93505  0.75237  1.0000
  H   H3764     1.0  0.39838  0.89377  0.78314  1.0000
  H   H3765     1.0  0.39697  0.88329  0.76315  1.0000
  Fe  Fe467     1.0  0.44562  0.75835  0.95638  1.0000
  H   H3766     1.0  0.46074  0.76665  0.92378  1.0000
  H   H3767     1.0  0.38961  0.92316  0.85004  1.0000
  C   C2345     1.0  0.48974  0.72996  0.91881  1.0000
  C   C2346     1.0  0.52317  0.73819  0.86038  1.0000
  C   C2347     1.0  0.46566  0.80425  0.87228  1.0000
  S   S950      1.0  0.41233  0.95462  0.79101  1.0000
  C   C2348     1.0  0.43956  0.91816  0.86765  1.0000
  H   H3768     1.0  0.44466  0.90664  0.86746  1.0000
  C   C2349     1.0  0.46321  0.83636  0.83340  1.0000
  C   C2350     1.0  0.45042  0.83878  0.82788  1.0000
  C   C2351     1.0  0.45116  0.83247  0.81615  1.0000
  C   C2352     1.0  0.46465  0.82375  0.80998  1.0000
  C   C2353     1.0  0.47730  0.82094  0.81583  1.0000
  C   C2354     1.0  0.47658  0.82727  0.82752  1.0000
  H   H3769     1.0  0.44002  0.84565  0.83247  1.0000
  H   H3770     1.0  0.44130  0.83438  0.81184  1.0000
  C   C2355     1.0  0.39580  0.86603  0.82132  1.0000
  C   C2356     1.0  0.38887  0.87143  0.80923  1.0000
  C   C2357     1.0  0.39059  0.86243  0.79941  1.0000
  C   C2358     1.0  0.39892  0.84784  0.80189  1.0000
  C   C2359     1.0  0.40598  0.84248  0.81390  1.0000
  C   C2360     1.0  0.40461  0.85164  0.82349  1.0000
  H   H3771     1.0  0.38203  0.88257  0.80753  1.0000
  H   H3772     1.0  0.38509  0.86661  0.79019  1.0000
  H   H3773     1.0  0.41244  0.83119  0.81585  1.0000
  H   H3774     1.0  0.40996  0.84739  0.83281  1.0000
  H   H3775     1.0  0.40272  0.83638  0.89141  1.0000
  H   H3776     1.0  0.52928  0.72640  0.86157  1.0000
  C   C2361     1.0  0.48222  0.73822  0.90755  1.0000
  H   H3777     1.0  0.37353  0.72128  0.95501  1.0000
  H   H3778     1.0  0.44211  0.82173  0.86168  1.0000
  C   C2362     1.0  0.65953  0.78959  0.83218  1.0000
  H   H3779     1.0  0.37181  0.95737  0.75607  1.0000
  S   S951      1.0  0.48239  0.74522  0.80530  1.0000
  H   H3780     1.0  0.44009  0.80289  0.86630  1.0000
  C   C2363     1.0  0.34864  0.89341  0.74246  1.0000
  N   N233      1.0  0.43703  0.87734  0.78863  1.0000
  H   H3781     1.0  0.45445  0.79219  0.90075  1.0000
  H   H3782     1.0  0.41560  0.80864  0.93959  1.0000
  N   N234      1.0  0.44026  0.96307  0.81613  1.0000
  C   C2364     1.0  0.48680  0.73501  0.93190  1.0000
  C   C2365     1.0  0.43958  0.81232  0.87110  1.0000
  H   H3783     1.0  0.46705  0.79480  0.86715  1.0000
  Fe  Fe468     1.0  0.41668  0.77363  0.94658  1.0000
  H   H3784     1.0  0.42206  0.95988  0.86739  1.0000
  S   S952      1.0  0.53352  0.77340  0.81209  1.0000
  C   C2366     1.0  0.42179  0.94071  0.86010  1.0000
  Fe  Fe469     1.0  0.41689  0.97229  0.77071  1.0000
  H   H3785     1.0  0.45679  0.81845  0.89460  1.0000
  H   H3786     1.0  0.48775  0.81418  0.81111  1.0000
  S   S953      1.0  0.61494  0.78134  0.96723  1.0000
  H   H3787     1.0  0.65370  0.85102  0.83194  1.0000
  S   S954      1.0  0.48586  0.78357  0.77716  1.0000
  C   C2367     1.0  0.61722  0.73566  0.87339  1.0000
  H   H3788     1.0  0.35874  0.91325  0.76083  1.0000
  H   H3789     1.0  0.58297  0.76840  0.85874  1.0000
  H   H3790     1.0  0.44775  0.78560  0.88865  1.0000
  N   N235      1.0  0.45021  0.80825  0.88092  1.0000
  H   H3791     1.0  0.42879  0.89396  0.77091  1.0000
  C   C2368     1.0  0.40530  0.81528  0.90694  1.0000
  C   C2369     1.0  0.40892  0.80734  0.92054  1.0000
  H   H3792     1.0  0.44308  0.89811  0.77671  1.0000
  H   H3793     1.0  0.65690  0.79563  0.73220  1.0000
  C   C2370     1.0  0.47203  0.75160  0.90926  1.0000
  H   H3794     1.0  0.42782  0.81575  0.87716  1.0000
  H   H3795     1.0  0.40815  0.92049  0.81860  1.0000
  Fe  Fe470     1.0  0.42150  0.74079  0.96251  1.0000
  H   H3796     1.0  0.42024  0.87052  0.78264  1.0000
  Fe  Fe471     1.0  0.40230  0.94589  0.77779  1.0000
  C   C2371     1.0  0.61296  0.74091  0.85974  1.0000
  C   C2372     1.0  0.43932  0.88891  0.77493  1.0000
  H   H3797     1.0  0.48716  0.84341  0.73131  1.0000
  H   H3798     1.0  0.42946  0.85688  0.79604  1.0000
  H   H3799     1.0  0.47400  0.80105  0.87934  1.0000
  C   C2373     1.0  0.42615  0.88406  0.80051  1.0000
  N   N236      1.0  0.38489  0.92295  0.82960  1.0000
  H   H3800     1.0  0.46864  0.81373  0.86316  1.0000
  C   C2374     1.0  0.43122  0.86581  0.78594  1.0000
  C   C2375     1.0  0.44883  0.82102  0.88725  1.0000
  H   H3801     1.0  0.43736  0.82426  0.89395  1.0000
  C   C2376     1.0  0.55310  0.75711  0.88362  1.0000
  S   S955      1.0  0.49122  0.77913  0.81061  1.0000
  C   C2377     1.0  0.39965  0.91366  0.82439  1.0000
  N   N237      1.0  0.43817  0.80398  0.77203  1.0000
  C   C2378     1.0  0.44933  0.79580  0.76136  1.0000
  C   C2379     1.0  0.42294  0.80358  0.77149  1.0000
  C   C2380     1.0  0.43975  0.81954  0.76813  1.0000
  C   C2381     1.0  0.44065  0.79704  0.78714  1.0000
  H   H3802     1.0  0.46093  0.79623  0.76116  1.0000
  H   H3803     1.0  0.44749  0.80059  0.74990  1.0000
  H   H3804     1.0  0.44875  0.78391  0.76416  1.0000
  H   H3805     1.0  0.41421  0.80962  0.77944  1.0000
  H   H3806     1.0  0.42063  0.80887  0.76029  1.0000
  H   H3807     1.0  0.42138  0.79201  0.77426  1.0000
  H   H3808     1.0  0.43131  0.82611  0.77581  1.0000
  H   H3809     1.0  0.43816  0.82504  0.75671  1.0000
  H   H3810     1.0  0.45101  0.82024  0.76878  1.0000
  H   H3811     1.0  0.43258  0.80322  0.79537  1.0000
  H   H3812     1.0  0.45211  0.79696  0.78791  1.0000
  H   H3813     1.0  0.43935  0.78535  0.79059  1.0000
  N   N238      1.0  0.41402  0.89781  0.90761  1.0000
  C   C2382     1.0  0.42927  0.88849  0.90435  1.0000
  C   C2383     1.0  0.40541  0.89049  0.92173  1.0000
  C   C2384     1.0  0.40642  0.89968  0.89558  1.0000
  C   C2385     1.0  0.41498  0.91251  0.90875  1.0000
  H   H3814     1.0  0.43608  0.89362  0.89373  1.0000
  H   H3815     1.0  0.42890  0.87731  0.90344  1.0000
  H   H3816     1.0  0.43536  0.88683  0.91318  1.0000
  H   H3817     1.0  0.39377  0.89709  0.92448  1.0000
  H   H3818     1.0  0.40456  0.87931  0.92122  1.0000
  H   H3819     1.0  0.41080  0.88890  0.93107  1.0000
  H   H3820     1.0  0.41281  0.90478  0.88466  1.0000
  H   H3821     1.0  0.39499  0.90689  0.89748  1.0000
  H   H3822     1.0  0.40519  0.88880  0.89472  1.0000
  H   H3823     1.0  0.42108  0.91848  0.89815  1.0000
  S   S956      1.0  0.65707  0.76957  0.96051  1.0000
  H   H3824     1.0  0.37546  0.93866  0.84363  1.0000
  C   C2386     1.0  0.44677  0.79546  0.89300  1.0000
  H   H3825     1.0  0.41267  0.94647  0.85459  1.0000
  C   C2387     1.0  0.37394  0.91347  0.83707  1.0000
  H   H3826     1.0  0.35668  0.94316  0.75072  1.0000
  C   C2388     1.0  0.42810  0.92569  0.86011  1.0000
  C   C2389     1.0  0.42703  0.94829  0.86741  1.0000
  C   C2390     1.0  0.40572  0.83037  0.90182  1.0000
  C   C2391     1.0  0.45146  0.87056  0.79319  1.0000
  C   C2392     1.0  0.47616  0.74814  0.93379  1.0000
  S   S957      1.0  0.38191  0.96954  0.82044  1.0000
  C   C2393     1.0  0.40956  0.83771  0.91037  1.0000
  H   H3827     1.0  0.44779  0.88430  0.76585  1.0000
  C   C2394     1.0  0.51672  0.78411  0.73216  1.0000
  Fe  Fe472     1.0  0.48571  0.79800  0.79183  1.0000
  H   H3828     1.0  0.53153  0.74483  0.85898  1.0000
  S   S958      1.0  0.40494  0.92116  0.78284  1.0000
  H   H3829     1.0  0.45359  0.91990  0.88095  1.0000
  H   H3830     1.0  0.48648  0.82537  0.83179  1.0000
  C   C2395     1.0  0.36308  0.96314  0.75005  1.0000
  N   N239      1.0  0.65960  0.81576  0.73576  1.0000
  H   H3831     1.0  0.65995  0.73628  0.91801  1.0000
  Fe  Fe473     1.0  0.38976  0.96942  0.79609  1.0000
  C   C2396     1.0  0.41287  0.81464  0.92906  1.0000
  H   H3832     1.0  0.37761  0.90495  0.84661  1.0000
  S   S959      1.0  0.43405  0.75331  0.94181  1.0000
  C   C2397     1.0  0.43844  0.94078  0.87502  1.0000
  C   C2398     1.0  0.37979  0.93376  0.81680  1.0000
  H   H3833     1.0  0.40386  0.90540  0.83377  1.0000
  H   H3834     1.0  0.36875  0.94116  0.82021  1.0000
  Fe  Fe474     1.0  0.43906  0.97491  0.87825  1.0000
  C   C2399     1.0  0.44467  0.92570  0.87516  1.0000
  H   H3835     1.0  0.38787  0.94099  0.81101  1.0000
  S   S960      1.0  0.43766  0.98080  0.76720  1.0000
  C   C2400     1.0  0.44788  0.95583  0.80355  1.0000
  C   C2401     1.0  0.35455  0.95508  0.74690  1.0000
  H   H3836     1.0  0.41598  0.83545  0.93075  1.0000
  S   S961      1.0  0.37921  0.95944  0.78421  1.0000
  H   H3837     1.0  0.39900  0.90745  0.81651  1.0000
  H   H3838     1.0  0.37265  0.90735  0.82941  1.0000
  C   C2402     1.0  0.56298  0.77848  0.88097  1.0000
  H   H3839     1.0  0.63805  0.81409  0.83339  1.0000
  H   H3840     1.0  0.40044  0.67724  0.96413  1.0000
  C   C2403     1.0  0.44811  0.97606  0.73889  1.0000
  H   H3841     1.0  0.63355  0.73510  0.92379  1.0000
  Fe  Fe475     1.0  0.49336  0.76469  0.79523  1.0000
  C   C2404     1.0  0.35807  0.90318  0.75771  1.0000
  H   H3842     1.0  0.49241  0.72851  0.94072  1.0000
  H   H3843     1.0  0.43324  0.69784  0.93652  1.0000
  H   H3844     1.0  0.43793  0.65686  0.88635  1.0000
  H   H3845     1.0  0.57966  0.81242  0.76207  1.0000
  C   C2405     1.0  0.60783  0.66073  0.92666  1.0000
  H   H3846     1.0  0.47346  0.72385  0.83159  1.0000
  H   H3847     1.0  0.62663  0.76651  0.87545  1.0000
  C   C2406     1.0  0.55902  0.68698  0.91279  1.0000
  H   H3848     1.0  0.53011  0.72460  0.91045  1.0000
  C   C2407     1.0  0.51685  0.71451  0.82040  1.0000
  S   S962      1.0  0.39975  0.65207  0.95545  1.0000
  Fe  Fe476     1.0  0.60346  0.69607  0.92974  1.0000
  S   S963      1.0  0.58171  0.70688  0.94260  1.0000
  S   S964      1.0  0.60967  0.67137  0.93779  1.0000
  H   H3849     1.0  0.60213  0.65953  0.97166  1.0000
  S   S965      1.0  0.52014  0.69166  0.84448  1.0000
  Fe  Fe477     1.0  0.59477  0.72193  0.94473  1.0000
  Fe  Fe478     1.0  0.57928  0.72245  0.92101  1.0000
  C   C2408     1.0  0.65025  0.82843  0.74224  1.0000
  S   S966      1.0  0.61684  0.71006  0.93328  1.0000
  S   S967      1.0  0.60000  0.71042  0.90767  1.0000
  H   H3850     1.0  0.57368  0.69861  0.91604  1.0000
  H   H3851     1.0  0.35812  0.92660  0.73539  1.0000
  Fe  Fe479     1.0  0.52019  0.68093  0.89815  1.0000
  C   C2409     1.0  0.55240  0.71314  0.91326  1.0000
  C   C2410     1.0  0.53821  0.71413  0.91108  1.0000
  N   N240      1.0  0.66072  0.80348  0.83505  1.0000
  C   C2411     1.0  0.56273  0.69950  0.91431  1.0000
  H   H3852     1.0  0.35311  0.89575  0.76791  1.0000
  S   S968      1.0  0.51363  0.66771  0.88617  1.0000
  S   S969      1.0  0.66010  0.92530  0.86400  1.0000
  C   C2412     1.0  0.60744  0.66666  0.91176  1.0000
  C   C2413     1.0  0.65019  0.80549  0.73674  1.0000
  H   H3853     1.0  0.60726  0.67830  0.90710  1.0000
  H   H3854     1.0  0.61996  0.86704  0.73633  1.0000
  S   S970      1.0  0.51922  0.70129  0.87993  1.0000
  C   C2414     1.0  0.53441  0.70152  0.90986  1.0000
  H   H3855     1.0  0.52334  0.70233  0.90845  1.0000
  C   C2415     1.0  0.65632  0.84505  0.92782  1.0000
  C   C2416     1.0  0.50951  0.70604  0.83329  1.0000
  S   S971      1.0  0.54032  0.67236  0.90836  1.0000
  C   C2417     1.0  0.33397  0.91508  0.75181  1.0000
  H   H3856     1.0  0.56727  0.67669  0.91294  1.0000
  H   H3857     1.0  0.42588  0.65570  0.86703  1.0000
  H   H3858     1.0  0.57338  0.77427  0.76960  1.0000
  Fe  Fe480     1.0  0.61113  0.72565  0.91258  1.0000
  Fe  Fe481     1.0  0.51517  0.77976  0.79965  1.0000
  H   H3859     1.0  0.54453  0.76370  0.87711  1.0000
  H   H3860     1.0  0.48399  0.76445  0.97683  1.0000
  H   H3861     1.0  0.56337  0.80144  0.79362  1.0000
  H   H3862     1.0  0.61693  0.72440  0.87938  1.0000
  H   H3863     1.0  0.60323  0.69151  0.95944  1.0000
  S   S972      1.0  0.52290  0.78904  0.74530  1.0000
  S   S973      1.0  0.59345  0.72486  0.96736  1.0000
  C   C2418     1.0  0.54486  0.68796  0.91056  1.0000
  Fe  Fe482     1.0  0.51046  0.68895  0.86893  1.0000
  C   C2419     1.0  0.44943  0.95795  0.82744  1.0000
  H   H3864     1.0  0.50214  0.82958  0.73831  1.0000
  C   C2420     1.0  0.50860  0.72666  0.81185  1.0000
  H   H3865     1.0  0.39310  0.73140  0.95902  1.0000
  C   C2421     1.0  0.64356  0.86689  0.72979  1.0000
  H   H3866     1.0  0.50790  0.72288  0.85314  1.0000
  H   H3867     1.0  0.65873  0.81250  0.85367  1.0000
  H   H3868     1.0  0.45380  0.65157  0.86269  1.0000
  H   H3869     1.0  0.52895  0.71181  0.81714  1.0000
  S   S974      1.0  0.55726  0.72901  0.91440  1.0000
  C   C2422     1.0  0.61283  0.97343  0.89471  1.0000
  H   H3870     1.0  0.53671  0.74471  0.83198  1.0000
  H   H3871     1.0  0.63358  0.73858  0.96133  1.0000
  H   H3872     1.0  0.44961  0.94354  0.80711  1.0000
  N   N241      1.0  0.34931  0.90707  0.74619  1.0000
  H   H3873     1.0  0.62221  0.73572  0.94196  1.0000
  H   H3874     1.0  0.33413  0.92507  0.75540  1.0000
  C   C2423     1.0  0.60808  0.65730  0.90264  1.0000
  C   C2424     1.0  0.52701  0.73949  0.83429  1.0000
  S   S975      1.0  0.64388  0.87198  0.74584  1.0000
  Fe  Fe483     1.0  0.60766  0.81532  0.80770  1.0000
  S   S976      1.0  0.59341  0.82998  0.82321  1.0000
  S   S977      1.0  0.61893  0.82548  0.78489  1.0000
  Fe  Fe484     1.0  0.60247  0.78707  0.82994  1.0000
  S   S978      1.0  0.58761  0.79914  0.84730  1.0000
  S   S979      1.0  0.60711  0.76227  0.83529  1.0000
  Fe  Fe485     1.0  0.57770  0.81465  0.82868  1.0000
  S   S980      1.0  0.55300  0.82235  0.82980  1.0000
  Fe  Fe486     1.0  0.60476  0.81308  0.84027  1.0000
  S   S981      1.0  0.61488  0.81606  0.85744  1.0000
  S   S982      1.0  0.59109  0.80134  0.81180  1.0000
  S   S983      1.0  0.62046  0.79975  0.82418  1.0000
  C   C2425     1.0  0.38955  0.98120  0.82604  1.0000
  C   C2426     1.0  0.50955  0.75912  0.84532  1.0000
  C   C2427     1.0  0.63162  0.73991  0.93354  1.0000
  H   H3875     1.0  0.62782  0.75215  0.93001  1.0000
  Fe  Fe487     1.0  0.64169  0.87976  0.86785  1.0000
  C   C2428     1.0  0.65782  0.80221  0.85117  1.0000
  S   S984      1.0  0.62323  0.87885  0.85779  1.0000
  H   H3876     1.0  0.64632  0.80039  0.85672  1.0000
  S   S985      1.0  0.64770  0.86290  0.91916  1.0000
  S   S986      1.0  0.63862  0.89219  0.88539  1.0000
  H   H3877     1.0  0.65945  0.71614  0.94949  1.0000
  C   C2429     1.0  0.34078  0.97782  0.73394  1.0000
  Fe  Fe488     1.0  0.65884  0.90101  0.87154  1.0000
  S   S987      1.0  0.51777  0.76389  0.78553  1.0000
  H   H3878     1.0  0.36001  0.88725  0.73788  1.0000
  C   C2430     1.0  0.43811  0.97935  0.81081  1.0000
  H   H3879     1.0  0.65164  0.81760  0.81656  1.0000
  H   H3880     1.0  0.52204  0.74361  0.82433  1.0000
  H   H3881     1.0  0.63746  0.84344  0.94634  1.0000
  H   H3882     1.0  0.44899  0.98271  0.80558  1.0000
  N   N242      1.0  0.51586  0.74298  0.84767  1.0000
  H   H3883     1.0  0.57678  0.75190  0.86075  1.0000
  C   C2431     1.0  0.61343  0.75545  0.85185  1.0000
  S   S988      1.0  0.59008  0.73885  0.92434  1.0000
  C   C2432     1.0  0.61827  0.76470  0.85759  1.0000
  H   H3884     1.0  0.45900  0.95862  0.79817  1.0000
  H   H3885     1.0  0.61851  0.77598  0.85165  1.0000
  C   C2433     1.0  0.54675  0.80878  0.82570  1.0000
  C   C2434     1.0  0.53398  0.81258  0.81976  1.0000
  C   C2435     1.0  0.52964  0.80178  0.81561  1.0000
  C   C2436     1.0  0.53799  0.78716  0.81764  1.0000
  C   C2437     1.0  0.55047  0.78330  0.82397  1.0000
  C   C2438     1.0  0.55490  0.79410  0.82790  1.0000
  H   H3886     1.0  0.52763  0.82394  0.81810  1.0000
  H   H3887     1.0  0.51991  0.80477  0.81083  1.0000
  H   H3888     1.0  0.55695  0.77200  0.82554  1.0000
  H   H3889     1.0  0.56467  0.79108  0.83259  1.0000
  C   C2439     1.0  0.61784  0.83364  0.85611  1.0000
  C   C2440     1.0  0.60938  0.84664  0.84894  1.0000
  C   C2441     1.0  0.61128  0.86054  0.84924  1.0000
  C   C2442     1.0  0.62193  0.86143  0.85632  1.0000
  C   C2443     1.0  0.63086  0.84837  0.86276  1.0000
  C   C2444     1.0  0.62861  0.83455  0.86295  1.0000
  H   H3890     1.0  0.60092  0.84600  0.84379  1.0000
  H   H3891     1.0  0.60426  0.87061  0.84430  1.0000
  H   H3892     1.0  0.63928  0.84889  0.86788  1.0000
  H   H3893     1.0  0.63511  0.82454  0.86858  1.0000
  C   C2445     1.0  0.61539  0.81845  0.77164  1.0000
  C   C2446     1.0  0.61425  0.82753  0.75769  1.0000
  C   C2447     1.0  0.61200  0.82183  0.74681  1.0000
  C   C2448     1.0  0.61085  0.80705  0.74988  1.0000
  C   C2449     1.0  0.61190  0.79800  0.76387  1.0000
  C   C2450     1.0  0.61416  0.80370  0.77475  1.0000
  H   H3894     1.0  0.61512  0.83899  0.75529  1.0000
  C   C2451     1.0  0.64955  0.81598  0.82878  1.0000
  H   H3895     1.0  0.61124  0.78650  0.76624  1.0000
  H   H3896     1.0  0.61535  0.79655  0.78541  1.0000
  H   H3897     1.0  0.60920  0.73374  0.85534  1.0000
  C   C2452     1.0  0.60803  0.68569  0.96923  1.0000
  H   H3898     1.0  0.64534  0.82483  0.75422  1.0000
  C   C2453     1.0  0.59233  0.66802  0.97576  1.0000
  H   H3899     1.0  0.41804  0.96337  0.81478  1.0000
  C   C2454     1.0  0.64856  0.83795  0.94141  1.0000
  H   H3900     1.0  0.55494  0.78599  0.87421  1.0000
  C   C2455     1.0  0.60828  0.76590  0.96775  1.0000
  S   S989      1.0  0.33390  0.95191  0.73381  1.0000
  H   H3901     1.0  0.54789  0.75713  0.89549  1.0000
  H   H3902     1.0  0.60720  0.97332  0.90651  1.0000
  N   N243      1.0  0.61816  0.84458  0.90886  1.0000
  C   C2456     1.0  0.63360  0.83572  0.90537  1.0000
  C   C2457     1.0  0.61753  0.86009  0.90049  1.0000
  C   C2458     1.0  0.61370  0.84427  0.92488  1.0000
  C   C2459     1.0  0.60783  0.83825  0.90474  1.0000
  C   C2460     1.0  0.35662  0.91662  0.73281  1.0000
  H   H3903     1.0  0.63626  0.96726  0.87274  1.0000
  H   H3904     1.0  0.63459  0.82407  0.91187  1.0000
  H   H3905     1.0  0.60604  0.86710  0.90279  1.0000
  H   H3906     1.0  0.62514  0.86524  0.90337  1.0000
  H   H3907     1.0  0.62092  0.86082  0.88836  1.0000
  H   H3908     1.0  0.60205  0.85069  0.92799  1.0000
  H   H3909     1.0  0.62117  0.84925  0.92820  1.0000
  H   H3910     1.0  0.61435  0.83272  0.93161  1.0000
  H   H3911     1.0  0.61084  0.83846  0.89267  1.0000
  H   H3912     1.0  0.59606  0.84462  0.90729  1.0000
  H   H3913     1.0  0.60810  0.82650  0.91078  1.0000
  H   H3914     1.0  0.49833  0.73810  0.84106  1.0000
  H   H3915     1.0  0.58099  0.74214  0.88605  1.0000
  H   H3916     1.0  0.46071  0.96059  0.82286  1.0000
  H   H3917     1.0  0.60823  0.66179  0.89100  1.0000
  H   H3918     1.0  0.65243  0.65792  0.93167  1.0000
  C   C2461     1.0  0.42553  0.95916  0.82275  1.0000
  H   H3919     1.0  0.55600  0.66699  0.94340  1.0000
  H   H3920     1.0  0.64485  0.98199  0.87162  1.0000
  N   N244      1.0  0.56556  0.79674  0.77250  1.0000
  C   C2462     1.0  0.57007  0.79324  0.78677  1.0000
  C   C2463     1.0  0.57482  0.78569  0.76373  1.0000
  C   C2464     1.0  0.56775  0.81171  0.76423  1.0000
  C   C2465     1.0  0.54960  0.79630  0.77526  1.0000
  H   H3921     1.0  0.61831  0.67747  0.96557  1.0000
  H   H3922     1.0  0.34175  0.89593  0.73410  1.0000
  C   C2466     1.0  0.63397  0.97854  0.87495  1.0000
  H   H3923     1.0  0.57182  0.78810  0.75281  1.0000
  H   H3924     1.0  0.58694  0.78567  0.76146  1.0000
  H   H3925     1.0  0.45100  0.94574  0.83188  1.0000
  S   S990      1.0  0.42956  0.82273  0.72943  1.0000
  Fe  Fe489     1.0  0.41033  0.84009  0.73776  1.0000
  C   C2467     1.0  0.64944  0.71958  0.94450  1.0000
  H   H3926     1.0  0.54574  0.79899  0.76474  1.0000
  H   H3927     1.0  0.54228  0.80430  0.78208  1.0000
  H   H3928     1.0  0.54761  0.78509  0.78135  1.0000
  C   C2468     1.0  0.62288  0.75933  0.87106  1.0000
  H   H3929     1.0  0.50405  0.76308  0.83576  1.0000
  C   C2469     1.0  0.36047  0.97857  0.74516  1.0000
  Fe  Fe490     1.0  0.63546  0.77538  0.97661  1.0000
  H   H3930     1.0  0.57360  0.75354  0.89937  1.0000
  H   H3931     1.0  0.57861  0.69662  0.97666  1.0000
  C   C2470     1.0  0.57304  0.76332  0.86285  1.0000
  H   H3932     1.0  0.51844  0.76545  0.84288  1.0000
  H   H3933     1.0  0.57316  0.78320  0.87777  1.0000
  S   S991      1.0  0.50955  0.80020  0.78230  1.0000
  H   H3934     1.0  0.63794  0.65553  0.91556  1.0000
  C   C2471     1.0  0.64233  0.74290  0.95208  1.0000
  C   C2472     1.0  0.50367  0.73512  0.85069  1.0000
  H   H3935     1.0  0.58852  0.75798  0.88382  1.0000
  C   C2473     1.0  0.59741  0.75341  0.95602  1.0000
  H   H3936     1.0  0.55787  0.77883  0.89278  1.0000
  H   H3937     1.0  0.42658  0.94694  0.82649  1.0000
  H   H3938     1.0  0.44120  0.95950  0.79486  1.0000
  H   H3939     1.0  0.59275  0.75348  0.94699  1.0000
  H   H3940     1.0  0.60114  0.77562  0.94718  1.0000
  H   H3941     1.0  0.53141  0.72730  0.83546  1.0000
  H   H3942     1.0  0.56480  0.76986  0.85595  1.0000
  C   C2474     1.0  0.60211  0.76594  0.95615  1.0000
  C   C2475     1.0  0.57797  0.75383  0.88735  1.0000
  C   C2476     1.0  0.62223  0.74485  0.87904  1.0000
  N   N245      1.0  0.62182  0.86294  0.79450  1.0000
  C   C2477     1.0  0.63339  0.87170  0.78708  1.0000
  C   C2478     1.0  0.61399  0.86238  0.78348  1.0000
  C   C2479     1.0  0.61094  0.86988  0.80624  1.0000
  C   C2480     1.0  0.62906  0.84774  0.80114  1.0000
  H   H3943     1.0  0.63992  0.87197  0.79490  1.0000
  H   H3944     1.0  0.62840  0.88332  0.78205  1.0000
  H   H3945     1.0  0.64143  0.86682  0.77794  1.0000
  H   H3946     1.0  0.60511  0.85588  0.78863  1.0000
  H   H3947     1.0  0.60866  0.87368  0.77801  1.0000
  H   H3948     1.0  0.62191  0.85702  0.77455  1.0000
  H   H3949     1.0  0.60215  0.86339  0.81212  1.0000
  H   H3950     1.0  0.60521  0.88135  0.80163  1.0000
  H   H3951     1.0  0.61655  0.87052  0.81468  1.0000
  H   H3952     1.0  0.62077  0.84064  0.80647  1.0000
  H   H3953     1.0  0.63477  0.84777  0.80973  1.0000
  H   H3954     1.0  0.63760  0.84227  0.79263  1.0000
  N   N246      1.0  0.62696  0.97859  0.89069  1.0000
  H   H3955     1.0  0.51435  0.73317  0.80196  1.0000
  N   N247      1.0  0.56676  0.76318  0.87870  1.0000
  H   H3956     1.0  0.57693  0.65376  0.92601  1.0000
  H   H3957     1.0  0.56084  0.82034  0.77047  1.0000
  H   H3958     1.0  0.63726  0.83540  0.89345  1.0000
  C   C2481     1.0  0.40775  0.70995  0.96391  1.0000
  H   H3959     1.0  0.45858  0.77091  0.97278  1.0000
  C   C2482     1.0  0.59863  0.74090  0.96762  1.0000
  H   H3960     1.0  0.55566  0.74539  0.88253  1.0000
  Fe  Fe491     1.0  0.51019  0.78424  0.76893  1.0000
  N   N248      1.0  0.64527  0.73589  0.93948  1.0000
  H   H3961     1.0  0.64174  0.84043  0.90796  1.0000
  H   H3962     1.0  0.64451  0.80147  0.74840  1.0000
  S   S992      1.0  0.39793  0.89580  0.73222  1.0000
  H   H3963     1.0  0.58670  0.67386  0.96640  1.0000
  C   C2483     1.0  0.63727  0.96855  0.90002  1.0000
  H   H3964     1.0  0.63222  0.96789  0.91200  1.0000
  H   H3965     1.0  0.61488  0.96194  0.89308  1.0000
  H   H3966     1.0  0.64047  0.95708  0.89809  1.0000
  H   H3967     1.0  0.40070  0.92482  0.73240  1.0000
  H   H3968     1.0  0.64780  0.97249  0.89765  1.0000
  S   S993      1.0  0.65691  0.85959  0.87818  1.0000
  C   C2484     1.0  0.55105  0.65699  0.94710  1.0000
  H   H3969     1.0  0.54263  0.65893  0.94034  1.0000
  H   H3970     1.0  0.65685  0.83669  0.74120  1.0000
  C   C2485     1.0  0.65762  0.74117  0.92782  1.0000
  H   H3971     1.0  0.54494  0.65638  0.95883  1.0000
  H   H3972     1.0  0.41990  0.68722  0.96809  1.0000
  H   H3973     1.0  0.64124  0.81101  0.73039  1.0000
  H   H3974     1.0  0.64827  0.78707  0.83762  1.0000
  H   H3975     1.0  0.66121  0.79036  0.82012  1.0000
  H   H3976     1.0  0.60482  0.98074  0.88782  1.0000
  H   H3977     1.0  0.43107  0.98354  0.80238  1.0000
  C   C2486     1.0  0.44767  0.98450  0.74874  1.0000
  H   H3978     1.0  0.73132  0.15444  0.03494  1.0000
  H   H3979     1.0  0.67952  0.11695  0.12789  1.0000
  S   S994      1.0  0.69501  0.17029  0.97930  1.0000
  C   C2487     1.0  0.87002  0.28178  0.06606  1.0000
  Fe  Fe492     1.0  0.70234  0.19797  0.08145  1.0000
  S   S995      1.0  0.71250  0.19199  0.10122  1.0000
  Fe  Fe493     1.0  0.68146  0.19330  0.98001  1.0000
  Fe  Fe494     1.0  0.72948  0.17524  0.08957  1.0000
  S   S996      1.0  0.73815  0.15259  0.10242  1.0000
  S   S997      1.0  0.71796  0.17970  0.07095  1.0000
  Fe  Fe495     1.0  0.69607  0.09166  0.05886  1.0000
  S   S998      1.0  0.70538  0.08450  0.03711  1.0000
  C   C2488     1.0  0.87658  0.30538  0.05370  1.0000
  S   S999      1.0  0.68158  0.10352  0.09633  1.0000
  Fe  Fe496     1.0  0.70523  0.09712  0.08416  1.0000
  Fe  Fe497     1.0  0.67794  0.08419  0.09039  1.0000
  S   S1000     1.0  0.70153  0.11160  0.06225  1.0000
  Fe  Fe498     1.0  0.98976  0.31109  0.19170  1.0000
  H   H3980     1.0  0.67563  0.10342  0.03801  1.0000
  H   H3981     1.0  0.70939  0.12526  0.14090  1.0000
  H   H3982     1.0  0.68530  0.13636  0.08708  1.0000
  H   H3983     1.0  0.68413  0.14081  0.11139  1.0000
  N   N249      1.0  0.66658  0.30879  0.18959  1.0000
  C   C2489     1.0  0.71997  0.12558  0.08999  1.0000
  C   C2490     1.0  0.72313  0.13842  0.09164  1.0000
  H   H3984     1.0  0.71137  0.12651  0.08429  1.0000
  H   H3985     1.0  0.71680  0.14924  0.08738  1.0000
  H   H3986     1.0  0.66994  0.29346  0.20999  1.0000
  N   N250      1.0  0.71596  0.12259  0.99876  1.0000
  H   H3987     1.0  0.66819  0.23880  0.98677  1.0000
  H   H3988     1.0  0.82908  0.30284  0.11719  1.0000
  C   C2491     1.0  0.74222  0.12306  0.10486  1.0000
  H   H3989     1.0  0.70549  0.26439  0.08557  1.0000
  C   C2492     1.0  0.68975  0.05404  0.13723  1.0000
  S   S1001     1.0  0.91505  0.31445  0.10170  1.0000
  S   S1002     1.0  0.72867  0.22684  0.09593  1.0000
  H   H3990     1.0  0.88608  0.31486  0.15330  1.0000
  Fe  Fe499     1.0  0.71014  0.17634  0.98971  1.0000
  C   C2493     1.0  0.77116  0.23124  0.05798  1.0000
  C   C2494     1.0  0.68841  0.10862  0.15317  1.0000
  C   C2495     1.0  0.69056  0.02003  0.11589  1.0000
  H   H3991     1.0  0.83435  0.24029  0.00593  1.0000
  Fe  Fe500     1.0  0.68151  0.01329  0.17681  1.0000
  C   C2496     1.0  0.69281  0.08905  0.02542  1.0000
  C   C2497     1.0  0.68751  0.05143  0.99405  1.0000
  C   C2498     1.0  0.69028  0.10857  0.12774  1.0000
  C   C2499     1.0  0.67396  0.14336  0.10744  1.0000
  H   H3992     1.0  0.69074  0.01414  0.14492  1.0000
  S   S1003     1.0  0.71965  0.16118  0.00875  1.0000
  H   H3993     1.0  0.83526  0.26305  0.01240  1.0000
  C   C2500     1.0  0.67824  0.17791  0.06436  1.0000
  H   H3994     1.0  0.68765  0.09742  0.13038  1.0000
  S   S1004     1.0  0.92673  0.30353  0.06237  1.0000
  H   H3995     1.0  0.73440  0.20607  0.00822  1.0000
  S   S1005     1.0  0.74530  0.19056  0.07771  1.0000
  H   H3996     1.0  0.68636  0.03004  0.12075  1.0000
  C   C2501     1.0  0.85524  0.30400  0.07425  1.0000
  S   S1006     1.0  0.67254  0.01005  0.20129  1.0000
  N   N251      1.0  0.68541  0.17439  0.04968  1.0000
  H   H3997     1.0  0.74039  0.16998  0.04569  1.0000
  N   N252      1.0  0.68792  0.00646  0.12718  1.0000
  S   S1007     1.0  0.79916  0.24040  0.01138  1.0000
  H   H3998     1.0  0.69417  0.10940  0.16141  1.0000
  S   S1008     1.0  0.74342  0.20040  0.03568  1.0000
  H   H3999     1.0  0.84961  0.31218  0.04694  1.0000
  H   H4000     1.0  0.67160  0.16968  0.07151  1.0000
  H   H4001     1.0  0.70190  0.13761  0.01245  1.0000
  C   C2502     1.0  0.69708  0.08339  0.01260  1.0000
  H   H4002     1.0  0.70285  0.18626  0.04517  1.0000
  H   H4003     1.0  0.85079  0.24193  0.99145  1.0000
  H   H4004     1.0  0.68475  0.02200  0.10676  1.0000
  S   S1009     1.0  0.68954  0.03415  0.16382  1.0000
  Fe  Fe501     1.0  0.72705  0.20785  0.08756  1.0000
  C   C2503     1.0  0.76690  0.21100  0.99455  1.0000
  C   C2504     1.0  0.67157  0.22036  0.09176  1.0000
  H   H4005     1.0  0.66930  0.99768  0.14184  1.0000
  Fe  Fe502     1.0  0.68579  0.98666  0.20264  1.0000
  H   H4006     1.0  0.95304  0.28417  0.07596  1.0000
  H   H4007     1.0  0.93270  0.30987  0.21613  1.0000
  H   H4008     1.0  0.73073  0.10424  0.98980  1.0000
  H   H4009     1.0  0.85150  0.24146  0.03567  1.0000
  H   H4010     1.0  0.69358  0.05570  0.99972  1.0000
  H   H4011     1.0  0.94713  0.30182  0.08089  1.0000
  H   H4012     1.0  0.94504  0.31723  0.18645  1.0000
  H   H4013     1.0  0.72576  0.19049  0.99734  1.0000
  H   H4014     1.0  0.69083  0.08305  0.99292  1.0000
  C   C2505     1.0  0.80439  0.30783  0.97966  1.0000
  H   H4015     1.0  0.83502  0.23951  0.03160  1.0000
  C   C2506     1.0  0.67338  0.09678  0.00596  1.0000
  C   C2507     1.0  0.69361  0.18594  0.04038  1.0000
  N   N253      1.0  0.75981  0.23663  0.04883  1.0000
  S   S1010     1.0  0.97889  0.31049  0.14383  1.0000
  H   H4016     1.0  0.69394  0.99436  0.14778  1.0000
  C   C2508     1.0  0.73395  0.19475  0.01399  1.0000
  H   H4017     1.0  0.85357  0.31371  0.18555  1.0000
  H   H4018     1.0  0.77057  0.22162  0.98906  1.0000
  C   C2509     1.0  0.72772  0.17149  0.01552  1.0000
  H   H4019     1.0  0.76200  0.30826  0.14357  1.0000
  H   H4020     1.0  0.66566  0.00892  0.12438  1.0000
  C   C2510     1.0  0.72892  0.18595  0.00788  1.0000
  H   H4021     1.0  0.69373  0.21975  0.09364  1.0000
  S   S1011     1.0  0.71581  0.21490  0.06843  1.0000
  S   S1012     1.0  0.67735  0.20455  0.08413  1.0000
  S   S1013     1.0  0.70203  0.07659  0.07983  1.0000
  N   N254      1.0  0.69835  0.10973  0.13826  1.0000
  C   C2511     1.0  0.73426  0.13713  0.09915  1.0000
  H   H4022     1.0  0.66658  0.01752  0.13826  1.0000
  C   C2512     1.0  0.72494  0.13340  0.98916  1.0000
  H   H4023     1.0  0.70271  0.01937  0.11093  1.0000
  H   H4024     1.0  0.70791  0.07601  0.01019  1.0000
  H   H4025     1.0  0.78982  0.30616  0.13654  1.0000
  H   H4026     1.0  0.69713  0.11033  0.11621  1.0000
  C   C2513     1.0  0.95314  0.31691  0.21307  1.0000
  Fe  Fe503     1.0  0.79243  0.25676  0.08856  1.0000
  C   C2514     1.0  0.72796  0.11153  0.09584  1.0000
  S   S1014     1.0  0.91968  0.26757  0.98636  1.0000
  H   H4027     1.0  0.70052  0.05500  0.13808  1.0000
  H   H4028     1.0  0.87749  0.27959  0.07386  1.0000
  H   H4029     1.0  0.71183  0.29228  0.09139  1.0000
  S   S1015     1.0  0.67152  0.09745  0.06908  1.0000
  H   H4030     1.0  0.87666  0.27676  0.05648  1.0000
  N   N255      1.0  0.67354  0.04760  0.00394  1.0000
  H   H4031     1.0  0.86063  0.29559  0.04092  1.0000
  C   C2515     1.0  0.70375  0.12299  0.99189  1.0000
  C   C2516     1.0  0.68407  0.06198  0.12462  1.0000
  H   H4032     1.0  0.69046  0.06903  0.11582  1.0000
  Fe  Fe504     1.0  0.73258  0.19617  0.05986  1.0000
  C   C2517     1.0  0.68176  0.04456  0.14852  1.0000
  H   H4033     1.0  0.71928  0.09786  0.12737  1.0000
  C   C2518     1.0  0.77454  0.18452  0.00327  1.0000
  C   C2519     1.0  0.86402  0.31646  0.17779  1.0000
  S   S1016     1.0  0.72364  0.09513  0.09531  1.0000
  C   C2520     1.0  0.68744  0.08736  0.00281  1.0000
  C   C2521     1.0  0.73916  0.11033  0.10312  1.0000
  C   C2522     1.0  0.70112  0.99830  0.22578  1.0000
  H   H4034     1.0  0.76773  0.18267  0.99653  1.0000
  H   H4035     1.0  0.81228  0.22586  0.15140  1.0000
  H   H4036     1.0  0.74542  0.09950  0.10758  1.0000
  C   C2523     1.0  0.73702  0.17452  0.03522  1.0000
  C   C2524     1.0  0.73205  0.16568  0.02906  1.0000
  C   C2525     1.0  0.68217  0.22544  0.09539  1.0000
  H   H4037     1.0  0.66825  0.29800  0.13877  1.0000
  H   H4038     1.0  0.79781  0.19190  0.00808  1.0000
  C   C2526     1.0  0.68216  0.31088  0.18503  1.0000
  H   H4039     1.0  0.68512  0.06009  0.98412  1.0000
  H   H4040     1.0  0.69526  0.04167  0.98993  1.0000
  H   H4041     1.0  0.67883  0.17123  0.03139  1.0000
  H   H4042     1.0  0.68608  0.19717  0.03925  1.0000
  H   H4043     1.0  0.70990  0.12565  0.12213  1.0000
  S   S1017     1.0  0.69524  0.19831  0.99253  1.0000
  C   C2527     1.0  0.73775  0.18914  0.02779  1.0000
  H   H4044     1.0  0.69867  0.18392  0.02905  1.0000
  H   H4045     1.0  0.76232  0.21509  0.04481  1.0000
  C   C2528     1.0  0.67165  0.00771  0.13317  1.0000
  H   H4046     1.0  0.87373  0.22717  0.01047  1.0000
  H   H4047     1.0  0.77451  0.31475  0.15940  1.0000
  C   C2529     1.0  0.76325  0.24222  0.09740  1.0000
  H   H4048     1.0  0.73418  0.13350  0.99407  1.0000
  N   N256      1.0  0.69923  0.27551  0.10358  1.0000
  H   H4049     1.0  0.75208  0.25633  0.03331  1.0000
  H   H4050     1.0  0.69080  0.25682  0.11820  1.0000
  C   C2530     1.0  0.66912  0.10241  0.01877  1.0000
  C   C2531     1.0  0.69597  0.15979  0.05148  1.0000
  C   C2532     1.0  0.67793  0.23799  0.10139  1.0000
  H   H4051     1.0  0.67364  0.03168  0.99203  1.0000
  H   H4052     1.0  0.77177  0.25217  0.03269  1.0000
  H   H4053     1.0  0.70764  0.00408  0.13514  1.0000
  H   H4054     1.0  0.71856  0.09831  0.14602  1.0000
  H   H4055     1.0  0.73966  0.25037  0.09839  1.0000
  H   H4056     1.0  0.97403  0.26531  0.08569  1.0000
  H   H4057     1.0  0.67585  0.28216  0.11349  1.0000
  C   C2533     1.0  0.68640  0.28634  0.10999  1.0000
  H   H4058     1.0  0.70285  0.11826  0.02101  1.0000
  S   S1018     1.0  0.74633  0.29687  0.09038  1.0000
  H   H4059     1.0  0.77394  0.22653  0.03102  1.0000
  C   C2534     1.0  0.70115  0.26133  0.11462  1.0000
  H   H4060     1.0  0.69024  0.30054  0.18874  1.0000
  H   H4061     1.0  0.68633  0.24171  0.10411  1.0000
  H   H4062     1.0  0.70364  0.26271  0.12469  1.0000
  C   C2535     1.0  0.67030  0.06054  0.12332  1.0000
  C   C2536     1.0  0.71185  0.09757  0.13858  1.0000
  C   C2537     1.0  0.71299  0.28138  0.09942  1.0000
  Fe  Fe505     1.0  0.67742  0.11622  0.07404  1.0000
  C   C2538     1.0  0.69632  0.27298  0.09032  1.0000
  H   H4063     1.0  0.68837  0.28870  0.11985  1.0000
  C   C2539     1.0  0.76272  0.22670  0.03863  1.0000
  H   H4064     1.0  0.75418  0.23025  0.03174  1.0000
  H   H4065     1.0  0.74211  0.24412  0.06634  1.0000
  C   C2540     1.0  0.74661  0.22751  0.09674  1.0000
  H   H4066     1.0  0.78237  0.20704  0.09517  1.0000
  H   H4067     1.0  0.68485  0.02604  0.01399  1.0000
  N   N257      1.0  0.77985  0.19848  0.99658  1.0000
  C   C2541     1.0  0.77303  0.21649  0.09589  1.0000
  H   H4068     1.0  0.92746  0.30829  0.03124  1.0000
  H   H4069     1.0  0.70158  0.15680  0.04060  1.0000
  C   C2542     1.0  0.77535  0.23008  0.09640  1.0000
  H   H4070     1.0  0.82119  0.22248  0.11224  1.0000
  H   H4071     1.0  0.75687  0.20478  0.09543  1.0000
  Fe  Fe506     1.0  0.90005  0.26464  0.97976  1.0000
  C   C2543     1.0  0.67379  0.17390  0.04249  1.0000
  H   H4072     1.0  0.76942  0.23855  0.06572  1.0000
  H   H4073     1.0  0.81509  0.24177  0.10499  1.0000
  C   C2544     1.0  0.75865  0.21523  0.09594  1.0000
  C   C2545     1.0  0.78785  0.20103  0.00644  1.0000
  H   H4074     1.0  0.79643  0.22248  0.12887  1.0000
  H   H4075     1.0  0.67816  0.11775  0.15325  1.0000
  H   H4076     1.0  0.75081  0.12200  0.11066  1.0000
  H   H4077     1.0  0.85043  0.22511  0.00534  1.0000
  H   H4078     1.0  0.73585  0.24040  0.05207  1.0000
  H   H4079     1.0  0.86087  0.27576  0.07185  1.0000
  H   H4080     1.0  0.67275  0.28639  0.18650  1.0000
  H   H4081     1.0  0.83027  0.22588  0.13894  1.0000
  H   H4082     1.0  0.74392  0.22539  0.06534  1.0000
  C   C2546     1.0  0.86940  0.23938  0.00891  1.0000
  H   H4083     1.0  0.69939  0.00364  0.21476  1.0000
  C   C2547     1.0  0.79617  0.23359  0.13048  1.0000
  H   H4084     1.0  0.77074  0.21985  0.06476  1.0000
  H   H4085     1.0  0.69662  0.11513  0.99895  1.0000
  C   C2548     1.0  0.74475  0.23668  0.05853  1.0000
  H   H4086     1.0  0.85187  0.26460  0.01657  1.0000
  H   H4087     1.0  0.75912  0.21241  0.00532  1.0000
  H   H4088     1.0  0.78042  0.20172  0.01754  1.0000
  H   H4089     1.0  0.83193  0.23537  0.11195  1.0000
  H   H4090     1.0  0.87432  0.24344  0.01582  1.0000
  C   C2549     1.0  0.82037  0.23373  0.11384  1.0000
  C   C2550     1.0  0.80748  0.27409  0.03148  1.0000
  C   C2551     1.0  0.92036  0.29446  0.05253  1.0000
  H   H4091     1.0  0.80358  0.25289  0.14104  1.0000
  Fe  Fe507     1.0  0.89024  0.28643  0.10787  1.0000
  N   N258      1.0  0.85284  0.24336  0.01263  1.0000
  C   C2552     1.0  0.91342  0.28261  0.06006  1.0000
  Fe  Fe508     1.0  0.80047  0.28264  0.09416  1.0000
  H   H4092     1.0  0.85166  0.26489  0.99793  1.0000
  H   H4093     1.0  0.69626  0.13423  0.99020  1.0000
  H   H4094     1.0  0.98577  0.27858  0.07886  1.0000
  H   H4095     1.0  0.67052  0.18905  0.06345  1.0000
  S   S1019     1.0  0.97871  0.29568  0.18696  1.0000
  H   H4096     1.0  0.88319  0.30129  0.04357  1.0000
  C   C2553     1.0  0.94119  0.29205  0.13918  1.0000
  C   C2554     1.0  0.94498  0.30493  0.12947  1.0000
  H   H4097     1.0  0.85132  0.22466  0.03103  1.0000
  C   C2555     1.0  0.67888  0.09869  0.02839  1.0000
  C   C2556     1.0  0.96060  0.29029  0.15207  1.0000
  C   C2557     1.0  0.94901  0.28480  0.15051  1.0000
  H   H4098     1.0  0.66591  0.05395  0.18767  1.0000
  H   H4099     1.0  0.96657  0.28456  0.16081  1.0000
  H   H4100     1.0  0.94615  0.27482  0.15808  1.0000
  H   H4101     1.0  0.76485  0.25270  0.09796  1.0000
  H   H4102     1.0  0.69010  0.15082  0.05842  1.0000
  C   C2558     1.0  0.90948  0.28043  0.03693  1.0000
  Fe  Fe509     1.0  0.80095  0.24876  0.98692  1.0000
  H   H4103     1.0  0.80536  0.23790  0.03946  1.0000
  Fe  Fe510     1.0  0.91384  0.30154  0.08603  1.0000
  C   C2559     1.0  0.70281  0.12418  0.13353  1.0000
  S   S1020     1.0  0.91535  0.28002  0.10278  1.0000
  N   N259      1.0  0.81143  0.23570  0.12864  1.0000
  C   C2560     1.0  0.80207  0.25351  0.01912  1.0000
  C   C2561     1.0  0.92207  0.29913  0.03712  1.0000
  C   C2562     1.0  0.91648  0.29225  0.02934  1.0000
  H   H4104     1.0  0.87390  0.24435  0.99720  1.0000
  H   H4105     1.0  0.91750  0.29614  0.01752  1.0000
  C   C2563     1.0  0.69410  0.99336  0.12046  1.0000
  Fe  Fe511     1.0  0.90214  0.27869  0.00343  1.0000
  S   S1021     1.0  0.81107  0.28684  0.03912  1.0000
  H   H4106     1.0  0.84554  0.29873  0.08005  1.0000
  S   S1022     1.0  0.80916  0.29080  0.10911  1.0000
  C   C2564     1.0  0.82842  0.28480  0.10855  1.0000
  C   C2565     1.0  0.83550  0.29290  0.11341  1.0000
  H   H4107     1.0  0.81947  0.21312  0.13926  1.0000
  H   H4108     1.0  0.87336  0.30662  0.17951  1.0000
  H   H4109     1.0  0.95759  0.27565  0.11472  1.0000
  H   H4110     1.0  0.80549  0.25946  0.12145  1.0000
  S   S1023     1.0  0.87826  0.26915  0.10828  1.0000
  H   H4111     1.0  0.83130  0.26562  0.09989  1.0000
  S   S1024     1.0  0.78094  0.27178  0.10430  1.0000
  H   H4112     1.0  0.90312  0.26616  0.05816  1.0000
  C   C2566     1.0  0.80170  0.26815  0.01118  1.0000
  S   S1025     1.0  0.90008  0.30151  0.98863  1.0000
  H   H4113     1.0  0.84468  0.29465  0.05616  1.0000
  H   H4114     1.0  0.96502  0.29721  0.06883  1.0000
  S   S1026     1.0  0.69669  0.99055  0.17850  1.0000
  H   H4115     1.0  0.72285  0.27372  0.09419  1.0000
  H   H4116     1.0  0.69286  0.13362  0.13360  1.0000
  Fe  Fe512     1.0  0.99047  0.30242  0.16329  1.0000
  S   S1027     1.0  0.81305  0.26620  0.07999  1.0000
  S   S1028     1.0  0.79339  0.23229  0.09503  1.0000
  C   C2567     1.0  0.81868  0.22465  0.14007  1.0000
  H   H4117     1.0  0.98262  0.26933  0.09808  1.0000
  S   S1029     1.0  0.78082  0.27086  0.07056  1.0000
  H   H4118     1.0  0.78267  0.23084  0.05102  1.0000
  C   C2568     1.0  0.81055  0.25083  0.13015  1.0000
  C   C2569     1.0  0.85910  0.27530  0.10848  1.0000
  H   H4119     1.0  0.68440  0.29710  0.10188  1.0000
  C   C2570     1.0  0.67467  0.14096  0.09361  1.0000
  H   H4120     1.0  0.70490  0.15972  0.05689  1.0000
  C   C2571     1.0  0.80744  0.25956  0.03959  1.0000
  H   H4121     1.0  0.75869  0.25957  0.04763  1.0000
  H   H4122     1.0  0.68273  0.04048  0.02337  1.0000
  H   H4123     1.0  0.79028  0.24191  0.12218  1.0000
  Fe  Fe513     1.0  0.91408  0.29340  0.11905  1.0000
  S   S1030     1.0  0.88889  0.29786  0.12571  1.0000
  S   S1031     1.0  0.92703  0.28445  0.13740  1.0000
  H   H4124     1.0  0.85633  0.29458  0.11692  1.0000
  H   H4125     1.0  0.94277  0.28888  0.10714  1.0000
  H   H4126     1.0  0.85836  0.25703  0.10014  1.0000
  H   H4127     1.0  0.76740  0.18468  0.01454  1.0000
  C   C2572     1.0  0.80486  0.24924  0.03335  1.0000
  C   C2573     1.0  0.85088  0.28827  0.11321  1.0000
  C   C2574     1.0  0.96455  0.30303  0.14221  1.0000
  S   S1032     1.0  0.88282  0.27382  0.99787  1.0000
  H   H4128     1.0  0.71834  0.12647  0.01881  1.0000
  H   H4129     1.0  0.69519  0.28334  0.08158  1.0000
  H   H4130     1.0  0.68669  0.17797  0.07029  1.0000
  H   H4131     1.0  0.99592  0.27569  0.22286  1.0000
  Fe  Fe514     1.0  0.80049  0.28164  0.06320  1.0000
  H   H4132     1.0  0.78404  0.17474  0.00437  1.0000
  H   H4133     1.0  0.82184  0.25274  0.12910  1.0000
  H   H4134     1.0  0.71798  0.14486  0.98761  1.0000
  H   H4135     1.0  0.97353  0.29383  0.10539  1.0000
  C   C2575     1.0  0.72574  0.10757  0.00059  1.0000
  H   H4136     1.0  0.79887  0.27170  0.00049  1.0000
  H   H4137     1.0  0.80427  0.28974  0.01124  1.0000
  C   C2576     1.0  0.66784  0.04340  0.14736  1.0000
  H   H4138     1.0  0.71578  0.28310  0.10919  1.0000
  C   C2577     1.0  0.84745  0.23695  0.02843  1.0000
  C   C2578     1.0  0.80461  0.27839  0.01729  1.0000
  C   C2579     1.0  0.85198  0.26708  0.10378  1.0000
  C   C2580     1.0  0.84770  0.25968  0.00975  1.0000
  C   C2581     1.0  0.76059  0.25186  0.04024  1.0000
  H   H4139     1.0  0.86221  0.30211  0.08242  1.0000
  C   C2582     1.0  0.70946  0.12639  0.01340  1.0000
  H   H4140     1.0  0.91216  0.27881  0.07191  1.0000
  C   C2583     1.0  0.96864  0.29809  0.09536  1.0000
  H   H4141     1.0  0.80969  0.25619  0.05057  1.0000
  S   S1033     1.0  0.90102  0.27224  0.02809  1.0000
  S   S1034     1.0  0.78979  0.29907  0.07645  1.0000
  H   H4142     1.0  0.94934  0.27111  0.10240  1.0000
  C   C2584     1.0  0.66339  0.06103  0.00857  1.0000
  H   H4143     1.0  0.93888  0.31074  0.12086  1.0000
  H   H4144     1.0  0.78915  0.23468  0.14162  1.0000
  Fe  Fe515     1.0  0.77106  0.28689  0.08549  1.0000
  H   H4145     1.0  0.68573  0.26902  0.09302  1.0000
  C   C2585     1.0  0.74892  0.24090  0.09767  1.0000
  C   C2586     1.0  0.90825  0.27548  0.05225  1.0000
  N   N260      1.0  0.96399  0.28632  0.09178  1.0000
  C   C2587     1.0  0.95298  0.28019  0.10455  1.0000
  C   C2588     1.0  0.95706  0.29263  0.07881  1.0000
  H   H4146     1.0  0.96024  0.30640  0.21121  1.0000
  C   C2589     1.0  0.97720  0.27435  0.08845  1.0000
  H   H4147     1.0  0.71048  0.25272  0.11006  1.0000
  C   C2590     1.0  0.83670  0.27195  0.10359  1.0000
  C   C2591     1.0  0.84684  0.23741  0.00346  1.0000
  C   C2592     1.0  0.67715  0.03629  0.01713  1.0000
  C   C2593     1.0  0.85430  0.30018  0.05086  1.0000
  H   H4148     1.0  0.70890  0.08650  0.14240  1.0000
  H   H4149     1.0  0.86831  0.29837  0.15942  1.0000
  N   N261      1.0  0.86403  0.29785  0.06122  1.0000
  S   S1035     1.0  0.88883  0.30720  0.09012  1.0000
  H   H4150     1.0  0.68470  0.09792  0.15704  1.0000
  C   C2594     1.0  0.95668  0.31032  0.13092  1.0000
  Fe  Fe516     1.0  0.88234  0.29558  0.98173  1.0000
  C   C2595     1.0  0.69539  0.00469  0.13928  1.0000
  H   H4151     1.0  0.85781  0.31146  0.14668  1.0000
  H   H4152     1.0  0.95895  0.30742  0.09764  1.0000
  H   H4153     1.0  0.79181  0.21161  0.00182  1.0000
  H   H4154     1.0  0.71942  0.09913  0.00790  1.0000
  H   H4155     1.0  0.66875  0.30033  0.17054  1.0000
  H   H4156     1.0  0.84853  0.30546  0.16550  1.0000
  C   C2596     1.0  0.85911  0.30846  0.15834  1.0000
  H   H4157     1.0  0.88447  0.30342  0.06101  1.0000
  H   H4158     1.0  0.66555  0.19733  0.12041  1.0000
  H   H4159     1.0  0.73505  0.10691  0.00576  1.0000
  H   H4160     1.0  0.66560  0.18473  0.04096  1.0000
  H   H4161     1.0  0.97718  0.30279  0.08609  1.0000
  H   H4162     1.0  0.68568  0.31422  0.17278  1.0000
  H   H4163     1.0  0.66686  0.03311  0.02483  1.0000
  H   H4164     1.0  0.72013  0.31126  0.10883  1.0000
  C   C2597     1.0  0.66616  0.04164  0.99598  1.0000
  H   H4165     1.0  0.81289  0.29878  0.98470  1.0000
  C   C2598     1.0  0.74264  0.31300  0.09713  1.0000
  C   C2599     1.0  0.66295  0.24548  0.10409  1.0000
  H   H4166     1.0  0.76032  0.20926  0.98752  1.0000
  H   H4167     1.0  0.66738  0.16528  0.04921  1.0000
  H   H4168     1.0  0.79699  0.31359  0.98848  1.0000
  H   H4169     1.0  0.85078  0.31617  0.07111  1.0000
  H   H4170     1.0  0.66856  0.06582  0.01465  1.0000
  H   H4171     1.0  0.95354  0.31346  0.16855  1.0000
  H   H4172     1.0  0.70640  0.99191  0.11601  1.0000
  H   H4173     1.0  0.79966  0.18764  0.98302  1.0000
  H   H4174     1.0  0.68879  0.99432  0.11122  1.0000
  C   C2600     1.0  0.79011  0.19738  0.98208  1.0000
  C   C2601     1.0  0.78775  0.31797  0.13054  1.0000
  H   H4175     1.0  0.70818  0.11997  0.98090  1.0000
  C   C2602     1.0  0.66386  0.23448  0.97961  1.0000
  C   C2603     1.0  0.66537  0.29728  0.18281  1.0000
  S   S1036     1.0  0.66328  0.06981  0.10737  1.0000
  H   H4176     1.0  0.66340  0.31255  0.21128  1.0000
  H   H4177     1.0  0.87255  0.31759  0.05028  1.0000
  H   H4178     1.0  0.66328  0.04992  0.98597  1.0000
  C   C2604     1.0  0.72875  0.31747  0.10628  1.0000
  S   S1037     1.0  0.66285  0.00658  0.17223  1.0000
  C   C2605     1.0  0.99334  0.23776  0.34497  1.0000
  H   H4179     1.0  0.69400  0.09133  0.46427  1.0000
  H   H4180     1.0  0.67263  0.01363  0.28710  1.0000
  H   H4181     1.0  0.86361  0.01950  0.39862  1.0000
  H   H4182     1.0  0.84601  0.04099  0.45409  1.0000
  N   N262      1.0  0.88031  0.27977  0.44067  1.0000
  H   H4183     1.0  0.84629  0.99763  0.42132  1.0000
  H   H4184     1.0  0.87004  0.26209  0.45526  1.0000
  H   H4185     1.0  0.95400  0.13613  0.44293  1.0000
  H   H4186     1.0  0.86862  0.28584  0.46144  1.0000
  C   C2606     1.0  0.72551  0.99582  0.41587  1.0000
  Fe  Fe517     1.0  0.99234  0.03727  0.41924  1.0000
  S   S1038     1.0  0.72872  0.00423  0.29248  1.0000
  S   S1039     1.0  0.84562  0.14895  0.46152  1.0000
  H   H4187     1.0  0.97315  0.13813  0.43710  1.0000
  S   S1040     1.0  0.71180  0.00931  0.25848  1.0000
  S   S1041     1.0  0.72503  0.03140  0.47371  1.0000
  H   H4188     1.0  0.77015  0.03229  0.46887  1.0000
  H   H4189     1.0  0.89334  0.09154  0.46752  1.0000
  H   H4190     1.0  0.88861  0.28161  0.45844  1.0000
  H   H4191     1.0  0.78633  0.31508  0.24766  1.0000
  H   H4192     1.0  0.74638  0.05407  0.45666  1.0000
  C   C2607     1.0  0.88795  0.22502  0.47380  1.0000
  C   C2608     1.0  0.68107  0.00541  0.33728  1.0000
  C   C2609     1.0  0.73583  0.09048  0.44060  1.0000
  N   N263      1.0  0.78391  0.01029  0.47322  1.0000
  H   H4193     1.0  0.67534  0.08883  0.47365  1.0000
  S   S1042     1.0  0.69277  0.04315  0.46267  1.0000
  S   S1043     1.0  0.72347  0.02953  0.44066  1.0000
  Fe  Fe518     1.0  0.71631  0.04667  0.45433  1.0000
  S   S1044     1.0  0.71886  0.07032  0.44604  1.0000
  Fe  Fe519     1.0  0.70054  0.02453  0.45053  1.0000
  S   S1045     1.0  0.69209  0.01936  0.43301  1.0000
  C   C2610     1.0  0.70438  0.00628  0.23422  1.0000
  S   S1046     1.0  0.70768  0.00756  0.47009  1.0000
  Fe  Fe520     1.0  0.89814  0.99330  0.39266  1.0000
  C   C2611     1.0  0.67384  0.01826  0.43302  1.0000
  C   C2612     1.0  0.67182  0.01403  0.42103  1.0000
  H   H4194     1.0  0.87124  0.08404  0.46584  1.0000
  H   H4195     1.0  0.68138  0.01118  0.41235  1.0000
  C   C2613     1.0  0.88037  0.26382  0.44666  1.0000
  H   H4196     1.0  0.76307  0.01809  0.46609  1.0000
  H   H4197     1.0  0.98636  0.10672  0.45429  1.0000
  H   H4198     1.0  0.70975  0.99159  0.36281  1.0000
  C   C2614     1.0  0.87348  0.98763  0.37601  1.0000
  C   C2615     1.0  0.77609  0.98765  0.44058  1.0000
  C   C2616     1.0  0.66779  0.01453  0.34316  1.0000
  H   H4199     1.0  0.72676  0.09826  0.43600  1.0000
  C   C2617     1.0  0.73506  0.07560  0.44633  1.0000
  H   H4200     1.0  0.89573  0.27625  0.42022  1.0000
  C   C2618     1.0  0.74689  0.06559  0.45225  1.0000
  C   C2619     1.0  0.96389  0.29172  0.33711  1.0000
  S   S1047     1.0  0.89351  0.00685  0.44060  1.0000
  Fe  Fe521     1.0  0.72994  0.01384  0.46098  1.0000
  H   H4201     1.0  0.83544  0.99623  0.40935  1.0000
  Fe  Fe522     1.0  0.71014  0.99786  0.31130  1.0000
  S   S1048     1.0  0.69588  0.01329  0.32571  1.0000
  H   H4202     1.0  0.70498  0.01779  0.22972  1.0000
  H   H4203     1.0  0.97732  0.24062  0.33194  1.0000
  H   H4204     1.0  0.96285  0.09542  0.44707  1.0000
  C   C2620     1.0  0.73782  0.99670  0.35310  1.0000
  C   C2621     1.0  0.96563  0.13062  0.44427  1.0000
  S   S1049     1.0  0.95899  0.30403  0.29050  1.0000
  H   H4205     1.0  0.94563  0.17313  0.46894  1.0000
  H   H4206     1.0  0.74880  0.10694  0.43601  1.0000
  H   H4207     1.0  0.88999  0.25805  0.45201  1.0000
  C   C2622     1.0  0.76920  0.99889  0.32392  1.0000
  C   C2623     1.0  0.74833  0.09541  0.44060  1.0000
  H   H4208     1.0  0.66281  0.02507  0.45353  1.0000
  H   H4209     1.0  0.76163  0.99163  0.41742  1.0000
  N   N264      1.0  0.92924  0.30970  0.26497  1.0000
  C   C2624     1.0  0.78694  0.99019  0.42749  1.0000
  H   H4210     1.0  0.92780  0.19457  0.42308  1.0000
  H   H4211     1.0  0.92797  0.31397  0.28603  1.0000
  S   S1050     1.0  0.69849  0.99067  0.29831  1.0000
  Fe  Fe523     1.0  0.89275  0.16825  0.45607  1.0000
  S   S1051     1.0  0.91023  0.14749  0.46067  1.0000
  Fe  Fe524     1.0  0.86937  0.15112  0.45825  1.0000
  S   S1052     1.0  0.88558  0.12936  0.46172  1.0000
  H   H4212     1.0  0.77650  0.99156  0.47211  1.0000
  N   N265      1.0  0.73957  0.98797  0.42082  1.0000
  Fe  Fe525     1.0  0.90240  0.14064  0.44442  1.0000
  S   S1053     1.0  0.92065  0.13199  0.42659  1.0000
  C   C2625     1.0  0.68744  0.08337  0.47230  1.0000
  S   S1054     1.0  0.88557  0.16167  0.43902  1.0000
  H   H4213     1.0  0.94671  0.19270  0.41256  1.0000
  H   H4214     1.0  0.82437  0.12994  0.47425  1.0000
  N   N266      1.0  0.80399  0.12367  0.43348  1.0000
  H   H4215     1.0  0.82786  0.02036  0.42690  1.0000
  Fe  Fe526     1.0  0.81559  0.04817  0.46255  1.0000
  S   S1055     1.0  0.81662  0.06871  0.44464  1.0000
  S   S1056     1.0  0.82287  0.02588  0.45651  1.0000
  Fe  Fe527     1.0  0.82537  0.07647  0.45985  1.0000
  S   S1057     1.0  0.84549  0.08694  0.45083  1.0000
  Fe  Fe528     1.0  0.79377  0.07762  0.45736  1.0000
  S   S1058     1.0  0.77568  0.09255  0.44591  1.0000
  S   S1059     1.0  0.78413  0.99802  0.34456  1.0000
  H   H4216     1.0  0.75667  0.99980  0.30808  1.0000
  S   S1060     1.0  0.90557  0.00999  0.39955  1.0000
  C   C2626     1.0  0.68631  0.03439  0.28778  1.0000
  Fe  Fe529     1.0  0.92856  0.99556  0.39559  1.0000
  S   S1061     1.0  0.94805  0.00643  0.38360  1.0000
  H   H4217     1.0  0.95912  0.98850  0.40981  1.0000
  S   S1062     1.0  0.98582  0.03909  0.44306  1.0000
  S   S1063     1.0  0.81544  0.99114  0.36701  1.0000
  S   S1064     1.0  0.98315  0.16532  0.40692  1.0000
  Fe  Fe530     1.0  0.96864  0.05861  0.43515  1.0000
  S   S1065     1.0  0.94503  0.06345  0.44806  1.0000
  S   S1066     1.0  0.97420  0.05622  0.41177  1.0000
  C   C2627     1.0  0.95973  0.00903  0.39356  1.0000
  C   C2628     1.0  0.96589  0.02167  0.38852  1.0000
  C   C2629     1.0  0.97589  0.02367  0.39572  1.0000
  C   C2630     1.0  0.98022  0.01278  0.40772  1.0000
  C   C2631     1.0  0.97413  0.00008  0.41272  1.0000
  C   C2632     1.0  0.96372  0.99831  0.40583  1.0000
  H   H4218     1.0  0.96300  0.02992  0.37893  1.0000
  C   C2633     1.0  0.84250  0.02068  0.45172  1.0000
  C   C2634     1.0  0.84946  0.00693  0.44798  1.0000
  H   H4219     1.0  0.85478  0.02094  0.41733  1.0000
  C   C2635     1.0  0.87390  0.01214  0.44452  1.0000
  C   C2636     1.0  0.86691  0.02586  0.44824  1.0000
  C   C2637     1.0  0.85125  0.03023  0.45157  1.0000
  H   H4220     1.0  0.73179  0.99500  0.44147  1.0000
  C   C2638     1.0  0.68244  0.99002  0.34064  1.0000
  H   H4221     1.0  0.92854  0.30135  0.24679  1.0000
  H   H4222     1.0  0.67036  0.05839  0.39960  1.0000
  C   C2639     1.0  0.76909  0.02053  0.47318  1.0000
  C   C2640     1.0  0.78664  0.00457  0.41888  1.0000
  C   C2641     1.0  0.77560  0.01646  0.42345  1.0000
  C   C2642     1.0  0.76449  0.01387  0.43633  1.0000
  H   H4223     1.0  0.77538  0.02760  0.41679  1.0000
  S   S1067     1.0  0.88150  0.00109  0.37812  1.0000
  H   H4224     1.0  0.66656  0.02646  0.34036  1.0000
  H   H4225     1.0  0.93363  0.29474  0.28528  1.0000
  S   S1068     1.0  0.82635  0.05499  0.47674  1.0000
  C   C2643     1.0  0.94519  0.21706  0.46088  1.0000
  C   C2644     1.0  0.84512  0.13195  0.45834  1.0000
  C   C2645     1.0  0.85670  0.12525  0.44814  1.0000
  C   C2646     1.0  0.85658  0.11149  0.44594  1.0000
  C   C2647     1.0  0.84489  0.10431  0.45390  1.0000
  C   C2648     1.0  0.83324  0.11099  0.46411  1.0000
  H   H4226     1.0  0.85661  0.28592  0.44166  1.0000
  H   H4227     1.0  0.86574  0.13073  0.44183  1.0000
  H   H4228     1.0  0.86561  0.10639  0.43801  1.0000
  C   C2649     1.0  0.93441  0.17054  0.47123  1.0000
  H   H4229     1.0  0.99366  0.11623  0.43595  1.0000
  C   C2650     1.0  0.92708  0.11285  0.43240  1.0000
  C   C2651     1.0  0.92162  0.10554  0.44684  1.0000
  C   C2652     1.0  0.92693  0.09027  0.45154  1.0000
  C   C2653     1.0  0.93794  0.08236  0.44191  1.0000
  C   C2654     1.0  0.94369  0.08971  0.42758  1.0000
  C   C2655     1.0  0.93816  0.10494  0.42278  1.0000
  H   H4230     1.0  0.91358  0.11166  0.45452  1.0000
  H   H4231     1.0  0.92290  0.08465  0.46276  1.0000
  H   H4232     1.0  0.95230  0.08366  0.42010  1.0000
  H   H4233     1.0  0.94251  0.11055  0.41163  1.0000
  C   C2656     1.0  0.76469  0.99944  0.44482  1.0000
  H   H4234     1.0  0.82434  0.10537  0.47054  1.0000
  C   C2657     1.0  0.83835  0.02184  0.38992  1.0000
  H   H4235     1.0  0.93146  0.20144  0.40335  1.0000
  Fe  Fe531     1.0  0.99086  0.18351  0.38834  1.0000
  H   H4236     1.0  0.91521  0.18613  0.40109  1.0000
  H   H4237     1.0  0.80009  0.12914  0.41149  1.0000
  H   H4238     1.0  0.78551  0.12205  0.42579  1.0000
  H   H4239     1.0  0.78737  0.14069  0.42355  1.0000
  C   C2658     1.0  0.83331  0.12486  0.46625  1.0000
  H   H4240     1.0  0.69436  0.03432  0.27689  1.0000
  H   H4241     1.0  0.95239  0.28971  0.34190  1.0000
  S   S1069     1.0  0.93121  0.31375  0.38782  1.0000
  C   C2659     1.0  0.94501  0.31106  0.25907  1.0000
  C   C2660     1.0  0.86245  0.99226  0.36771  1.0000
  C   C2661     1.0  0.93976  0.16592  0.42273  1.0000
  H   H4242     1.0  0.93391  0.28731  0.26228  1.0000
  H   H4243     1.0  0.92864  0.17805  0.46244  1.0000
  C   C2662     1.0  0.95821  0.22142  0.46033  1.0000
  S   S1070     1.0  0.79963  0.00762  0.40213  1.0000
  H   H4244     1.0  0.97123  0.28136  0.33389  1.0000
  N   N267      1.0  0.93121  0.03037  0.43173  1.0000
  C   C2663     1.0  0.94351  0.03746  0.42207  1.0000
  C   C2664     1.0  0.93059  0.02992  0.44732  1.0000
  C   C2665     1.0  0.93393  0.01510  0.42971  1.0000
  C   C2666     1.0  0.91682  0.03898  0.42785  1.0000
  H   H4245     1.0  0.94435  0.03805  0.41019  1.0000
  H   H4246     1.0  0.95456  0.03118  0.42466  1.0000
  H   H4247     1.0  0.94189  0.04897  0.42344  1.0000
  H   H4248     1.0  0.94139  0.02370  0.45051  1.0000
  H   H4249     1.0  0.92846  0.04130  0.44923  1.0000
  H   H4250     1.0  0.92154  0.02450  0.45496  1.0000
  H   H4251     1.0  0.92489  0.00940  0.43691  1.0000
  H   H4252     1.0  0.94476  0.00829  0.43242  1.0000
  H   H4253     1.0  0.93431  0.01507  0.41808  1.0000
  H   H4254     1.0  0.90732  0.03384  0.43490  1.0000
  H   H4255     1.0  0.91695  0.03950  0.41615  1.0000
  H   H4256     1.0  0.91437  0.05058  0.42926  1.0000
  H   H4257     1.0  0.81941  0.10794  0.42119  1.0000
  H   H4258     1.0  0.80244  0.11973  0.45685  1.0000
  N   N268      1.0  0.97031  0.11594  0.44039  1.0000
  H   H4259     1.0  0.88120  0.25807  0.43785  1.0000
  H   H4260     1.0  0.87055  0.99206  0.44147  1.0000
  C   C2667     1.0  0.97885  0.21959  0.34779  1.0000
  C   C2668     1.0  0.76022  0.08554  0.44641  1.0000
  H   H4261     1.0  0.95838  0.12290  0.42281  1.0000
  C   C2669     1.0  0.70721  0.99931  0.24830  1.0000
  S   S1071     1.0  0.98106  0.19292  0.36806  1.0000
  H   H4262     1.0  0.91425  0.21356  0.44490  1.0000
  C   C2670     1.0  0.85285  0.02382  0.40592  1.0000
  H   H4263     1.0  0.78801  0.00851  0.45065  1.0000
  H   H4264     1.0  0.93441  0.22263  0.46637  1.0000
  C   C2671     1.0  0.79380  0.12917  0.42310  1.0000
  H   H4265     1.0  0.78701  0.11629  0.45200  1.0000
  H   H4266     1.0  0.81968  0.10369  0.44041  1.0000
  Fe  Fe532     1.0  0.99083  0.07029  0.40780  1.0000
  H   H4267     1.0  0.98070  0.03339  0.39164  1.0000
  C   C2672     1.0  0.96004  0.19826  0.44702  1.0000
  C   C2673     1.0  0.81223  0.10840  0.43241  1.0000
  C   C2674     1.0  0.79511  0.12369  0.44873  1.0000
  H   H4268     1.0  0.82165  0.13360  0.41827  1.0000
  C   C2675     1.0  0.81479  0.13331  0.42972  1.0000
  C   C2676     1.0  0.76456  0.99288  0.31473  1.0000
  H   H4269     1.0  0.78855  0.13500  0.44990  1.0000
  H   H4270     1.0  0.91143  0.17960  0.42078  1.0000
  N   N269      1.0  0.93480  0.17769  0.41040  1.0000
  H   H4271     1.0  0.93611  0.20212  0.45465  1.0000
  H   H4272     1.0  0.96599  0.12963  0.45594  1.0000
  H   H4273     1.0  0.73733  0.00283  0.34153  1.0000
  H   H4274     1.0  0.97747  0.12503  0.41721  1.0000
  H   H4275     1.0  0.80901  0.14491  0.43059  1.0000
  H   H4276     1.0  0.95291  0.30042  0.26245  1.0000
  H   H4277     1.0  0.67737  0.02470  0.26891  1.0000
  C   C2677     1.0  0.66639  0.05120  0.27663  1.0000
  C   C2678     1.0  0.92399  0.31052  0.40700  1.0000
  Fe  Fe533     1.0  0.80181  0.99001  0.39009  1.0000
  H   H4278     1.0  0.87926  0.29884  0.44875  1.0000
  H   H4279     1.0  0.80441  0.10091  0.43481  1.0000
  H   H4280     1.0  0.82274  0.12926  0.43729  1.0000
  C   C2679     1.0  0.92616  0.30546  0.28130  1.0000
  H   H4281     1.0  0.97751  0.99159  0.42196  1.0000
  Fe  Fe534     1.0  0.98221  0.18008  0.42161  1.0000
  C   C2680     1.0  0.84447  0.00125  0.40984  1.0000
  H   H4282     1.0  0.97046  0.21626  0.34462  1.0000
  H   H4283     1.0  0.98457  0.30795  0.33045  1.0000
  H   H4284     1.0  0.95132  0.16581  0.42323  1.0000
  H   H4285     1.0  0.84274  0.99947  0.44819  1.0000
  H   H4286     1.0  0.76869  0.06287  0.45669  1.0000
  H   H4287     1.0  0.94117  0.18350  0.38663  1.0000
  C   C2681     1.0  0.94614  0.20543  0.45430  1.0000
  S   S1072     1.0  0.80259  0.08737  0.47087  1.0000
  H   H4288     1.0  0.84667  0.98580  0.35999  1.0000
  C   C2682     1.0  0.97302  0.20275  0.44632  1.0000
  C   C2683     1.0  0.86517  0.00275  0.44417  1.0000
  H   H4289     1.0  0.84880  0.01785  0.38207  1.0000
  H   H4290     1.0  0.76487  0.01047  0.32430  1.0000
  H   H4291     1.0  0.92974  0.28443  0.43832  1.0000
  H   H4292     1.0  0.91432  0.30444  0.28608  1.0000
  C   C2684     1.0  0.96988  0.11783  0.42477  1.0000
  H   H4293     1.0  0.98380  0.19730  0.44068  1.0000
  S   S1073     1.0  0.90290  0.18825  0.44831  1.0000
  Fe  Fe535     1.0  0.93414  0.24901  0.47537  1.0000
  S   S1074     1.0  0.87483  0.15998  0.47491  1.0000
  C   C2685     1.0  0.92647  0.29832  0.25909  1.0000
  H   H4294     1.0  0.87361  0.03320  0.44842  1.0000
  C   C2686     1.0  0.90054  0.22469  0.46215  1.0000
  S   S1075     1.0  0.98334  0.07442  0.43058  1.0000
  H   H4295     1.0  0.93958  0.15476  0.42162  1.0000
  H   H4296     1.0  0.98220  0.21759  0.45260  1.0000
  C   C2687     1.0  0.91936  0.17749  0.41030  1.0000
  H   H4297     1.0  0.85496  0.99650  0.40250  1.0000
  H   H4298     1.0  0.85959  0.00377  0.36211  1.0000
  H   H4299     1.0  0.93232  0.16771  0.43356  1.0000
  S   S1076     1.0  0.96105  0.18350  0.43914  1.0000
  N   N270      1.0  0.67071  0.03660  0.28640  1.0000
  N   N271      1.0  0.84057  0.01760  0.40524  1.0000
  S   S1077     1.0  0.95735  0.23564  0.46887  1.0000
  C   C2688     1.0  0.98573  0.10898  0.44251  1.0000
  C   C2689     1.0  0.95999  0.10642  0.45002  1.0000
  H   H4300     1.0  0.68983  0.02364  0.29534  1.0000
  H   H4301     1.0  0.67118  0.04785  0.37869  1.0000
  C   C2690     1.0  0.66961  0.02478  0.27997  1.0000
  H   H4302     1.0  0.82335  0.03577  0.41215  1.0000
  C   C2691     1.0  0.89662  0.20240  0.45812  1.0000
  H   H4303     1.0  0.83506  0.03409  0.38614  1.0000
  C   C2692     1.0  0.82660  0.02345  0.41524  1.0000
  H   H4304     1.0  0.97350  0.10702  0.42132  1.0000
  C   C2693     1.0  0.90468  0.21357  0.45414  1.0000
  C   C2694     1.0  0.94487  0.17504  0.39619  1.0000
  S   S1078     1.0  0.99369  0.01443  0.41616  1.0000
  H   H4305     1.0  0.99182  0.12265  0.38099  1.0000
  H   H4306     1.0  0.98575  0.20629  0.30703  1.0000
  C   C2695     1.0  0.89438  0.28145  0.42959  1.0000
  H   H4307     1.0  0.94822  0.11156  0.44900  1.0000
  H   H4308     1.0  0.91869  0.16651  0.40909  1.0000
  H   H4309     1.0  0.94531  0.16391  0.39454  1.0000
  H   H4310     1.0  0.95651  0.17570  0.39556  1.0000
  C   C2696     1.0  0.75950  0.07058  0.45229  1.0000
  H   H4311     1.0  0.71654  0.98942  0.42100  1.0000
  C   C2697     1.0  0.93518  0.19225  0.41240  1.0000
  C   C2698     1.0  0.98571  0.21021  0.35919  1.0000
  H   H4312     1.0  0.94766  0.31432  0.24676  1.0000
  H   H4313     1.0  0.72719  0.99796  0.40366  1.0000
  C   C2699     1.0  0.97211  0.21421  0.45310  1.0000
  H   H4314     1.0  0.82939  0.01701  0.38893  1.0000
  H   H4315     1.0  0.75587  0.02306  0.43972  1.0000
  S   S1079     1.0  0.75083  0.99589  0.46076  1.0000
  H   H4316     1.0  0.81708  0.01906  0.41491  1.0000
  H   H4317     1.0  0.80457  0.00470  0.45764  1.0000
  H   H4318     1.0  0.71507  0.07943  0.47627  1.0000
  C   C2700     1.0  0.75060  0.99752  0.41467  1.0000
  C   C2701     1.0  0.86741  0.28699  0.43361  1.0000
  H   H4319     1.0  0.90701  0.23310  0.45913  1.0000
  S   S1080     1.0  0.78207  0.98568  0.38506  1.0000
  Fe  Fe536     1.0  0.90250  0.99499  0.42198  1.0000
  H   H4320     1.0  0.98508  0.21994  0.31676  1.0000
  H   H4321     1.0  0.96034  0.10433  0.46186  1.0000
  Fe  Fe537     1.0  0.98072  0.28750  0.29123  1.0000
  C   C2702     1.0  0.87909  0.28684  0.45284  1.0000
  H   H4322     1.0  0.97462  0.28683  0.36920  1.0000
  S   S1081     1.0  0.98108  0.26330  0.30061  1.0000
  C   C2703     1.0  0.99149  0.21482  0.30723  1.0000
  H   H4323     1.0  0.91465  0.29706  0.26330  1.0000
  H   H4324     1.0  0.87785  0.19395  0.47299  1.0000
  H   H4325     1.0  0.90435  0.27620  0.43455  1.0000
  H   H4326     1.0  0.85036  0.03613  0.40236  1.0000
  S   S1082     1.0  0.98801  0.19890  0.40299  1.0000
  N   N272      1.0  0.96955  0.29610  0.34769  1.0000
  H   H4327     1.0  0.86705  0.29905  0.42902  1.0000
  H   H4328     1.0  0.86799  0.28196  0.42432  1.0000
  H   H4329     1.0  0.89476  0.29336  0.42490  1.0000
  H   H4330     1.0  0.74683  0.00779  0.41911  1.0000
  Fe  Fe538     1.0  0.71791  0.99545  0.27975  1.0000
  Fe  Fe539     1.0  0.91271  0.27862  0.47013  1.0000
  C   C2704     1.0  0.88415  0.20253  0.46994  1.0000
  S   S1083     1.0  0.90661  0.30205  0.45709  1.0000
  C   C2705     1.0  0.98274  0.23333  0.34060  1.0000
  S   S1084     1.0  0.91758  0.25847  0.46071  1.0000
  H   H4331     1.0  0.95904  0.28156  0.36661  1.0000
  C   C2706     1.0  0.91346  0.30514  0.43786  1.0000
  C   C2707     1.0  0.97030  0.28396  0.36101  1.0000
  C   C2708     1.0  0.93005  0.29726  0.41601  1.0000
  C   C2709     1.0  0.92483  0.29458  0.43142  1.0000
  H   H4332     1.0  0.93896  0.28912  0.41108  1.0000
  Fe  Fe540     1.0  0.89166  0.13845  0.47752  1.0000
  H   H4333     1.0  0.97786  0.27350  0.35818  1.0000
  H   H4334     1.0  0.68935  0.07387  0.46706  1.0000
  H   H4335     1.0  0.86744  0.10734  0.47336  1.0000
  C   C2710     1.0  0.77933  0.99001  0.33269  1.0000
  C   C2711     1.0  0.79308  0.01178  0.45796  1.0000
  H   H4336     1.0  0.72115  0.00677  0.41905  1.0000
  H   H4337     1.0  0.74955  0.99513  0.35421  1.0000
  H   H4338     1.0  0.79429  0.02344  0.45299  1.0000
  S   S1085     1.0  0.79195  0.05650  0.47425  1.0000
  H   H4339     1.0  0.99065  0.22366  0.29699  1.0000
  H   H4340     1.0  0.94775  0.30796  0.35708  1.0000
  H   H4341     1.0  0.66375  0.02544  0.30904  1.0000
  S   S1086     1.0  0.99252  0.09126  0.39033  1.0000
  C   C2712     1.0  0.95933  0.30968  0.35192  1.0000
  H   H4342     1.0  0.99273  0.28887  0.33753  1.0000
  H   H4343     1.0  0.93621  0.15900  0.46994  1.0000
  H   H4344     1.0  0.67397  0.05211  0.26546  1.0000
  H   H4345     1.0  0.66424  0.99631  0.31573  1.0000
  H   H4346     1.0  0.75253  0.00099  0.40241  1.0000
  H   H4347     1.0  0.71649  0.99139  0.34362  1.0000
  H   H4348     1.0  0.68762  0.04325  0.29236  1.0000
  H   H4349     1.0  0.73035  0.00400  0.36057  1.0000
  H   H4350     1.0  0.66667  0.06044  0.28132  1.0000
  S   S1087     1.0  0.99550  0.28869  0.30497  1.0000
  C   C2713     1.0  0.98469  0.29899  0.34068  1.0000
  H   H4351     1.0  0.98999  0.09820  0.43901  1.0000
  H   H4352     1.0  0.98927  0.30250  0.34826  1.0000
  H   H4353     1.0  0.96311  0.31320  0.36007  1.0000
  H   H4354     1.0  0.96346  0.30050  0.32681  1.0000
  C   C2714     1.0  0.87971  0.21397  0.47768  1.0000
  C   C2715     1.0  0.73651  0.98467  0.43715  1.0000
  C   C2716     1.0  0.86973  0.07853  0.47780  1.0000
  C   C2717     1.0  0.71779  0.98501  0.35493  1.0000
  H   H4355     1.0  0.85535  0.10212  0.49085  1.0000
  C   C2718     1.0  0.71608  0.99668  0.62919  1.0000
  Fe  Fe541     1.0  0.69895  0.05506  0.60046  1.0000
  S   S1088     1.0  0.69208  0.03988  0.59090  1.0000
  S   S1089     1.0  0.68352  0.06958  0.61578  1.0000
  Fe  Fe542     1.0  0.71109  0.02290  0.59952  1.0000
  H   H4356     1.0  0.67127  0.07196  0.49842  1.0000
  Fe  Fe543     1.0  0.70990  0.04603  0.57072  1.0000
  S   S1090     1.0  0.71017  0.05366  0.54619  1.0000
  S   S1091     1.0  0.71678  0.03769  0.61034  1.0000
  S   S1092     1.0  0.71534  0.06270  0.57967  1.0000
  S   S1093     1.0  0.70878  0.00030  0.61344  1.0000
  H   H4357     1.0  0.94635  0.24128  0.52805  1.0000
  S   S1094     1.0  0.68967  0.02537  0.50533  1.0000
  C   C2719     1.0  0.73441  0.99891  0.64115  1.0000
  H   H4358     1.0  0.68645  0.06367  0.50770  1.0000
  H   H4359     1.0  0.73395  0.00824  0.61819  1.0000
  C   C2720     1.0  0.74236  0.06412  0.53976  1.0000
  S   S1095     1.0  0.72818  0.02746  0.57851  1.0000
  H   H4360     1.0  0.88020  0.06617  0.50287  1.0000
  H   H4361     1.0  0.81624  0.01356  0.67869  1.0000
  H   H4362     1.0  0.73842  0.05592  0.54985  1.0000
  H   H4363     1.0  0.83255  0.12915  0.52897  1.0000
  H   H4364     1.0  0.74399  0.00085  0.72012  1.0000
  C   C2721     1.0  0.70570  0.04356  0.53597  1.0000
  C   C2722     1.0  0.69373  0.03637  0.54157  1.0000
  C   C2723     1.0  0.68915  0.03039  0.53222  1.0000
  C   C2724     1.0  0.69667  0.03135  0.51733  1.0000
  C   C2725     1.0  0.70902  0.03798  0.51200  1.0000
  C   C2726     1.0  0.71337  0.04423  0.52120  1.0000
  H   H4365     1.0  0.68763  0.03596  0.55292  1.0000
  H   H4366     1.0  0.67958  0.02528  0.53646  1.0000
  H   H4367     1.0  0.71493  0.03876  0.50067  1.0000
  H   H4368     1.0  0.72264  0.04977  0.51681  1.0000
  H   H4369     1.0  0.75199  0.01459  0.70548  1.0000
  C   C2727     1.0  0.93342  0.30469  0.57911  1.0000
  C   C2728     1.0  0.66593  0.02899  0.71464  1.0000
  H   H4370     1.0  0.85437  0.13995  0.52400  1.0000
  H   H4371     1.0  0.90543  0.22682  0.52851  1.0000
  H   H4372     1.0  0.94924  0.28434  0.64729  1.0000
  H   H4373     1.0  0.71132  0.00440  0.70467  1.0000
  H   H4374     1.0  0.73972  0.00962  0.68135  1.0000
  Fe  Fe544     1.0  0.78828  0.99278  0.65087  1.0000
  H   H4375     1.0  0.98473  0.10341  0.67407  1.0000
  C   C2729     1.0  0.72856  0.00200  0.62853  1.0000
  H   H4376     1.0  0.77482  0.99341  0.49048  1.0000
  Fe  Fe545     1.0  0.73253  0.04368  0.58869  1.0000
  S   S1096     1.0  0.79988  0.01068  0.63596  1.0000
  H   H4377     1.0  0.73249  0.07332  0.53791  1.0000
  H   H4378     1.0  0.66623  0.03952  0.71642  1.0000
  H   H4379     1.0  0.98840  0.28429  0.68769  1.0000
  H   H4380     1.0  0.74403  0.00310  0.64058  1.0000
  H   H4381     1.0  0.74587  0.05850  0.53033  1.0000
  H   H4382     1.0  0.76358  0.04814  0.55416  1.0000
  H   H4383     1.0  0.98699  0.26313  0.65242  1.0000
  H   H4384     1.0  0.68220  0.99223  0.72268  1.0000
  H   H4385     1.0  0.87219  0.10738  0.49013  1.0000
  C   C2730     1.0  0.66704  0.03804  0.66134  1.0000
  H   H4386     1.0  0.97798  0.22594  0.49947  1.0000
  H   H4387     1.0  0.99134  0.12028  0.68543  1.0000
  H   H4388     1.0  0.97618  0.19610  0.59062  1.0000
  H   H4389     1.0  0.95747  0.20813  0.53626  1.0000
  H   H4390     1.0  0.93611  0.15064  0.49687  1.0000
  C   C2731     1.0  0.91412  0.99460  0.58768  1.0000
  H   H4391     1.0  0.71088  0.06171  0.47920  1.0000
  H   H4392     1.0  0.69365  0.02353  0.66830  1.0000
  H   H4393     1.0  0.66672  0.02942  0.63748  1.0000
  H   H4394     1.0  0.72872  0.99101  0.70188  1.0000
  C   C2732     1.0  0.72209  0.02396  0.71171  1.0000
  H   H4395     1.0  0.92638  0.99091  0.58357  1.0000
  H   H4396     1.0  0.72814  0.03300  0.70929  1.0000
  H   H4397     1.0  0.82074  0.13439  0.51604  1.0000
  C   C2733     1.0  0.91106  0.16842  0.48882  1.0000
  H   H4398     1.0  0.73947  0.02731  0.68427  1.0000
  H   H4399     1.0  0.84257  0.12784  0.49642  1.0000
  H   H4400     1.0  0.68173  0.00227  0.65827  1.0000
  N   N273      1.0  0.73080  0.01210  0.70377  1.0000
  N   N274      1.0  0.67805  0.02595  0.65498  1.0000
  Fe  Fe546     1.0  0.70204  0.02661  0.48141  1.0000
  S   S1097     1.0  0.98451  0.19936  0.70867  1.0000
  C   C2734     1.0  0.96851  0.24864  0.64837  1.0000
  C   C2735     1.0  0.70830  0.07155  0.48410  1.0000
  H   H4401     1.0  0.88534  0.99753  0.58825  1.0000
  H   H4402     1.0  0.71230  0.06786  0.49459  1.0000
  C   C2736     1.0  0.95509  0.31111  0.61812  1.0000
  H   H4403     1.0  0.82063  0.14734  0.52642  1.0000
  H   H4404     1.0  0.93480  0.29864  0.59043  1.0000
  C   C2737     1.0  0.73320  0.01830  0.68766  1.0000
  H   H4405     1.0  0.96341  0.20698  0.50373  1.0000
  H   H4406     1.0  0.76951  0.08396  0.52867  1.0000
  C   C2738     1.0  0.76725  0.05672  0.54436  1.0000
  Fe  Fe547     1.0  0.80046  0.10368  0.57236  1.0000
  S   S1098     1.0  0.82097  0.08547  0.56903  1.0000
  Fe  Fe548     1.0  0.81866  0.12794  0.56127  1.0000
  S   S1099     1.0  0.84062  0.11184  0.55727  1.0000
  S   S1100     1.0  0.81585  0.15267  0.55585  1.0000
  Fe  Fe549     1.0  0.82831  0.10132  0.54774  1.0000
  S   S1101     1.0  0.83786  0.09680  0.52502  1.0000
  Fe  Fe550     1.0  0.83103  0.09786  0.57884  1.0000
  S   S1102     1.0  0.84160  0.08751  0.59828  1.0000
  S   S1103     1.0  0.80687  0.11843  0.55026  1.0000
  S   S1104     1.0  0.81006  0.11499  0.58373  1.0000
  Fe  Fe551     1.0  0.88753  0.01447  0.62223  1.0000
  S   S1105     1.0  0.88385  0.02765  0.63934  1.0000
  S   S1106     1.0  0.88575  0.02490  0.59861  1.0000
  S   S1107     1.0  0.77672  0.10115  0.58253  1.0000
  C   C2739     1.0  0.75228  0.07041  0.59065  1.0000
  S   S1108     1.0  0.90799  0.99833  0.62874  1.0000
  H   H4407     1.0  0.89470  0.22067  0.51072  1.0000
  S   S1109     1.0  0.92507  0.15820  0.56460  1.0000
  Fe  Fe552     1.0  0.88896  0.17508  0.54933  1.0000
  S   S1110     1.0  0.89582  0.15079  0.55846  1.0000
  S   S1111     1.0  0.86907  0.18577  0.53907  1.0000
  Fe  Fe553     1.0  0.91881  0.15350  0.54598  1.0000
  S   S1112     1.0  0.93300  0.13652  0.53321  1.0000
  S   S1113     1.0  0.91163  0.17734  0.53526  1.0000
  C   C2740     1.0  0.78198  0.99485  0.47910  1.0000
  H   H4408     1.0  0.91949  0.31353  0.55663  1.0000
  H   H4409     1.0  0.94560  0.11586  0.56180  1.0000
  C   C2741     1.0  0.87795  0.24234  0.52437  1.0000
  S   S1114     1.0  0.89222  0.18209  0.56833  1.0000
  H   H4410     1.0  0.96286  0.19715  0.63560  1.0000
  C   C2742     1.0  0.69315  0.02568  0.65648  1.0000
  S   S1115     1.0  0.79549  0.06494  0.51094  1.0000
  H   H4411     1.0  0.80838  0.03665  0.61194  1.0000
  C   C2743     1.0  0.92782  0.03176  0.64576  1.0000
  H   H4412     1.0  0.75074  0.09007  0.52560  1.0000
  H   H4413     1.0  0.94786  0.18840  0.62524  1.0000
  H   H4414     1.0  0.97101  0.24047  0.50969  1.0000
  H   H4415     1.0  0.92780  0.16351  0.50870  1.0000
  C   C2744     1.0  0.94715  0.30213  0.61559  1.0000
  H   H4416     1.0  0.86792  0.24464  0.51965  1.0000
  C   C2745     1.0  0.97911  0.10451  0.68521  1.0000
  H   H4417     1.0  0.93407  0.13110  0.58799  1.0000
  H   H4418     1.0  0.86682  0.22889  0.55206  1.0000
  Fe  Fe554     1.0  0.95765  0.08435  0.63511  1.0000
  N   N275      1.0  0.88227  0.22647  0.53139  1.0000
  C   C2746     1.0  0.82565  0.01778  0.63616  1.0000
  H   H4419     1.0  0.76178  0.01961  0.48449  1.0000
  S   S1116     1.0  0.97904  0.10761  0.64570  1.0000
  H   H4420     1.0  0.77209  0.05134  0.53475  1.0000
  C   C2747     1.0  0.91930  0.19986  0.58072  1.0000
  H   H4421     1.0  0.96797  0.22190  0.53353  1.0000
  H   H4422     1.0  0.80284  0.00658  0.48285  1.0000
  C   C2748     1.0  0.96763  0.23315  0.50466  1.0000
  H   H4423     1.0  0.93260  0.10386  0.56793  1.0000
  C   C2749     1.0  0.75675  0.08341  0.58972  1.0000
  H   H4424     1.0  0.96015  0.16278  0.59914  1.0000
  H   H4425     1.0  0.80354  0.04425  0.63614  1.0000
  H   H4426     1.0  0.90898  0.04244  0.63560  1.0000
  H   H4427     1.0  0.81367  0.07520  0.60481  1.0000
  H   H4428     1.0  0.91012  0.29473  0.57813  1.0000
  H   H4429     1.0  0.74873  0.09239  0.59421  1.0000
  C   C2750     1.0  0.78439  0.05792  0.61869  1.0000
  C   C2751     1.0  0.92182  0.13267  0.52370  1.0000
  C   C2752     1.0  0.92703  0.12046  0.51706  1.0000
  C   C2753     1.0  0.91806  0.11734  0.50950  1.0000
  C   C2754     1.0  0.90399  0.12657  0.50838  1.0000
  C   C2755     1.0  0.89886  0.13891  0.51482  1.0000
  C   C2756     1.0  0.90777  0.14195  0.52249  1.0000
  H   H4430     1.0  0.93789  0.11329  0.51793  1.0000
  H   H4431     1.0  0.92200  0.10775  0.50457  1.0000
  H   H4432     1.0  0.88795  0.14602  0.51404  1.0000
  H   H4433     1.0  0.90377  0.15156  0.52733  1.0000
  C   C2757     1.0  0.83115  0.16111  0.55134  1.0000
  C   C2758     1.0  0.82859  0.17651  0.54627  1.0000
  C   C2759     1.0  0.84037  0.18384  0.54240  1.0000
  C   C2760     1.0  0.85479  0.17588  0.54379  1.0000
  C   C2761     1.0  0.85750  0.16039  0.54868  1.0000
  C   C2762     1.0  0.84566  0.15298  0.55243  1.0000
  H   H4434     1.0  0.81741  0.18283  0.54534  1.0000
  H   H4435     1.0  0.83821  0.19578  0.53853  1.0000
  H   H4436     1.0  0.86870  0.15412  0.54931  1.0000
  H   H4437     1.0  0.84774  0.14105  0.55613  1.0000
  C   C2763     1.0  0.82568  0.08840  0.52116  1.0000
  C   C2764     1.0  0.81390  0.08364  0.53226  1.0000
  C   C2765     1.0  0.80458  0.07640  0.52920  1.0000
  C   C2766     1.0  0.80695  0.07407  0.51497  1.0000
  C   C2767     1.0  0.81851  0.07917  0.50383  1.0000
  C   C2768     1.0  0.82782  0.08633  0.50690  1.0000
  H   H4438     1.0  0.81198  0.08539  0.54325  1.0000
  H   H4439     1.0  0.79565  0.07260  0.53788  1.0000
  H   H4440     1.0  0.82042  0.07755  0.49281  1.0000
  H   H4441     1.0  0.83655  0.09031  0.49817  1.0000
  C   C2769     1.0  0.85269  0.06965  0.59785  1.0000
  C   C2770     1.0  0.85380  0.05943  0.61121  1.0000
  C   C2771     1.0  0.86332  0.04542  0.61128  1.0000
  C   C2772     1.0  0.87227  0.04172  0.59809  1.0000
  C   C2773     1.0  0.87078  0.05176  0.58462  1.0000
  C   C2774     1.0  0.86084  0.06570  0.58448  1.0000
  H   H4442     1.0  0.84736  0.06234  0.62156  1.0000
  H   H4443     1.0  0.86383  0.03754  0.62161  1.0000
  H   H4444     1.0  0.87755  0.04891  0.57434  1.0000
  H   H4445     1.0  0.85994  0.07356  0.57410  1.0000
  S   S1117     1.0  0.94955  0.13966  0.62669  1.0000
  S   S1118     1.0  0.87187  0.99970  0.63579  1.0000
  C   C2775     1.0  0.93576  0.11297  0.57057  1.0000
  S   S1119     1.0  0.98600  0.23969  0.61293  1.0000
  C   C2776     1.0  0.87375  0.07787  0.50165  1.0000
  C   C2777     1.0  0.68914  0.09122  0.49336  1.0000
  H   H4446     1.0  0.96730  0.26854  0.62241  1.0000
  C   C2778     1.0  0.67543  0.01594  0.72042  1.0000
  H   H4447     1.0  0.69258  0.08777  0.50417  1.0000
  H   H4448     1.0  0.68592  0.05729  0.49213  1.0000
  S   S1120     1.0  0.88828  0.99547  0.66290  1.0000
  N   N276      1.0  0.91787  0.31323  0.57936  1.0000
  H   H4449     1.0  0.91665  0.18967  0.49831  1.0000
  H   H4450     1.0  0.66640  0.03620  0.67340  1.0000
  H   H4451     1.0  0.85902  0.15303  0.50705  1.0000
  S   S1121     1.0  0.89273  0.12248  0.49919  1.0000
  H   H4452     1.0  0.98532  0.26489  0.62655  1.0000
  H   H4453     1.0  0.79319  0.07436  0.57189  1.0000
  C   C2779     1.0  0.80183  0.07407  0.60733  1.0000
  H   H4454     1.0  0.98048  0.24284  0.64563  1.0000
  C   C2780     1.0  0.93342  0.14153  0.62025  1.0000
  C   C2781     1.0  0.93699  0.05897  0.63398  1.0000
  C   C2782     1.0  0.96174  0.17434  0.59428  1.0000
  C   C2783     1.0  0.96523  0.19648  0.59870  1.0000
  H   H4455     1.0  0.78021  0.06053  0.60837  1.0000
  C   C2784     1.0  0.78183  0.07325  0.57723  1.0000
  C   C2785     1.0  0.94582  0.04699  0.64198  1.0000
  S   S1122     1.0  0.77191  0.99565  0.67216  1.0000
  H   H4456     1.0  0.96192  0.09766  0.57797  1.0000
  C   C2786     1.0  0.95159  0.09546  0.58631  1.0000
  H   H4457     1.0  0.77701  0.06587  0.62554  1.0000
  C   C2787     1.0  0.83578  0.01993  0.64305  1.0000
  C   C2788     1.0  0.97321  0.21579  0.62545  1.0000
  H   H4458     1.0  0.68174  0.03891  0.63271  1.0000
  N   N277      1.0  0.85643  0.12588  0.59571  1.0000
  C   C2789     1.0  0.84206  0.12672  0.59213  1.0000
  C   C2790     1.0  0.85361  0.13340  0.60796  1.0000
  C   C2791     1.0  0.86620  0.13326  0.58257  1.0000
  C   C2792     1.0  0.86391  0.11015  0.60017  1.0000
  H   H4459     1.0  0.84382  0.12092  0.58311  1.0000
  H   H4460     1.0  0.83616  0.13841  0.58846  1.0000
  H   H4461     1.0  0.83438  0.12128  0.60182  1.0000
  H   H4462     1.0  0.84644  0.12799  0.61815  1.0000
  H   H4463     1.0  0.78286  0.04654  0.62473  1.0000
  H   H4464     1.0  0.84784  0.14525  0.60500  1.0000
  H   H4465     1.0  0.87717  0.13274  0.58491  1.0000
  H   H4466     1.0  0.86097  0.14520  0.57902  1.0000
  H   H4467     1.0  0.86851  0.12798  0.57304  1.0000
  H   H4468     1.0  0.87474  0.10906  0.60306  1.0000
  H   H4469     1.0  0.86623  0.10413  0.59116  1.0000
  H   H4470     1.0  0.85675  0.10417  0.60995  1.0000
  N   N278      1.0  0.84012  0.14405  0.50885  1.0000
  C   C2793     1.0  0.83357  0.15654  0.49793  1.0000
  C   C2794     1.0  0.84938  0.13193  0.50147  1.0000
  C   C2795     1.0  0.82795  0.13853  0.52057  1.0000
  C   C2796     1.0  0.84951  0.14908  0.51550  1.0000
  H   H4471     1.0  0.90399  0.17002  0.49983  1.0000
  H   H4472     1.0  0.82656  0.15302  0.49261  1.0000
  H   H4473     1.0  0.84241  0.16101  0.48890  1.0000
  H   H4474     1.0  0.85446  0.12233  0.50946  1.0000
  C   C2797     1.0  0.97599  0.11512  0.70631  1.0000
  H   H4475     1.0  0.85867  0.13565  0.49250  1.0000
  H   H4476     1.0  0.96535  0.20238  0.60702  1.0000
  H   H4477     1.0  0.97275  0.16101  0.61864  1.0000
  C   C2798     1.0  0.92318  0.18793  0.48718  1.0000
  H   H4478     1.0  0.91493  0.31797  0.60062  1.0000
  C   C2799     1.0  0.96492  0.21498  0.52778  1.0000
  H   H4479     1.0  0.93662  0.29635  0.57214  1.0000
  H   H4480     1.0  0.95631  0.04807  0.64339  1.0000
  S   S1123     1.0  0.94187  0.07640  0.62689  1.0000
  Fe  Fe555     1.0  0.91575  0.18205  0.55509  1.0000
  C   C2800     1.0  0.94375  0.23439  0.52195  1.0000
  C   C2801     1.0  0.92381  0.05719  0.63157  1.0000
  Fe  Fe556     1.0  0.90306  0.01038  0.64704  1.0000
  N   N279      1.0  0.75471  0.06949  0.54150  1.0000
  C   C2802     1.0  0.71504  0.98551  0.65523  1.0000
  H   H4481     1.0  0.95228  0.18060  0.58875  1.0000
  H   H4482     1.0  0.94585  0.11814  0.59958  1.0000
  C   C2803     1.0  0.91923  0.04364  0.63742  1.0000
  H   H4483     1.0  0.79479  0.08250  0.61376  1.0000
  H   H4484     1.0  0.87280  0.21027  0.54923  1.0000
  C   C2804     1.0  0.98760  0.30689  0.68766  1.0000
  S   S1124     1.0  0.97991  0.12711  0.71490  1.0000
  N   N280      1.0  0.96687  0.26488  0.64552  1.0000
  H   H4485     1.0  0.79823  0.07708  0.59668  1.0000
  Fe  Fe557     1.0  0.90099  0.25034  0.48097  1.0000
  S   S1125     1.0  0.92804  0.20024  0.55090  1.0000
  H   H4486     1.0  0.69650  0.03642  0.65069  1.0000
  H   H4487     1.0  0.94555  0.17155  0.62237  1.0000
  H   H4488     1.0  0.97941  0.22323  0.72274  1.0000
  Fe  Fe558     1.0  0.90117  0.15775  0.57624  1.0000
  Fe  Fe559     1.0  0.95976  0.11550  0.63442  1.0000
  H   H4489     1.0  0.90465  0.17536  0.48033  1.0000
  H   H4490     1.0  0.91298  0.16512  0.59582  1.0000
  S   S1126     1.0  0.97682  0.07330  0.64658  1.0000
  H   H4491     1.0  0.78495  0.01312  0.49424  1.0000
  H   H4492     1.0  0.67001  0.04898  0.65586  1.0000
  C   C2805     1.0  0.77742  0.06014  0.57838  1.0000
  S   S1127     1.0  0.75719  0.04260  0.58550  1.0000
  C   C2806     1.0  0.92680  0.30866  0.63577  1.0000
  C   C2807     1.0  0.93356  0.21808  0.56552  1.0000
  C   C2808     1.0  0.76262  0.05874  0.58503  1.0000
  H   H4493     1.0  0.86428  0.13319  0.61074  1.0000
  H   H4494     1.0  0.97373  0.28051  0.65297  1.0000
  H   H4495     1.0  0.91253  0.15663  0.48847  1.0000
  H   H4496     1.0  0.90833  0.29659  0.59659  1.0000
  C   C2809     1.0  0.89004  0.98795  0.59650  1.0000
  H   H4497     1.0  0.80606  0.05070  0.59552  1.0000
  H   H4498     1.0  0.95337  0.12405  0.58017  1.0000
  C   C2810     1.0  0.94797  0.18265  0.61669  1.0000
  H   H4499     1.0  0.97022  0.26422  0.66684  1.0000
  H   H4500     1.0  0.94450  0.27013  0.64188  1.0000
  H   H4501     1.0  0.84610  0.02297  0.63645  1.0000
  H   H4502     1.0  0.91281  0.19973  0.60405  1.0000
  H   H4503     1.0  0.92248  0.09538  0.59521  1.0000
  C   C2811     1.0  0.75981  0.08013  0.52786  1.0000
  Fe  Fe560     1.0  0.98988  0.14666  0.70145  1.0000
  H   H4504     1.0  0.91400  0.19092  0.58181  1.0000
  C   C2812     1.0  0.91863  0.20486  0.59330  1.0000
  C   C2813     1.0  0.95334  0.21468  0.50863  1.0000
  H   H4505     1.0  0.66401  0.05680  0.60674  1.0000
  C   C2814     1.0  0.77151  0.08487  0.58303  1.0000
  S   S1128     1.0  0.89550  0.14396  0.59906  1.0000
  H   H4506     1.0  0.78542  0.05115  0.57390  1.0000
  H   H4507     1.0  0.93820  0.24212  0.51312  1.0000
  H   H4508     1.0  0.93927  0.22336  0.55484  1.0000
  C   C2815     1.0  0.91646  0.15536  0.60396  1.0000
  C   C2816     1.0  0.90900  0.14370  0.60828  1.0000
  C   C2817     1.0  0.97460  0.17242  0.61325  1.0000
  H   H4509     1.0  0.94873  0.08577  0.58444  1.0000
  C   C2818     1.0  0.91337  0.13121  0.61898  1.0000
  H   H4510     1.0  0.90758  0.12219  0.62241  1.0000
  H   H4511     1.0  0.87550  0.24953  0.53239  1.0000
  H   H4512     1.0  0.79905  0.06357  0.63629  1.0000
  H   H4513     1.0  0.88713  0.24592  0.51517  1.0000
  H   H4514     1.0  0.91583  0.30774  0.64264  1.0000
  C   C2819     1.0  0.94330  0.12103  0.58841  1.0000
  H   H4515     1.0  0.75851  0.08081  0.55600  1.0000
  C   C2820     1.0  0.92848  0.15438  0.61013  1.0000
  H   H4516     1.0  0.92927  0.12013  0.63260  1.0000
  H   H4517     1.0  0.86178  0.07763  0.50689  1.0000
  H   H4518     1.0  0.93410  0.16347  0.60670  1.0000
  H   H4519     1.0  0.82835  0.01895  0.62429  1.0000
  H   H4520     1.0  0.81747  0.05513  0.62733  1.0000
  H   H4521     1.0  0.97226  0.17373  0.58558  1.0000
  C   C2821     1.0  0.80531  0.05532  0.62940  1.0000
  H   H4522     1.0  0.91585  0.11464  0.59608  1.0000
  H   H4523     1.0  0.74083  0.06941  0.59576  1.0000
  C   C2822     1.0  0.92572  0.13002  0.62475  1.0000
  H   H4524     1.0  0.97536  0.20729  0.52349  1.0000
  N   N281      1.0  0.96240  0.18148  0.60574  1.0000
  C   C2823     1.0  0.80951  0.04821  0.60623  1.0000
  C   C2824     1.0  0.88562  0.21745  0.52026  1.0000
  C   C2825     1.0  0.98348  0.19384  0.64227  1.0000
  C   C2826     1.0  0.93291  0.22304  0.57808  1.0000
  N   N282      1.0  0.80026  0.05888  0.61542  1.0000
  H   H4525     1.0  0.79845  0.00941  0.66656  1.0000
  C   C2827     1.0  0.92551  0.21643  0.59202  1.0000
  C   C2828     1.0  0.97230  0.20179  0.63452  1.0000
  C   C2829     1.0  0.92679  0.20646  0.56680  1.0000
  H   H4526     1.0  0.95441  0.09200  0.59741  1.0000
  N   N283      1.0  0.92567  0.17236  0.48613  1.0000
  C   C2830     1.0  0.95081  0.27211  0.64902  1.0000
  C   C2831     1.0  0.86981  0.22214  0.54356  1.0000
  H   H4527     1.0  0.92761  0.10229  0.60808  1.0000
  C   C2832     1.0  0.86728  0.10135  0.48502  1.0000
  H   H4528     1.0  0.92633  0.12285  0.56958  1.0000
  N   N284      1.0  0.93908  0.10863  0.58547  1.0000
  H   H4529     1.0  0.95633  0.20349  0.59275  1.0000
  C   C2833     1.0  0.92565  0.10509  0.59667  1.0000
  H   H4530     1.0  0.74512  0.06929  0.56441  1.0000
  S   S1129     1.0  0.96991  0.10082  0.61825  1.0000
  H   H4531     1.0  0.93849  0.18915  0.61137  1.0000
  N   N285      1.0  0.95743  0.22429  0.51574  1.0000
  H   H4532     1.0  0.91699  0.06635  0.62526  1.0000
  H   H4533     1.0  0.85753  0.07896  0.48214  1.0000
  H   H4534     1.0  0.67701  0.09663  0.49546  1.0000
  H   H4535     1.0  0.82161  0.04845  0.60369  1.0000
  H   H4536     1.0  0.85960  0.22353  0.53941  1.0000
  H   H4537     1.0  0.88919  0.20545  0.52509  1.0000
  H   H4538     1.0  0.77646  0.06014  0.54660  1.0000
  H   H4539     1.0  0.87563  0.21884  0.51576  1.0000
  S   S1130     1.0  0.92561  0.22187  0.60798  1.0000
  H   H4540     1.0  0.76354  0.07499  0.51808  1.0000
  C   C2834     1.0  0.74937  0.07694  0.55406  1.0000
  H   H4541     1.0  0.74002  0.08672  0.55224  1.0000
  H   H4542     1.0  0.96469  0.22165  0.61927  1.0000
  H   H4543     1.0  0.93537  0.22821  0.52981  1.0000
  H   H4544     1.0  0.96380  0.24393  0.66014  1.0000
  C   C2835     1.0  0.92158  0.05384  0.67627  1.0000
  C   C2836     1.0  0.94601  0.05917  0.67161  1.0000
  C   C2837     1.0  0.80886  0.01231  0.65997  1.0000
  H   H4545     1.0  0.92136  0.05268  0.70452  1.0000
  H   H4546     1.0  0.96220  0.24044  0.49553  1.0000
  Fe  Fe561     1.0  0.96663  0.09041  0.66049  1.0000
  C   C2838     1.0  0.67807  0.02849  0.63914  1.0000
  S   S1131     1.0  0.96212  0.08527  0.68530  1.0000
  C   C2839     1.0  0.98520  0.22204  0.62424  1.0000
  C   C2840     1.0  0.96159  0.09723  0.70796  1.0000
  H   H4547     1.0  0.91278  0.07737  0.68919  1.0000
  S   S1132     1.0  0.97597  0.16919  0.69402  1.0000
  C   C2841     1.0  0.94535  0.15984  0.65844  1.0000
  C   C2842     1.0  0.95613  0.15021  0.67994  1.0000
  H   H4548     1.0  0.94544  0.26792  0.66072  1.0000
  H   H4549     1.0  0.68590  0.01931  0.63410  1.0000
  S   S1133     1.0  0.84641  0.01790  0.66734  1.0000
  H   H4550     1.0  0.97278  0.28264  0.62731  1.0000
  H   H4551     1.0  0.93783  0.04018  0.69701  1.0000
  H   H4552     1.0  0.94772  0.22136  0.49948  1.0000
  H   H4553     1.0  0.94347  0.13146  0.66255  1.0000
  H   H4554     1.0  0.96245  0.15920  0.67639  1.0000
  H   H4555     1.0  0.93107  0.08135  0.68511  1.0000
  C   C2843     1.0  0.94526  0.13462  0.67209  1.0000
  H   H4556     1.0  0.93435  0.16426  0.66532  1.0000
  H   H4557     1.0  0.91246  0.99914  0.59756  1.0000
  H   H4558     1.0  0.95130  0.12442  0.67871  1.0000
  S   S1134     1.0  0.98256  0.17579  0.65240  1.0000
  C   C2844     1.0  0.98297  0.11396  0.69170  1.0000
  H   H4559     1.0  0.95150  0.04746  0.67094  1.0000
  C   C2845     1.0  0.93248  0.05211  0.69668  1.0000
  H   H4560     1.0  0.94533  0.15406  0.68742  1.0000
  H   H4561     1.0  0.92251  0.08248  0.67032  1.0000
  N   N286      1.0  0.93099  0.06029  0.68154  1.0000
  H   H4562     1.0  0.92037  0.05969  0.66480  1.0000
  C   C2846     1.0  0.96550  0.10653  0.71445  1.0000
  H   H4563     1.0  0.70176  0.01687  0.65155  1.0000
  H   H4564     1.0  0.93408  0.13814  0.67918  1.0000
  C   C2847     1.0  0.96818  0.09634  0.69327  1.0000
  H   H4565     1.0  0.94309  0.15736  0.64878  1.0000
  C   C2848     1.0  0.92400  0.07607  0.68156  1.0000
  H   H4566     1.0  0.91012  0.05454  0.68344  1.0000
  N   N287      1.0  0.95379  0.14648  0.66703  1.0000
  H   H4567     1.0  0.92653  0.04192  0.67608  1.0000
  H   H4568     1.0  0.95171  0.16886  0.65421  1.0000
  Fe  Fe562     1.0  0.80286  0.06536  0.48673  1.0000
  H   H4569     1.0  0.97537  0.14976  0.65379  1.0000
  C   C2849     1.0  0.81890  0.01473  0.66682  1.0000
  C   C2850     1.0  0.72247  0.00019  0.70766  1.0000
  H   H4570     1.0  0.93953  0.05677  0.70092  1.0000
  H   H4571     1.0  0.95327  0.09085  0.71433  1.0000
  H   H4572     1.0  0.72237  0.02286  0.68407  1.0000
  C   C2851     1.0  0.96844  0.14131  0.65757  1.0000
  H   H4573     1.0  0.67426  0.00917  0.67488  1.0000
  N   N288      1.0  0.87559  0.08578  0.48596  1.0000
  C   C2852     1.0  0.81230  0.01371  0.64464  1.0000
  H   H4574     1.0  0.75234  0.99711  0.70209  1.0000
  H   H4575     1.0  0.96263  0.14052  0.68663  1.0000
  S   S1135     1.0  0.92196  0.01489  0.65399  1.0000
  H   H4576     1.0  0.94535  0.06565  0.66019  1.0000
  C   C2853     1.0  0.83262  0.01803  0.65842  1.0000
  H   H4577     1.0  0.95355  0.06354  0.67549  1.0000
  C   C2854     1.0  0.99073  0.29150  0.69318  1.0000
  Fe  Fe563     1.0  0.86950  0.01169  0.65340  1.0000
  H   H4578     1.0  0.97504  0.13113  0.66359  1.0000
  Fe  Fe564     1.0  0.99213  0.17827  0.70017  1.0000
  H   H4579     1.0  0.94798  0.02422  0.65420  1.0000
  S   S1136     1.0  0.94646  0.09973  0.65060  1.0000
  H   H4580     1.0  0.96708  0.13881  0.64752  1.0000
  C   C2855     1.0  0.94117  0.03346  0.64796  1.0000
  H   H4581     1.0  0.79294  0.98688  0.47947  1.0000
  S   S1137     1.0  0.95183  0.27444  0.55422  1.0000
  C   C2856     1.0  0.74542  0.00593  0.70806  1.0000
  C   C2857     1.0  0.67395  0.01163  0.66298  1.0000
  H   H4582     1.0  0.93819  0.23197  0.57694  1.0000
  S   S1138     1.0  0.95831  0.27253  0.59326  1.0000
  S   S1139     1.0  0.92305  0.28921  0.62159  1.0000
  H   H4583     1.0  0.96020  0.10724  0.72580  1.0000
  C   C2858     1.0  0.68356  0.06738  0.49663  1.0000
  N   N289      1.0  0.69210  0.07838  0.48660  1.0000
  Fe  Fe565     1.0  0.91292  0.26054  0.50154  1.0000
  S   S1140     1.0  0.90749  0.25828  0.52612  1.0000
  H   H4584     1.0  0.71106  0.02900  0.70857  1.0000
  S   S1141     1.0  0.91800  0.23899  0.49468  1.0000
  H   H4585     1.0  0.97545  0.17741  0.62200  1.0000
  C   C2859     1.0  0.97335  0.27051  0.62977  1.0000
  S   S1142     1.0  0.92667  0.26474  0.59325  1.0000
  Fe  Fe566     1.0  0.99255  0.16904  0.67241  1.0000
  H   H4586     1.0  0.95203  0.29634  0.60673  1.0000
  S   S1143     1.0  0.95905  0.24020  0.58768  1.0000
  H   H4587     1.0  0.86994  0.21421  0.48671  1.0000
  H   H4588     1.0  0.96264  0.24572  0.64145  1.0000
  C   C2860     1.0  0.66516  0.00183  0.71001  1.0000
  Fe  Fe567     1.0  0.93600  0.27145  0.60875  1.0000
  H   H4589     1.0  0.98567  0.17132  0.60535  1.0000
  H   H4590     1.0  0.98314  0.31144  0.67780  1.0000
  S   S1144     1.0  0.94313  0.24797  0.62064  1.0000
  H   H4591     1.0  0.94784  0.28186  0.52427  1.0000
  H   H4592     1.0  0.94515  0.16515  0.49561  1.0000
  C   C2861     1.0  0.97482  0.26831  0.65487  1.0000
  C   C2862     1.0  0.93953  0.27004  0.54629  1.0000
  C   C2863     1.0  0.92927  0.26144  0.55504  1.0000
  C   C2864     1.0  0.91933  0.25814  0.54876  1.0000
  C   C2865     1.0  0.91968  0.26329  0.53363  1.0000
  C   C2866     1.0  0.93003  0.27178  0.52476  1.0000
  C   C2867     1.0  0.93991  0.27520  0.53111  1.0000
  H   H4593     1.0  0.92898  0.25726  0.56666  1.0000
  H   H4594     1.0  0.91149  0.25140  0.55565  1.0000
  H   H4595     1.0  0.93035  0.27582  0.51306  1.0000
  H   H4596     1.0  0.89370  0.23087  0.54554  1.0000
  C   C2868     1.0  0.89569  0.22394  0.53738  1.0000
  H   H4597     1.0  0.82638  0.16581  0.50319  1.0000
  Fe  Fe568     1.0  0.96498  0.24865  0.60422  1.0000
  Fe  Fe569     1.0  0.93656  0.24121  0.60326  1.0000
  H   H4598     1.0  0.93398  0.19133  0.48505  1.0000
  Fe  Fe570     1.0  0.94958  0.26412  0.57854  1.0000
  C   C2869     1.0  0.67495  0.00236  0.71820  1.0000
  C   C2870     1.0  0.93405  0.16250  0.49730  1.0000
  H   H4599     1.0  0.89906  0.21215  0.54305  1.0000
  C   C2871     1.0  0.93301  0.30079  0.62442  1.0000
  H   H4600     1.0  0.84288  0.15835  0.52101  1.0000
  C   C2872     1.0  0.79156  0.01401  0.48265  1.0000
  C   C2873     1.0  0.66489  0.06751  0.62319  1.0000
  H   H4601     1.0  0.96709  0.29345  0.72716  1.0000
  H   H4602     1.0  0.94556  0.20791  0.51671  1.0000
  H   H4603     1.0  0.69543  0.09973  0.48607  1.0000
  S   S1145     1.0  0.89465  0.27121  0.48919  1.0000
  C   C2874     1.0  0.90753  0.30295  0.58514  1.0000
  S   S1146     1.0  0.88234  0.23932  0.48340  1.0000
  H   H4604     1.0  0.91681  0.19565  0.47894  1.0000
  H   H4605     1.0  0.96602  0.31211  0.61118  1.0000
  H   H4606     1.0  0.90975  0.00407  0.57914  1.0000
  H   H4607     1.0  0.87760  0.08338  0.50820  1.0000
  S   S1147     1.0  0.93064  0.26981  0.48335  1.0000
  H   H4608     1.0  0.88777  0.99193  0.60684  1.0000
  H   H4609     1.0  0.89567  0.30899  0.58556  1.0000
  C   C2875     1.0  0.99068  0.31631  0.69459  1.0000
  H   H4610     1.0  0.84611  0.98884  0.66067  1.0000
  C   C2876     1.0  0.70947  0.98825  0.64250  1.0000
  Fe  Fe571     1.0  0.98808  0.09127  0.63107  1.0000
  C   C2877     1.0  0.72756  0.99079  0.65454  1.0000
  H   H4611     1.0  0.72043  0.99535  0.71975  1.0000
  C   C2878     1.0  0.99095  0.20037  0.72368  1.0000
  H   H4612     1.0  0.71969  0.01956  0.72391  1.0000
  H   H4613     1.0  0.89644  0.09086  0.48523  1.0000
  H   H4614     1.0  0.66492  0.99129  0.70823  1.0000
  H   H4615     1.0  0.94160  0.31200  0.57469  1.0000
  H   H4616     1.0  0.83648  0.99211  0.68689  1.0000
  S   S1148     1.0  0.73431  0.98738  0.67055  1.0000
  Fe  Fe572     1.0  0.89176  0.98474  0.64399  1.0000
  H   H4617     1.0  0.89835  0.07393  0.47971  1.0000
  H   H4618     1.0  0.87550  0.06666  0.47857  1.0000
  C   C2879     1.0  0.89164  0.08549  0.47932  1.0000
  C   C2880     1.0  0.93489  0.31750  0.63849  1.0000
  C   C2881     1.0  0.99545  0.20011  0.64125  1.0000
  H   H4619     1.0  0.90436  0.98559  0.56880  1.0000
  H   H4620     1.0  0.79338  0.02549  0.47841  1.0000
  H   H4621     1.0  0.82056  0.98476  0.68840  1.0000
  H   H4622     1.0  0.83188  0.29974  0.91807  1.0000
  C   C2882     1.0  0.67902  0.99385  0.81028  1.0000
  H   H4623     1.0  0.71083  0.18344  0.90740  1.0000
  Fe  Fe573     1.0  0.68719  0.01335  0.89187  1.0000
  N   N290      1.0  0.66931  0.05405  0.82468  1.0000
  S   S1149     1.0  0.69909  0.02733  0.89794  1.0000
  H   H4624     1.0  0.72413  0.13489  0.91003  1.0000
  S   S1150     1.0  0.67667  0.02711  0.87297  1.0000
  S   S1151     1.0  0.81388  0.26594  0.97271  1.0000
  S   S1152     1.0  0.69931  0.99466  0.88019  1.0000
  S   S1153     1.0  0.71375  0.22959  0.96758  1.0000
  Fe  Fe574     1.0  0.68716  0.00785  0.86222  1.0000
  C   C2883     1.0  0.71803  0.13876  0.92001  1.0000
  C   C2884     1.0  0.69357  0.99630  0.80524  1.0000
  H   H4625     1.0  0.68065  0.19379  0.84863  1.0000
  H   H4626     1.0  0.79493  0.20740  0.97707  1.0000
  H   H4627     1.0  0.86054  0.29231  0.93606  1.0000
  C   C2885     1.0  0.69583  0.03199  0.91513  1.0000
  C   C2886     1.0  0.70081  0.04428  0.91541  1.0000
  C   C2887     1.0  0.69833  0.04871  0.92869  1.0000
  C   C2888     1.0  0.69125  0.04060  0.94193  1.0000
  C   C2889     1.0  0.68648  0.02809  0.94177  1.0000
  C   C2890     1.0  0.68853  0.02393  0.92832  1.0000
  H   H4628     1.0  0.70663  0.05043  0.90526  1.0000
  H   H4629     1.0  0.70233  0.05816  0.92874  1.0000
  H   H4630     1.0  0.79150  0.30532  0.91923  1.0000
  H   H4631     1.0  0.68480  0.01433  0.92820  1.0000
  C   C2891     1.0  0.66517  0.21745  0.87205  1.0000
  C   C2892     1.0  0.66778  0.04632  0.81411  1.0000
  C   C2893     1.0  0.94708  0.30265  0.75035  1.0000
  C   C2894     1.0  0.69938  0.00221  0.81364  1.0000
  H   H4632     1.0  0.90383  0.26483  0.94265  1.0000
  H   H4633     1.0  0.96960  0.30449  0.81687  1.0000
  H   H4634     1.0  0.69898  0.20089  0.92436  1.0000
  C   C2895     1.0  0.67197  0.29072  0.90105  1.0000
  S   S1154     1.0  0.86142  0.31199  0.97743  1.0000
  Fe  Fe575     1.0  0.70854  0.20734  0.97030  1.0000
  H   H4635     1.0  0.87173  0.26492  0.97241  1.0000
  H   H4636     1.0  0.73987  0.21089  0.95312  1.0000
  Fe  Fe576     1.0  0.67846  0.98557  0.89061  1.0000
  S   S1155     1.0  0.90017  0.24372  0.97377  1.0000
  H   H4637     1.0  0.92563  0.25843  0.95454  1.0000
  C   C2896     1.0  0.76260  0.31518  0.94170  1.0000
  H   H4638     1.0  0.76147  0.28742  0.97255  1.0000
  H   H4639     1.0  0.93830  0.29628  0.75249  1.0000
  S   S1156     1.0  0.70411  0.99225  0.76420  1.0000
  H   H4640     1.0  0.66870  0.28479  0.89489  1.0000
  H   H4641     1.0  0.68074  0.12284  0.88903  1.0000
  S   S1157     1.0  0.72470  0.18558  0.96839  1.0000
  H   H4642     1.0  0.97387  0.31012  0.73857  1.0000
  H   H4643     1.0  0.72919  0.15674  0.91468  1.0000
  H   H4644     1.0  0.81522  0.30441  0.95176  1.0000
  Fe  Fe577     1.0  0.70824  0.18142  0.95807  1.0000
  C   C2897     1.0  0.66474  0.04562  0.83990  1.0000
  S   S1158     1.0  0.71658  0.17282  0.93719  1.0000
  C   C2898     1.0  0.74353  0.21859  0.95689  1.0000
  C   C2899     1.0  0.68511  0.05502  0.82195  1.0000
  H   H4645     1.0  0.66629  0.20895  0.90698  1.0000
  H   H4646     1.0  0.68761  0.22131  0.89826  1.0000
  H   H4647     1.0  0.75694  0.24675  0.96947  1.0000
  H   H4648     1.0  0.82395  0.28949  0.91045  1.0000
  H   H4649     1.0  0.68509  0.23881  0.95471  1.0000
  S   S1159     1.0  0.71790  0.31740  0.95237  1.0000
  H   H4650     1.0  0.95947  0.29373  0.85112  1.0000
  H   H4651     1.0  0.97799  0.27794  0.73755  1.0000
  C   C2900     1.0  0.92933  0.27332  0.92640  1.0000
  C   C2901     1.0  0.67013  0.99777  0.82342  1.0000
  C   C2902     1.0  0.69069  0.00553  0.82711  1.0000
  S   S1160     1.0  0.69341  0.20420  0.95785  1.0000
  H   H4652     1.0  0.69323  0.13062  0.89408  1.0000
  C   C2903     1.0  0.73302  0.22878  0.96452  1.0000
  S   S1161     1.0  0.89788  0.28602  0.96303  1.0000
  C   C2904     1.0  0.68240  0.12697  0.89800  1.0000
  Fe  Fe578     1.0  0.68292  0.07115  0.95511  1.0000
  H   H4653     1.0  0.69628  0.15305  0.95561  1.0000
  C   C2905     1.0  0.71314  0.15637  0.93546  1.0000
  H   H4654     1.0  0.67506  0.03495  0.81518  1.0000
  S   S1162     1.0  0.68081  0.08669  0.93334  1.0000
  S   S1163     1.0  0.66735  0.99742  0.87172  1.0000
  S   S1164     1.0  0.68819  0.04624  0.95860  1.0000
  N   N291      1.0  0.68911  0.19809  0.90813  1.0000
  H   H4655     1.0  0.85052  0.26544  0.96167  1.0000
  H   H4656     1.0  0.94391  0.25066  0.94482  1.0000
  Fe  Fe579     1.0  0.68833  0.10245  0.94162  1.0000
  H   H4657     1.0  0.68551  0.21480  0.85529  1.0000
  S   S1165     1.0  0.69296  0.08586  0.96232  1.0000
  C   C2906     1.0  0.72090  0.15114  0.92266  1.0000
  H   H4658     1.0  0.69542  0.17433  0.91441  1.0000
  H   H4659     1.0  0.95320  0.27475  0.76613  1.0000
  H   H4660     1.0  0.69131  0.13073  0.95098  1.0000
  C   C2907     1.0  0.99200  0.24985  0.82128  1.0000
  Fe  Fe580     1.0  0.79275  0.24311  0.96118  1.0000
  C   C2908     1.0  0.69490  0.21031  0.89683  1.0000
  H   H4661     1.0  0.73432  0.29521  0.97262  1.0000
  H   H4662     1.0  0.70074  0.18194  0.89490  1.0000
  H   H4663     1.0  0.68147  0.25354  0.96399  1.0000
  C   C2909     1.0  0.69961  0.13639  0.94312  1.0000
  S   S1166     1.0  0.70411  0.11616  0.92566  1.0000
  C   C2910     1.0  0.70246  0.14897  0.94577  1.0000
  H   H4664     1.0  0.68106  0.02173  0.95200  1.0000
  C   C2911     1.0  0.69946  0.18381  0.90610  1.0000
  C   C2912     1.0  0.70742  0.13132  0.93016  1.0000
  C   C2913     1.0  0.96662  0.28527  0.73797  1.0000
  C   C2914     1.0  0.67547  0.21069  0.86107  1.0000
  C   C2915     1.0  0.82117  0.31766  0.89469  1.0000
  H   H4665     1.0  0.93770  0.31640  0.81539  1.0000
  C   C2916     1.0  0.96519  0.26761  0.94052  1.0000
  S   S1167     1.0  0.81188  0.23231  0.97258  1.0000
  H   H4666     1.0  0.97031  0.31214  0.83153  1.0000
  H   H4667     1.0  0.68335  0.14872  0.90979  1.0000
  H   H4668     1.0  0.70639  0.21040  0.89739  1.0000
  H   H4669     1.0  0.66433  0.22900  0.95353  1.0000
  C   C2917     1.0  0.75759  0.29622  0.96382  1.0000
  N   N292      1.0  0.66978  0.13911  0.90225  1.0000
  H   H4670     1.0  0.95874  0.27834  0.73874  1.0000
  H   H4671     1.0  0.71528  0.26937  0.95898  1.0000
  H   H4672     1.0  0.94941  0.30854  0.92301  1.0000
  C   C2918     1.0  0.74220  0.30069  0.96391  1.0000
  C   C2919     1.0  0.96140  0.28161  0.76459  1.0000
  H   H4673     1.0  0.73761  0.29598  0.93283  1.0000
  C   C2920     1.0  0.99339  0.25425  0.80588  1.0000
  H   H4674     1.0  0.73427  0.27011  0.95786  1.0000
  C   C2921     1.0  0.73148  0.26263  0.93360  1.0000
  H   H4675     1.0  0.73386  0.26344  0.92147  1.0000
  H   H4676     1.0  0.75048  0.27834  0.93424  1.0000
  H   H4677     1.0  0.71076  0.00380  0.80990  1.0000
  S   S1168     1.0  0.68787  0.01653  0.73050  1.0000
  S   S1169     1.0  0.93179  0.30183  0.95243  1.0000
  H   H4678     1.0  0.67542  0.06480  0.90759  1.0000
  H   H4679     1.0  0.69268  0.04378  0.82331  1.0000
  H   H4680     1.0  0.98909  0.28317  0.82874  1.0000
  H   H4681     1.0  0.97009  0.30733  0.75831  1.0000
  H   H4682     1.0  0.92534  0.27875  0.91598  1.0000
  H   H4683     1.0  0.68368  0.30383  0.88156  1.0000
  H   H4684     1.0  0.70437  0.28117  0.93610  1.0000
  H   H4685     1.0  0.72010  0.28681  0.95637  1.0000
  C   C2922     1.0  0.72412  0.27583  0.95329  1.0000
  N   N293      1.0  0.72748  0.27746  0.93709  1.0000
  H   H4686     1.0  0.74290  0.28655  0.91794  1.0000
  S   S1170     1.0  0.67187  0.98518  0.80092  1.0000
  C   C2923     1.0  0.74019  0.28487  0.93020  1.0000
  H   H4687     1.0  0.89526  0.22389  0.95946  1.0000
  H   H4688     1.0  0.71631  0.28830  0.91904  1.0000
  H   H4689     1.0  0.67098  0.05243  0.80248  1.0000
  C   C2924     1.0  0.71414  0.28651  0.93130  1.0000
  H   H4690     1.0  0.71073  0.29770  0.93399  1.0000
  H   H4691     1.0  0.72228  0.25653  0.93891  1.0000
  C   C2925     1.0  0.73705  0.31224  0.95272  1.0000
  H   H4692     1.0  0.67479  0.19555  0.89575  1.0000
  C   C2926     1.0  0.82112  0.29824  0.91688  1.0000
  H   H4693     1.0  0.70050  0.99331  0.79510  1.0000
  N   N294      1.0  0.96206  0.29277  0.75048  1.0000
  S   S1171     1.0  0.99347  0.27529  0.77977  1.0000
  C   C2927     1.0  0.76371  0.22883  0.95808  1.0000
  S   S1172     1.0  0.78303  0.22823  0.95387  1.0000
  C   C2928     1.0  0.86012  0.30206  0.93980  1.0000
  H   H4694     1.0  0.98452  0.29433  0.74920  1.0000
  H   H4695     1.0  0.76687  0.21078  0.94763  1.0000
  C   C2929     1.0  0.99041  0.26026  0.82960  1.0000
  C   C2930     1.0  0.87380  0.23341  0.95371  1.0000
  H   H4696     1.0  0.87457  0.22471  0.94826  1.0000
  H   H4697     1.0  0.66271  0.07591  0.81149  1.0000
  C   C2931     1.0  0.75882  0.21862  0.95368  1.0000
  C   C2932     1.0  0.94052  0.30578  0.82341  1.0000
  H   H4698     1.0  0.92894  0.31592  0.84810  1.0000
  H   H4699     1.0  0.78418  0.19639  0.97406  1.0000
  C   C2933     1.0  0.88553  0.23298  0.95999  1.0000
  Fe  Fe581     1.0  0.69276  0.99449  0.74604  1.0000
  C   C2934     1.0  0.67593  0.00367  0.83178  1.0000
  Fe  Fe582     1.0  0.98634  0.30002  0.86714  1.0000
  H   H4700     1.0  0.94805  0.24859  0.91915  1.0000
  S   S1173     1.0  0.66930  0.23209  0.87669  1.0000
  H   H4701     1.0  0.95969  0.28414  0.83755  1.0000
  H   H4702     1.0  0.94701  0.29723  0.81693  1.0000
  H   H4703     1.0  0.92335  0.28035  0.93460  1.0000
  H   H4704     1.0  0.68369  0.11737  0.90755  1.0000
  H   H4705     1.0  0.94381  0.30947  0.75883  1.0000
  C   C2935     1.0  0.73790  0.23885  0.96917  1.0000
  C   C2936     1.0  0.86108  0.24498  0.95443  1.0000
  S   S1174     1.0  0.69848  0.01180  0.83803  1.0000
  C   C2937     1.0  0.86020  0.25631  0.96135  1.0000
  H   H4706     1.0  0.93252  0.25344  0.91033  1.0000
  H   H4707     1.0  0.66524  0.19941  0.95714  1.0000
  H   H4708     1.0  0.81478  0.29386  0.92813  1.0000
  C   C2938     1.0  0.87222  0.25610  0.96729  1.0000
  S   S1175     1.0  0.99299  0.24956  0.75417  1.0000
  C   C2939     1.0  0.67415  0.19799  0.90655  1.0000
  N   N295      1.0  0.81236  0.31230  0.90956  1.0000
  C   C2940     1.0  0.91086  0.25825  0.93434  1.0000
  C   C2941     1.0  0.75324  0.23893  0.96592  1.0000
  H   H4709     1.0  0.94806  0.27131  0.96005  1.0000
  H   H4710     1.0  0.92948  0.24024  0.95113  1.0000
  C   C2942     1.0  0.99285  0.26915  0.79881  1.0000
  C   C2943     1.0  0.67274  0.19877  0.85732  1.0000
  H   H4711     1.0  0.97061  0.29333  0.90828  1.0000
  C   C2944     1.0  0.88488  0.24439  0.96660  1.0000
  C   C2945     1.0  0.93172  0.25156  0.94623  1.0000
  H   H4712     1.0  0.68897  0.06132  0.81055  1.0000
  S   S1176     1.0  0.97529  0.28068  0.87734  1.0000
  Fe  Fe583     1.0  0.91597  0.29004  0.97102  1.0000
  H   H4713     1.0  0.66566  0.05110  0.84824  1.0000
  C   C2946     1.0  0.94720  0.29089  0.94249  1.0000
  H   H4714     1.0  0.97246  0.27394  0.76508  1.0000
  C   C2947     1.0  0.76778  0.30352  0.95273  1.0000
  S   S1177     1.0  0.84717  0.24547  0.94547  1.0000
  S   S1178     1.0  0.80501  0.25970  0.94465  1.0000
  H   H4715     1.0  0.82396  0.30949  0.88761  1.0000
  H   H4716     1.0  0.90834  0.31483  0.93507  1.0000
  H   H4717     1.0  0.74163  0.25561  0.93765  1.0000
  H   H4718     1.0  0.94142  0.27344  0.92396  1.0000
  Fe  Fe584     1.0  0.82311  0.25030  0.95747  1.0000
  H   H4719     1.0  0.99111  0.29104  0.80159  1.0000
  C   C2948     1.0  0.97153  0.27373  0.92587  1.0000
  C   C2949     1.0  0.95292  0.27611  0.94877  1.0000
  C   C2950     1.0  0.95374  0.29709  0.92792  1.0000
  H   H4720     1.0  0.68411  0.31209  0.92288  1.0000
  C   C2951     1.0  0.96576  0.28849  0.91957  1.0000
  H   H4721     1.0  0.90868  0.24686  0.93854  1.0000
  C   C2952     1.0  0.93585  0.24893  0.92118  1.0000
  H   H4722     1.0  0.94681  0.31042  0.73946  1.0000
  C   C2953     1.0  0.86171  0.30067  0.95420  1.0000
  H   H4723     1.0  0.67979  0.21062  0.92512  1.0000
  N   N296      1.0  0.92693  0.25802  0.93204  1.0000
  H   H4724     1.0  0.68670  0.06065  0.82985  1.0000
  H   H4725     1.0  0.93439  0.23727  0.92513  1.0000
  C   C2954     1.0  0.86032  0.31334  0.95932  1.0000
  S   S1179     1.0  0.98640  0.26266  0.91554  1.0000
  H   H4726     1.0  0.96970  0.25623  0.94548  1.0000
  Fe  Fe585     1.0  0.79465  0.27393  0.96127  1.0000
  H   H4727     1.0  0.86347  0.28986  0.96150  1.0000
  N   N297      1.0  0.94907  0.30734  0.83331  1.0000
  C   C2955     1.0  0.85766  0.31612  0.93041  1.0000
  C   C2956     1.0  0.95286  0.29295  0.84360  1.0000
  H   H4728     1.0  0.94260  0.28916  0.85061  1.0000
  H   H4729     1.0  0.68434  0.19082  0.93184  1.0000
  H   H4730     1.0  0.66887  0.29320  0.93627  1.0000
  H   H4731     1.0  0.98935  0.22597  0.74268  1.0000
  H   H4732     1.0  0.95825  0.28695  0.77420  1.0000
  H   H4733     1.0  0.72981  0.24652  0.97537  1.0000
  H   H4734     1.0  0.69538  0.20938  0.88544  1.0000
  C   C2957     1.0  0.68796  0.20023  0.92301  1.0000
  Fe  Fe586     1.0  0.66912  0.09577  0.97197  1.0000
  S   S1180     1.0  0.78075  0.25813  0.97688  1.0000
  S   S1181     1.0  0.78704  0.29830  0.95242  1.0000
  C   C2958     1.0  0.97312  0.30152  0.74905  1.0000
  C   C2959     1.0  0.96301  0.31202  0.82439  1.0000
  H   H4735     1.0  0.90675  0.26314  0.92393  1.0000
  C   C2960     1.0  0.67672  0.24890  0.95742  1.0000
  H   H4736     1.0  0.66889  0.00690  0.84174  1.0000
  C   C2961     1.0  0.82155  0.30996  0.95585  1.0000
  C   C2962     1.0  0.68489  0.30925  0.90133  1.0000
  C   C2963     1.0  0.68048  0.30149  0.89351  1.0000
  S   S1182     1.0  0.98865  0.25448  0.84886  1.0000
  C   C2964     1.0  0.68084  0.30608  0.91679  1.0000
  S   S1183     1.0  0.66721  0.00328  0.90393  1.0000
  C   C2965     1.0  0.79822  0.30977  0.90822  1.0000
  H   H4737     1.0  0.67177  0.03418  0.84169  1.0000
  H   H4738     1.0  0.66345  0.15374  0.91727  1.0000
  H   H4739     1.0  0.99450  0.24619  0.79954  1.0000
  Fe  Fe587     1.0  0.99291  0.26965  0.86055  1.0000
  C   C2966     1.0  0.66765  0.28778  0.91647  1.0000
  H   H4740     1.0  0.66762  0.04246  0.90702  1.0000
  H   H4741     1.0  0.67831  0.15592  0.88434  1.0000
  H   H4742     1.0  0.66814  0.02856  0.75447  1.0000
  C   C2967     1.0  0.67278  0.14461  0.91375  1.0000
  C   C2968     1.0  0.67222  0.29539  0.92433  1.0000
  H   H4743     1.0  0.92971  0.30268  0.82971  1.0000
  S   S1184     1.0  0.66514  0.11334  0.95164  1.0000
  H   H4744     1.0  0.66906  0.18948  0.91545  1.0000
  H   H4745     1.0  0.66728  0.03437  0.77809  1.0000
  H   H4746     1.0  0.80036  0.30164  0.90124  1.0000
  H   H4747     1.0  0.67576  0.25713  0.94681  1.0000
  H   H4748     1.0  0.67411  0.13563  0.92378  1.0000
  H   H4749     1.0  0.99212  0.23836  0.82677  1.0000
  H   H4750     1.0  0.83047  0.30116  0.96049  1.0000
  C   C2969     1.0  0.99252  0.21547  0.73942  1.0000
  C   C2970     1.0  0.99133  0.27953  0.80711  1.0000
  C   C2971     1.0  0.99028  0.27508  0.82245  1.0000
  Fe  Fe588     1.0  0.99237  0.27310  0.89127  1.0000
  H   H4751     1.0  0.79736  0.30251  0.97615  1.0000
  C   C2972     1.0  0.66804  0.15135  0.88915  1.0000
  H   H4752     1.0  0.66573  0.14763  0.88023  1.0000
  S   S1185     1.0  0.67351  0.98525  0.76115  1.0000
  H   H4753     1.0  0.82938  0.31673  0.97747  1.0000
  H   H4754     1.0  0.82717  0.31744  0.94615  1.0000
  H   H4755     1.0  0.67188  0.22403  0.97748  1.0000
  H   H4756     1.0  0.66472  0.07592  0.89415  1.0000
  C   C2973     1.0  0.66408  0.07144  0.90620  1.0000
  H   H4757     1.0  0.66333  0.04999  0.93076  1.0000
  C   C2974     1.0  0.98686  0.21389  0.72814  1.0000
  H   H4758     1.0  0.66373  0.01006  0.77802  1.0000
  H   H4759     1.0  0.72995  0.13092  0.97799  1.0000
  C   C2975     1.0  0.72610  0.32976  0.11249  1.0000
  H   H4760     1.0  0.74942  0.44956  0.16505  1.0000
  C   C2976     1.0  0.74922  0.43770  0.16667  1.0000
  S   S1186     1.0  0.70265  0.47049  0.17245  1.0000
  H   H4761     1.0  0.69947  0.53389  0.15103  1.0000
  N   N298      1.0  0.72318  0.39781  0.11707  1.0000
  S   S1187     1.0  0.71218  0.43670  0.15499  1.0000
  S   S1188     1.0  0.67401  0.39497  0.14919  1.0000
  S   S1189     1.0  0.73964  0.47702  0.17485  1.0000
  C   C2977     1.0  0.71005  0.39184  0.11838  1.0000
  Fe  Fe589     1.0  0.71369  0.35165  0.13612  1.0000
  S   S1190     1.0  0.70849  0.33066  0.15132  1.0000
  H   H4762     1.0  0.70389  0.39798  0.10947  1.0000
  Fe  Fe590     1.0  0.68591  0.37077  0.15092  1.0000
  S   S1191     1.0  0.67789  0.35118  0.16733  1.0000
  C   C2978     1.0  0.94945  0.53466  0.98422  1.0000
  Fe  Fe591     1.0  0.70198  0.34318  0.16919  1.0000
  S   S1192     1.0  0.70798  0.33129  0.19103  1.0000
  Fe  Fe592     1.0  0.68490  0.34004  0.14805  1.0000
  H   H4763     1.0  0.68319  0.61106  0.98623  1.0000
  S   S1193     1.0  0.70945  0.36339  0.15431  1.0000
  S   S1194     1.0  0.69078  0.36034  0.13136  1.0000
  C   C2979     1.0  0.72397  0.33413  0.19471  1.0000
  C   C2980     1.0  0.71879  0.59101  0.97996  1.0000
  C   C2981     1.0  0.73405  0.34185  0.18386  1.0000
  H   H4764     1.0  0.68362  0.52375  0.14137  1.0000
  H   H4765     1.0  0.73210  0.34630  0.17281  1.0000
  C   C2982     1.0  0.70004  0.42590  0.15479  1.0000
  C   C2983     1.0  0.68772  0.43184  0.14813  1.0000
  C   C2984     1.0  0.67945  0.42235  0.14683  1.0000
  C   C2985     1.0  0.68340  0.40694  0.15227  1.0000
  C   C2986     1.0  0.69531  0.40120  0.15948  1.0000
  C   C2987     1.0  0.70369  0.41059  0.16057  1.0000
  H   H4766     1.0  0.68481  0.44365  0.14364  1.0000
  N   N299      1.0  0.68689  0.54607  0.13442  1.0000
  H   H4767     1.0  0.69801  0.38952  0.16436  1.0000
  H   H4768     1.0  0.71307  0.40593  0.16591  1.0000
  H   H4769     1.0  0.73907  0.41014  0.19559  1.0000
  Fe  Fe593     1.0  0.70711  0.46171  0.15202  1.0000
  N   N300      1.0  0.74333  0.43120  0.18234  1.0000
  H   H4770     1.0  0.76091  0.43174  0.16268  1.0000
  H   H4771     1.0  0.71338  0.37995  0.11777  1.0000
  C   C2988     1.0  0.73047  0.38976  0.12959  1.0000
  H   H4772     1.0  0.72036  0.43903  0.18041  1.0000
  S   S1195     1.0  0.90889  0.33473  0.22147  1.0000
  H   H4773     1.0  0.73785  0.38386  0.10259  1.0000
  H   H4774     1.0  0.73604  0.41443  0.17713  1.0000
  C   C2989     1.0  0.73730  0.33768  0.10946  1.0000
  S   S1196     1.0  0.72803  0.47055  0.14126  1.0000
  S   S1197     1.0  0.73473  0.35200  0.11847  1.0000
  N   N301      1.0  0.86237  0.32083  0.16229  1.0000
  C   C2990     1.0  0.74330  0.41548  0.18390  1.0000
  H   H4775     1.0  0.73417  0.37766  0.12984  1.0000
  H   H4776     1.0  0.70988  0.41552  0.12771  1.0000
  H   H4777     1.0  0.71538  0.33304  0.11965  1.0000
  C   C2991     1.0  0.71823  0.41375  0.11734  1.0000
  H   H4778     1.0  0.72267  0.39107  0.14036  1.0000
  H   H4779     1.0  0.85085  0.39458  0.22166  1.0000
  H   H4780     1.0  0.74400  0.40023  0.10162  1.0000
  H   H4781     1.0  0.70195  0.39262  0.12909  1.0000
  H   H4782     1.0  0.74220  0.43717  0.15941  1.0000
  Fe  Fe594     1.0  0.87054  0.53679  0.98611  1.0000
  H   H4783     1.0  0.75479  0.40900  0.18015  1.0000
  H   H4784     1.0  0.74047  0.39393  0.12893  1.0000
  C   C2992     1.0  0.73394  0.39584  0.10302  1.0000
  H   H4785     1.0  0.72876  0.40165  0.09335  1.0000
  H   H4786     1.0  0.71279  0.42023  0.10799  1.0000
  H   H4787     1.0  0.72775  0.41861  0.11676  1.0000
  S   S1198     1.0  0.74374  0.54175  0.98383  1.0000
  C   C2993     1.0  0.72787  0.43937  0.18725  1.0000
  H   H4788     1.0  0.73713  0.50115  0.12907  1.0000
  C   C2994     1.0  0.75362  0.32126  0.09372  1.0000
  H   H4789     1.0  0.79082  0.49255  0.02549  1.0000
  C   C2995     1.0  0.88120  0.48663  0.21714  1.0000
  H   H4790     1.0  0.73133  0.60864  0.99657  1.0000
  H   H4791     1.0  0.75880  0.50513  0.04720  1.0000
  H   H4792     1.0  0.77058  0.51465  0.15500  1.0000
  H   H4793     1.0  0.94441  0.35289  0.14832  1.0000
  H   H4794     1.0  0.70070  0.61129  0.01731  1.0000
  C   C2996     1.0  0.74113  0.63386  0.07086  1.0000
  C   C2997     1.0  0.73549  0.60418  0.02393  1.0000
  C   C2998     1.0  0.73209  0.63042  0.06367  1.0000
  C   C2999     1.0  0.73716  0.61780  0.05755  1.0000
  H   H4795     1.0  0.74971  0.32634  0.14102  1.0000
  H   H4796     1.0  0.73002  0.61508  0.05227  1.0000
  N   N302      1.0  0.84695  0.48765  0.11437  1.0000
  H   H4797     1.0  0.66313  0.55414  0.14142  1.0000
  H   H4798     1.0  0.70276  0.59645  0.99939  1.0000
  H   H4799     1.0  0.92789  0.50952  0.19146  1.0000
  H   H4800     1.0  0.77203  0.49276  0.05766  1.0000
  S   S1199     1.0  0.67671  0.32185  0.14379  1.0000
  H   H4801     1.0  0.93420  0.34329  0.18920  1.0000
  C   C3000     1.0  0.68001  0.64425  0.04563  1.0000
  C   C3001     1.0  0.67790  0.63204  0.04179  1.0000
  C   C3002     1.0  0.67148  0.63427  0.02972  1.0000
  H   H4802     1.0  0.76412  0.31825  0.08627  1.0000
  H   H4803     1.0  0.73245  0.59960  0.03604  1.0000
  C   C3003     1.0  0.84954  0.34613  0.21439  1.0000
  S   S1200     1.0  0.69183  0.48171  0.14090  1.0000
  H   H4804     1.0  0.92833  0.49114  0.21554  1.0000
  H   H4805     1.0  0.74075  0.59454  0.01858  1.0000
  H   H4806     1.0  0.67234  0.54312  0.15602  1.0000
  S   S1201     1.0  0.90682  0.50624  0.98239  1.0000
  Fe  Fe595     1.0  0.71245  0.49118  0.13221  1.0000
  H   H4807     1.0  0.68102  0.62095  0.04827  1.0000
  H   H4808     1.0  0.72189  0.53516  0.09345  1.0000
  H   H4809     1.0  0.95446  0.54394  0.98388  1.0000
  H   H4810     1.0  0.87550  0.32785  0.14061  1.0000
  C   C3004     1.0  0.93755  0.31882  0.21605  1.0000
  H   H4811     1.0  0.79266  0.51106  0.13453  1.0000
  H   H4812     1.0  0.71686  0.62514  0.99711  1.0000
  H   H4813     1.0  0.73834  0.55035  0.09510  1.0000
  C   C3005     1.0  0.70496  0.59775  0.98757  1.0000
  H   H4814     1.0  0.81347  0.49345  0.00501  1.0000
  C   C3006     1.0  0.71063  0.60482  0.02202  1.0000
  C   C3007     1.0  0.73807  0.53960  0.10249  1.0000
  H   H4815     1.0  0.74427  0.61051  0.02204  1.0000
  C   C3008     1.0  0.85372  0.48901  0.21015  1.0000
  H   H4816     1.0  0.94863  0.52065  0.01275  1.0000
  H   H4817     1.0  0.71229  0.62357  0.03694  1.0000
  H   H4818     1.0  0.86631  0.32565  0.18114  1.0000
  C   C3009     1.0  0.72664  0.61833  0.00189  1.0000
  N   N303      1.0  0.93243  0.51309  0.21063  1.0000
  S   S1202     1.0  0.71736  0.50601  0.10978  1.0000
  C   C3010     1.0  0.69371  0.60598  0.98006  1.0000
  C   C3011     1.0  0.71625  0.62673  0.02473  1.0000
  H   H4819     1.0  0.79871  0.51655  0.99199  1.0000
  C   C3012     1.0  0.75528  0.62467  0.07182  1.0000
  S   S1203     1.0  0.70913  0.50171  0.15117  1.0000
  H   H4820     1.0  0.70653  0.63421  0.02022  1.0000
  C   C3013     1.0  0.72843  0.51713  0.11116  1.0000
  N   N304      1.0  0.72226  0.61353  0.01815  1.0000
  S   S1204     1.0  0.88052  0.37252  0.22731  1.0000
  H   H4821     1.0  0.74090  0.32598  0.22363  1.0000
  C   C3014     1.0  0.72879  0.53101  0.10156  1.0000
  Fe  Fe596     1.0  0.68928  0.49125  0.16051  1.0000
  H   H4822     1.0  0.71504  0.59445  0.01775  1.0000
  H   H4823     1.0  0.76137  0.31926  0.12532  1.0000
  H   H4824     1.0  0.70658  0.60154  0.03420  1.0000
  N   N305      1.0  0.75239  0.50444  0.07052  1.0000
  C   C3015     1.0  0.73712  0.51198  0.12182  1.0000
  H   H4825     1.0  0.79283  0.33315  0.21617  1.0000
  H   H4826     1.0  0.69139  0.55926  0.98712  1.0000
  H   H4827     1.0  0.84838  0.33754  0.14907  1.0000
  H   H4828     1.0  0.91437  0.54737  0.00314  1.0000
  C   C3016     1.0  0.70050  0.54232  0.14041  1.0000
  Fe  Fe597     1.0  0.72285  0.48021  0.16109  1.0000
  N   N306      1.0  0.77307  0.32650  0.13715  1.0000
  S   S1205     1.0  0.82953  0.45021  0.17101  1.0000
  C   C3017     1.0  0.92827  0.33229  0.21877  1.0000
  S   S1206     1.0  0.84391  0.45193  0.19759  1.0000
  Fe  Fe598     1.0  0.85055  0.45459  0.17302  1.0000
  Fe  Fe599     1.0  0.82204  0.44956  0.19522  1.0000
  S   S1207     1.0  0.81195  0.43053  0.20957  1.0000
  C   C3018     1.0  0.92984  0.52123  0.99629  1.0000
  S   S1208     1.0  0.81151  0.47380  0.19263  1.0000
  H   H4829     1.0  0.81417  0.49669  0.97873  1.0000
  C   C3019     1.0  0.74668  0.34383  0.18740  1.0000
  H   H4830     1.0  0.95961  0.32025  0.12331  1.0000
  C   C3020     1.0  0.95864  0.48607  0.14248  1.0000
  Fe  Fe600     1.0  0.79263  0.37960  0.17379  1.0000
  S   S1209     1.0  0.79257  0.36521  0.19643  1.0000
  S   S1210     1.0  0.78699  0.40453  0.17015  1.0000
  Fe  Fe601     1.0  0.80242  0.35338  0.15933  1.0000
  S   S1211     1.0  0.80356  0.33689  0.18079  1.0000
  S   S1212     1.0  0.80807  0.34345  0.13949  1.0000
  Fe  Fe602     1.0  0.78172  0.35122  0.18949  1.0000
  Fe  Fe603     1.0  0.81437  0.35229  0.18573  1.0000
  S   S1213     1.0  0.83505  0.34274  0.19519  1.0000
  S   S1214     1.0  0.77965  0.36677  0.16764  1.0000
  S   S1215     1.0  0.81529  0.36757  0.16340  1.0000
  S   S1216     1.0  0.87658  0.34075  0.11029  1.0000
  H   H4831     1.0  0.94034  0.53262  0.20875  1.0000
  C   C3021     1.0  0.82494  0.36207  0.21402  1.0000
  C   C3022     1.0  0.76371  0.48427  0.15224  1.0000
  H   H4832     1.0  0.76426  0.46971  0.18853  1.0000
  H   H4833     1.0  0.73534  0.62501  0.99859  1.0000
  H   H4834     1.0  0.87435  0.39971  0.20382  1.0000
  C   C3023     1.0  0.82681  0.34314  0.13028  1.0000
  C   C3024     1.0  0.83289  0.35550  0.12780  1.0000
  C   C3025     1.0  0.84810  0.35488  0.12112  1.0000
  C   C3026     1.0  0.85730  0.34183  0.11711  1.0000
  C   C3027     1.0  0.83653  0.55490  0.98042  1.0000
  C   C3028     1.0  0.83592  0.33023  0.12590  1.0000
  H   H4835     1.0  0.82587  0.36557  0.13100  1.0000
  H   H4836     1.0  0.85281  0.36442  0.11933  1.0000
  H   H4837     1.0  0.87932  0.43526  0.22620  1.0000
  S   S1217     1.0  0.73260  0.58118  0.99004  1.0000
  H   H4838     1.0  0.75952  0.33990  0.09713  1.0000
  H   H4839     1.0  0.78849  0.31807  0.11879  1.0000
  H   H4840     1.0  0.93325  0.35801  0.17314  1.0000
  H   H4841     1.0  0.74858  0.42788  0.20347  1.0000
  H   H4842     1.0  0.96930  0.33173  0.16265  1.0000
  C   C3029     1.0  0.95083  0.46634  0.13764  1.0000
  H   H4843     1.0  0.75624  0.48756  0.14472  1.0000
  C   C3030     1.0  0.83658  0.35100  0.20867  1.0000
  H   H4844     1.0  0.75994  0.34880  0.13332  1.0000
  H   H4845     1.0  0.79714  0.32266  0.13070  1.0000
  Fe  Fe604     1.0  0.99143  0.52154  0.16025  1.0000
  C   C3031     1.0  0.87641  0.32451  0.15239  1.0000
  C   C3032     1.0  0.95948  0.32855  0.21255  1.0000
  C   C3033     1.0  0.95019  0.34185  0.21584  1.0000
  H   H4846     1.0  0.83910  0.33157  0.16783  1.0000
  C   C3034     1.0  0.67367  0.55156  0.14542  1.0000
  H   H4847     1.0  0.76192  0.53112  0.14355  1.0000
  H   H4848     1.0  0.98220  0.50007  0.21425  1.0000
  C   C3035     1.0  0.80443  0.42350  0.19896  1.0000
  C   C3036     1.0  0.79959  0.43261  0.18634  1.0000
  C   C3037     1.0  0.79442  0.42669  0.17745  1.0000
  C   C3038     1.0  0.79420  0.41158  0.18106  1.0000
  C   C3039     1.0  0.79904  0.40251  0.19371  1.0000
  C   C3040     1.0  0.80395  0.40848  0.20275  1.0000
  H   H4849     1.0  0.79961  0.44429  0.18351  1.0000
  H   H4850     1.0  0.79056  0.43385  0.16778  1.0000
  H   H4851     1.0  0.79889  0.39094  0.19668  1.0000
  C   C3041     1.0  0.84991  0.33394  0.16060  1.0000
  C   C3042     1.0  0.88476  0.44938  0.15058  1.0000
  S   S1218     1.0  0.73499  0.64964  0.07858  1.0000
  H   H4852     1.0  0.68344  0.31968  0.18972  1.0000
  C   C3043     1.0  0.85118  0.32954  0.11937  1.0000
  H   H4853     1.0  0.77085  0.34260  0.11690  1.0000
  H   H4854     1.0  0.75437  0.34988  0.17908  1.0000
  N   N307      1.0  0.85359  0.40142  0.19800  1.0000
  C   C3044     1.0  0.86746  0.40662  0.19571  1.0000
  C   C3045     1.0  0.84479  0.41119  0.18715  1.0000
  C   C3046     1.0  0.84464  0.40192  0.21314  1.0000
  C   C3047     1.0  0.85739  0.38605  0.19593  1.0000
  H   H4855     1.0  0.95424  0.51571  0.21026  1.0000
  C   C3048     1.0  0.66741  0.64859  0.02142  1.0000
  H   H4856     1.0  0.71891  0.32236  0.21738  1.0000
  H   H4857     1.0  0.83449  0.40737  0.18813  1.0000
  H   H4858     1.0  0.84116  0.42269  0.18892  1.0000
  H   H4859     1.0  0.85141  0.41171  0.17558  1.0000
  H   H4860     1.0  0.84153  0.41336  0.21512  1.0000
  H   H4861     1.0  0.67014  0.42691  0.14137  1.0000
  H   H4862     1.0  0.83399  0.39827  0.21520  1.0000
  H   H4863     1.0  0.84709  0.38192  0.19753  1.0000
  H   H4864     1.0  0.94731  0.49166  0.21431  1.0000
  H   H4865     1.0  0.92743  0.35423  0.22091  1.0000
  C   C3049     1.0  0.77265  0.32628  0.15264  1.0000
  H   H4866     1.0  0.86386  0.37830  0.20405  1.0000
  S   S1219     1.0  0.66895  0.50584  0.17215  1.0000
  H   H4867     1.0  0.89115  0.47560  0.19898  1.0000
  H   H4868     1.0  0.85190  0.34353  0.16349  1.0000
  H   H4869     1.0  0.92127  0.44362  0.13196  1.0000
  H   H4870     1.0  0.90313  0.43029  0.15106  1.0000
  H   H4871     1.0  0.82205  0.50461  0.01088  1.0000
  H   H4872     1.0  0.76450  0.42584  0.18844  1.0000
  S   S1220     1.0  0.76450  0.34048  0.20703  1.0000
  Fe  Fe605     1.0  0.82044  0.47461  0.16831  1.0000
  C   C3050     1.0  0.78841  0.48180  0.15679  1.0000
  H   H4873     1.0  0.81345  0.33157  0.98075  1.0000
  C   C3051     1.0  0.93552  0.51454  0.19447  1.0000
  H   H4874     1.0  0.76235  0.62731  0.07732  1.0000
  H   H4875     1.0  0.85095  0.50002  0.09183  1.0000
  H   H4876     1.0  0.95823  0.52424  0.98541  1.0000
  H   H4877     1.0  0.92681  0.52279  0.98556  1.0000
  H   H4878     1.0  0.97290  0.45678  0.22389  1.0000
  H   H4879     1.0  0.87452  0.40636  0.18440  1.0000
  C   C3052     1.0  0.82102  0.55812  0.98591  1.0000
  C   C3053     1.0  0.89955  0.44188  0.14608  1.0000
  H   H4880     1.0  0.86417  0.38524  0.18464  1.0000
  H   H4881     1.0  0.86237  0.47339  0.10049  1.0000
  C   C3054     1.0  0.97895  0.47802  0.21755  1.0000
  H   H4882     1.0  0.69844  0.53554  0.97904  1.0000
  C   C3055     1.0  0.75289  0.43227  0.19152  1.0000
  C   C3056     1.0  0.90980  0.44941  0.13529  1.0000
  C   C3057     1.0  0.68848  0.55765  0.12064  1.0000
  H   H4883     1.0  0.81655  0.55978  0.99709  1.0000
  H   H4884     1.0  0.95506  0.35088  0.21549  1.0000
  H   H4885     1.0  0.67839  0.56070  0.11583  1.0000
  H   H4886     1.0  0.92188  0.34453  0.17770  1.0000
  C   C3058     1.0  0.95991  0.33840  0.16952  1.0000
  H   H4887     1.0  0.92898  0.55735  0.99399  1.0000
  H   H4888     1.0  0.92124  0.54987  0.98345  1.0000
  N   N308      1.0  0.94526  0.33661  0.16872  1.0000
  N   N309      1.0  0.82272  0.51002  0.98759  1.0000
  Fe  Fe606     1.0  0.83430  0.47637  0.19252  1.0000
  S   S1221     1.0  0.89859  0.48634  0.22030  1.0000
  H   H4889     1.0  0.79399  0.54960  0.13318  1.0000
  C   C3059     1.0  0.95199  0.48914  0.11926  1.0000
  C   C3060     1.0  0.92465  0.54768  0.99415  1.0000
  C   C3061     1.0  0.82296  0.49913  0.00181  1.0000
  S   S1222     1.0  0.87224  0.43991  0.16442  1.0000
  H   H4890     1.0  0.96098  0.35016  0.16547  1.0000
  C   C3062     1.0  0.93309  0.34604  0.17753  1.0000
  H   H4891     1.0  0.79041  0.47222  0.17928  1.0000
  C   C3063     1.0  0.76101  0.31979  0.13678  1.0000
  H   H4892     1.0  0.83198  0.47264  0.12162  1.0000
  S   S1223     1.0  0.84246  0.47941  0.16792  1.0000
  H   H4893     1.0  0.80759  0.40140  0.21254  1.0000
  C   C3064     1.0  0.74913  0.33815  0.20180  1.0000
  C   C3065     1.0  0.78311  0.47571  0.17167  1.0000
  H   H4894     1.0  0.95699  0.49825  0.14114  1.0000
  C   C3066     1.0  0.88014  0.46433  0.14403  1.0000
  C   C3067     1.0  0.86706  0.48181  0.20211  1.0000
  H   H4895     1.0  0.75354  0.44400  0.19012  1.0000
  H   H4896     1.0  0.80761  0.52760  0.99761  1.0000
  H   H4897     1.0  0.93410  0.52638  0.18847  1.0000
  H   H4898     1.0  0.93012  0.53020  0.02011  1.0000
  C   C3068     1.0  0.93541  0.49720  0.21799  1.0000
  C   C3069     1.0  0.77870  0.48590  0.14700  1.0000
  C   C3070     1.0  0.89036  0.47184  0.13318  1.0000
  Fe  Fe607     1.0  0.99542  0.49714  0.18748  1.0000
  C   C3071     1.0  0.75841  0.47859  0.16729  1.0000
  H   H4899     1.0  0.79932  0.56133  0.98144  1.0000
  H   H4900     1.0  0.83504  0.52351  0.99178  1.0000
  C   C3072     1.0  0.90525  0.46443  0.12895  1.0000
  H   H4901     1.0  0.96163  0.33470  0.18106  1.0000
  H   H4902     1.0  0.90887  0.51428  0.21397  1.0000
  C   C3073     1.0  0.73909  0.33040  0.21251  1.0000
  S   S1224     1.0  0.91831  0.47402  0.11612  1.0000
  H   H4903     1.0  0.86872  0.47007  0.14728  1.0000
  C   C3074     1.0  0.75093  0.33365  0.09977  1.0000
  H   H4904     1.0  0.95657  0.48112  0.15456  1.0000
  C   C3075     1.0  0.88080  0.48084  0.20546  1.0000
  H   H4905     1.0  0.86685  0.47728  0.19312  1.0000
  H   H4906     1.0  0.72301  0.43464  0.19895  1.0000
  C   C3076     1.0  0.83371  0.48311  0.11339  1.0000
  C   C3077     1.0  0.76822  0.47422  0.17690  1.0000
  H   H4907     1.0  0.72752  0.45122  0.18641  1.0000
  H   H4908     1.0  0.97065  0.48184  0.13763  1.0000
  H   H4909     1.0  0.83486  0.48127  0.10221  1.0000
  H   H4910     1.0  0.82326  0.49167  0.11578  1.0000
  H   H4911     1.0  0.94822  0.46103  0.14962  1.0000
  H   H4912     1.0  0.96378  0.48470  0.11398  1.0000
  S   S1225     1.0  0.67104  0.64221  0.98444  1.0000
  C   C3078     1.0  0.76976  0.52685  0.15119  1.0000
  H   H4913     1.0  0.85394  0.55607  0.07754  1.0000
  S   S1226     1.0  0.99096  0.47503  0.20072  1.0000
  H   H4914     1.0  0.73057  0.50134  0.07153  1.0000
  Fe  Fe608     1.0  0.89258  0.51417  0.00274  1.0000
  C   C3079     1.0  0.94219  0.52060  0.21413  1.0000
  C   C3080     1.0  0.84884  0.50153  0.10331  1.0000
  Fe  Fe609     1.0  0.80107  0.56237  0.07497  1.0000
  Fe  Fe610     1.0  0.90342  0.52794  0.09122  1.0000
  S   S1227     1.0  0.89068  0.54010  0.10944  1.0000
  S   S1228     1.0  0.90561  0.53981  0.06717  1.0000
  Fe  Fe611     1.0  0.90817  0.49833  0.11233  1.0000
  S   S1229     1.0  0.89546  0.50768  0.13207  1.0000
  H   H4915     1.0  0.70257  0.55225  0.14261  1.0000
  Fe  Fe612     1.0  0.87912  0.52111  0.11813  1.0000
  S   S1230     1.0  0.85422  0.52410  0.12680  1.0000
  Fe  Fe613     1.0  0.90821  0.52572  0.12197  1.0000
  S   S1231     1.0  0.91475  0.53124  0.14028  1.0000
  S   S1232     1.0  0.89053  0.50989  0.09930  1.0000
  S   S1233     1.0  0.92224  0.51537  0.10291  1.0000
  H   H4916     1.0  0.75491  0.48779  0.05855  1.0000
  H   H4917     1.0  0.76447  0.53185  0.16101  1.0000
  S   S1234     1.0  0.98311  0.52584  0.13924  1.0000
  H   H4918     1.0  0.80669  0.32073  0.22580  1.0000
  H   H4919     1.0  0.77787  0.55236  0.14806  1.0000
  S   S1235     1.0  0.97565  0.54125  0.20759  1.0000
  C   C3081     1.0  0.84472  0.49008  0.12935  1.0000
  H   H4920     1.0  0.90547  0.49452  0.05334  1.0000
  H   H4921     1.0  0.91960  0.52019  0.00520  1.0000
  Fe  Fe614     1.0  0.98869  0.52921  0.18943  1.0000
  H   H4922     1.0  0.78269  0.49035  0.13539  1.0000
  S   S1236     1.0  0.97656  0.51624  0.18261  1.0000
  Fe  Fe615     1.0  0.76581  0.53182  0.99043  1.0000
  N   N310      1.0  0.93602  0.53368  0.99636  1.0000
  H   H4923     1.0  0.80239  0.52568  0.12523  1.0000
  H   H4924     1.0  0.87914  0.33391  0.15492  1.0000
  H   H4925     1.0  0.67473  0.53508  0.12667  1.0000
  H   H4926     1.0  0.81508  0.36617  0.20945  1.0000
  H   H4927     1.0  0.95035  0.50142  0.11706  1.0000
  H   H4928     1.0  0.86489  0.41830  0.19690  1.0000
  S   S1237     1.0  0.80064  0.52146  0.05438  1.0000
  H   H4929     1.0  0.77131  0.60509  0.06638  1.0000
  C   C3082     1.0  0.77860  0.51522  0.02103  1.0000
  H   H4930     1.0  0.76747  0.53825  0.01941  1.0000
  H   H4931     1.0  0.83494  0.49932  0.13169  1.0000
  C   C3083     1.0  0.86050  0.47584  0.11155  1.0000
  C   C3084     1.0  0.75987  0.49719  0.05794  1.0000
  H   H4932     1.0  0.83354  0.49045  0.00117  1.0000
  S   S1238     1.0  0.76979  0.51200  0.00891  1.0000
  H   H4933     1.0  0.96259  0.46122  0.13290  1.0000
  H   H4934     1.0  0.85471  0.49293  0.13075  1.0000
  H   H4935     1.0  0.77156  0.51272  0.06941  1.0000
  C   C3085     1.0  0.79573  0.50564  0.03763  1.0000
  S   S1239     1.0  0.79609  0.53993  0.08503  1.0000
  H   H4936     1.0  0.86345  0.52511  0.03399  1.0000
  C   C3086     1.0  0.79251  0.51953  0.04107  1.0000
  C   C3087     1.0  0.85662  0.54944  0.04506  1.0000
  N   N311      1.0  0.94859  0.48260  0.13529  1.0000
  H   H4937     1.0  0.71064  0.53767  0.13259  1.0000
  S   S1240     1.0  0.75871  0.54476  0.11421  1.0000
  H   H4938     1.0  0.87074  0.47911  0.11187  1.0000
  H   H4939     1.0  0.83094  0.56568  0.03739  1.0000
  H   H4940     1.0  0.83872  0.51061  0.10495  1.0000
  H   H4941     1.0  0.94459  0.48672  0.11350  1.0000
  H   H4942     1.0  0.75845  0.52528  0.05892  1.0000
  H   H4943     1.0  0.83061  0.55499  0.02492  1.0000
  H   H4944     1.0  0.94340  0.46344  0.13226  1.0000
  H   H4945     1.0  0.85861  0.33760  0.21028  1.0000
  C   C3088     1.0  0.78862  0.50343  0.02780  1.0000
  S   S1241     1.0  0.76609  0.55203  0.07107  1.0000
  C   C3089     1.0  0.98643  0.55156  0.21100  1.0000
  H   H4946     1.0  0.78405  0.52716  0.12289  1.0000
  H   H4947     1.0  0.88668  0.48332  0.12805  1.0000
  H   H4948     1.0  0.75293  0.51655  0.13116  1.0000
  H   H4949     1.0  0.85968  0.46533  0.12002  1.0000
  H   H4950     1.0  0.80598  0.52655  0.14936  1.0000
  C   C3090     1.0  0.79125  0.52326  0.13109  1.0000
  C   C3091     1.0  0.93378  0.52984  0.13973  1.0000
  C   C3092     1.0  0.94479  0.52895  0.12673  1.0000
  C   C3093     1.0  0.95986  0.52781  0.12672  1.0000
  C   C3094     1.0  0.96405  0.52739  0.13971  1.0000
  C   C3095     1.0  0.95301  0.52817  0.15272  1.0000
  C   C3096     1.0  0.93793  0.52946  0.15269  1.0000
  H   H4951     1.0  0.94167  0.52950  0.11662  1.0000
  H   H4952     1.0  0.96831  0.52738  0.11657  1.0000
  H   H4953     1.0  0.95606  0.52814  0.16268  1.0000
  H   H4954     1.0  0.92942  0.53032  0.16271  1.0000
  S   S1242     1.0  0.80687  0.48490  0.15065  1.0000
  H   H4955     1.0  0.77991  0.34732  0.12848  1.0000
  H   H4956     1.0  0.79002  0.53005  0.16418  1.0000
  Fe  Fe616     1.0  0.77242  0.55213  0.09166  1.0000
  H   H4957     1.0  0.76164  0.33248  0.15797  1.0000
  H   H4958     1.0  0.86334  0.53974  0.05159  1.0000
  H   H4959     1.0  0.73039  0.51613  0.07939  1.0000
  Fe  Fe617     1.0  0.79038  0.54199  0.06349  1.0000
  H   H4960     1.0  0.90886  0.50841  0.06978  1.0000
  C   C3097     1.0  0.75124  0.60851  0.05863  1.0000
  C   C3098     1.0  0.90359  0.50650  0.05018  1.0000
  H   H4961     1.0  0.69839  0.55380  0.11214  1.0000
  C   C3099     1.0  0.83159  0.55406  0.08964  1.0000
  C   C3100     1.0  0.82291  0.54772  0.10300  1.0000
  C   C3101     1.0  0.82985  0.53872  0.11455  1.0000
  C   C3102     1.0  0.84546  0.53574  0.11258  1.0000
  C   C3103     1.0  0.85409  0.54180  0.09911  1.0000
  C   C3104     1.0  0.84716  0.55112  0.08777  1.0000
  H   H4962     1.0  0.81085  0.55014  0.10454  1.0000
  H   H4963     1.0  0.82322  0.53415  0.12501  1.0000
  H   H4964     1.0  0.86613  0.53953  0.09740  1.0000
  S   S1243     1.0  0.75736  0.59279  0.05077  1.0000
  C   C3105     1.0  0.77551  0.52920  0.02430  1.0000
  C   C3106     1.0  0.75942  0.51674  0.06932  1.0000
  S   S1244     1.0  0.89769  0.50351  0.02523  1.0000
  H   H4965     1.0  0.92496  0.48616  0.13684  1.0000
  H   H4966     1.0  0.68997  0.56794  0.12265  1.0000
  H   H4967     1.0  0.93063  0.50115  0.13979  1.0000
  S   S1245     1.0  0.77789  0.57459  0.08384  1.0000
  H   H4968     1.0  0.75410  0.52240  0.07870  1.0000
  H   H4969     1.0  0.80812  0.52980  0.97839  1.0000
  C   C3107     1.0  0.89955  0.51399  0.03670  1.0000
  H   H4970     1.0  0.77986  0.54211  0.03709  1.0000
  C   C3108     1.0  0.90540  0.51436  0.05957  1.0000
  C   C3109     1.0  0.90319  0.52981  0.05555  1.0000
  C   C3110     1.0  0.89920  0.53736  0.04201  1.0000
  C   C3111     1.0  0.89726  0.52947  0.03264  1.0000
  S   S1246     1.0  0.84859  0.55244  0.99213  1.0000
  C   C3112     1.0  0.78298  0.54659  0.13874  1.0000
  H   H4971     1.0  0.89747  0.54932  0.03886  1.0000
  H   H4972     1.0  0.89399  0.53537  0.02236  1.0000
  C   C3113     1.0  0.91657  0.52000  0.21596  1.0000
  S   S1247     1.0  0.79680  0.56382  0.05283  1.0000
  S   S1248     1.0  0.77130  0.55344  0.98879  1.0000
  C   C3114     1.0  0.75392  0.49349  0.08452  1.0000
  C   C3115     1.0  0.93285  0.48886  0.14177  1.0000
  H   H4973     1.0  0.67459  0.56182  0.14796  1.0000
  H   H4974     1.0  0.77564  0.55124  0.13060  1.0000
  Fe  Fe618     1.0  0.75011  0.56339  0.98040  1.0000
  H   H4975     1.0  0.94720  0.50881  0.19019  1.0000
  N   N312      1.0  0.84695  0.54480  0.03837  1.0000
  C   C3116     1.0  0.83810  0.55807  0.03006  1.0000
  C   C3117     1.0  0.83666  0.53658  0.05015  1.0000
  C   C3118     1.0  0.74615  0.52068  0.12295  1.0000
  H   H4976     1.0  0.76590  0.48852  0.08486  1.0000
  H   H4977     1.0  0.84547  0.56445  0.02090  1.0000
  H   H4978     1.0  0.84292  0.52646  0.05661  1.0000
  H   H4979     1.0  0.82943  0.54355  0.05805  1.0000
  H   H4980     1.0  0.82907  0.53307  0.04550  1.0000
  C   C3119     1.0  0.74677  0.53439  0.11317  1.0000
  H   H4981     1.0  0.84984  0.55691  0.05265  1.0000
  H   H4982     1.0  0.80345  0.49646  0.04287  1.0000
  N   N313      1.0  0.86421  0.52254  0.16817  1.0000
  C   C3120     1.0  0.85312  0.52767  0.18087  1.0000
  C   C3121     1.0  0.85974  0.51047  0.16492  1.0000
  C   C3122     1.0  0.87915  0.51701  0.17186  1.0000
  C   C3123     1.0  0.86481  0.53501  0.15508  1.0000
  H   H4983     1.0  0.85608  0.53678  0.18369  1.0000
  H   H4984     1.0  0.85239  0.51850  0.19094  1.0000
  H   H4985     1.0  0.84170  0.53181  0.17852  1.0000
  H   H4986     1.0  0.85885  0.50102  0.17466  1.0000
  H   H4987     1.0  0.84865  0.51437  0.16180  1.0000
  H   H4988     1.0  0.86791  0.50613  0.15553  1.0000
  H   H4989     1.0  0.87910  0.50764  0.18173  1.0000
  H   H4990     1.0  0.88290  0.52589  0.17427  1.0000
  H   H4991     1.0  0.88782  0.51304  0.16254  1.0000
  H   H4992     1.0  0.87313  0.53154  0.14531  1.0000
  H   H4993     1.0  0.86811  0.54436  0.15712  1.0000
  H   H4994     1.0  0.85380  0.53935  0.15181  1.0000
  H   H4995     1.0  0.85845  0.50550  0.10410  1.0000
  C   C3124     1.0  0.79449  0.52464  0.15457  1.0000
  H   H4996     1.0  0.92996  0.48448  0.15392  1.0000
  C   C3125     1.0  0.94381  0.34107  0.15314  1.0000
  H   H4997     1.0  0.73485  0.51846  0.05970  1.0000
  C   C3126     1.0  0.94006  0.53112  0.01073  1.0000
  H   H4998     1.0  0.74886  0.49871  0.09421  1.0000
  H   H4999     1.0  0.84259  0.47998  0.13793  1.0000
  C   C3127     1.0  0.73636  0.51035  0.07024  1.0000
  C   C3128     1.0  0.93456  0.34373  0.21896  1.0000
  C   C3129     1.0  0.76031  0.61200  0.06576  1.0000
  H   H5000     1.0  0.78146  0.33147  0.15329  1.0000
  S   S1249     1.0  0.87115  0.51316  0.99816  1.0000
  H   H5001     1.0  0.68482  0.64260  0.05503  1.0000
  S   S1250     1.0  0.89101  0.53825  0.99225  1.0000
  Fe  Fe619     1.0  0.77299  0.57397  0.06260  1.0000
  H   H5002     1.0  0.86461  0.55556  0.03646  1.0000
  H   H5003     1.0  0.72120  0.63748  0.06282  1.0000
  H   H5004     1.0  0.86405  0.54114  0.01901  1.0000
  C   C3130     1.0  0.78242  0.53135  0.03440  1.0000
  C   C3131     1.0  0.80868  0.52150  0.98899  1.0000
  C   C3132     1.0  0.85639  0.53515  0.02819  1.0000
  S   S1251     1.0  0.82335  0.56582  0.07514  1.0000
  H   H5005     1.0  0.72489  0.63330  0.02253  1.0000
  N   N314      1.0  0.78462  0.53034  0.14389  1.0000
  S   S1252     1.0  0.83646  0.49159  0.20547  1.0000
  H   H5006     1.0  0.74819  0.48435  0.08616  1.0000
  H   H5007     1.0  0.84943  0.53139  0.02302  1.0000
  H   H5008     1.0  0.79553  0.51249  0.15905  1.0000
  S   S1253     1.0  0.97890  0.32693  0.20692  1.0000
  C   C3133     1.0  0.94426  0.32091  0.17466  1.0000
  C   C3134     1.0  0.77085  0.34200  0.12859  1.0000
  H   H5009     1.0  0.95299  0.33431  0.14616  1.0000
  C   C3135     1.0  0.85412  0.49476  0.22184  1.0000
  S   S1254     1.0  0.66804  0.61939  0.02511  1.0000
  H   H5010     1.0  0.91382  0.53190  0.21034  1.0000
  C   C3136     1.0  0.68490  0.53269  0.13120  1.0000
  C   C3137     1.0  0.86781  0.49340  0.22547  1.0000
  C   C3138     1.0  0.83567  0.51705  0.98361  1.0000
  H   H5011     1.0  0.93304  0.33956  0.15205  1.0000
  C   C3139     1.0  0.82604  0.36786  0.22540  1.0000
  H   H5012     1.0  0.84645  0.50866  0.98302  1.0000
  H   H5013     1.0  0.94465  0.54036  0.01126  1.0000
  H   H5014     1.0  0.93804  0.51044  0.99803  1.0000
  C   C3140     1.0  0.85079  0.35217  0.22553  1.0000
  C   C3141     1.0  0.72662  0.32834  0.20897  1.0000
  H   H5015     1.0  0.69467  0.52814  0.12301  1.0000
  C   C3142     1.0  0.97119  0.46727  0.22686  1.0000
  C   C3143     1.0  0.97662  0.49156  0.22143  1.0000
  H   H5016     1.0  0.83125  0.32065  0.12794  1.0000
  H   H5017     1.0  0.80816  0.33957  0.21776  1.0000
  H   H5018     1.0  0.86871  0.45189  0.21684  1.0000
  H   H5019     1.0  0.71056  0.56101  0.98242  1.0000
  C   C3144     1.0  0.86775  0.44137  0.22518  1.0000
  S   S1255     1.0  0.69147  0.65105  0.08025  1.0000
  H   H5020     1.0  0.85825  0.31949  0.11623  1.0000
  C   C3145     1.0  0.80008  0.33234  0.22375  1.0000
  H   H5021     1.0  0.86316  0.43457  0.22066  1.0000
  C   C3146     1.0  0.98244  0.55616  0.22439  1.0000
  H   H5022     1.0  0.93354  0.31898  0.17390  1.0000
  H   H5023     1.0  0.94023  0.51957  0.22627  1.0000
  H   H5024     1.0  0.77504  0.35371  0.22693  1.0000
  Fe  Fe620     1.0  0.88994  0.31813  0.10733  1.0000
  C   C3147     1.0  0.99133  0.56396  0.22737  1.0000
  C   C3148     1.0  0.95726  0.33923  0.31453  1.0000
  C   C3149     1.0  0.90731  0.31836  0.42885  1.0000
  H   H5025     1.0  0.91872  0.38061  0.27207  1.0000
  C   C3150     1.0  0.91542  0.37525  0.28396  1.0000
  H   H5026     1.0  0.93307  0.49567  0.23021  1.0000
  C   C3151     1.0  0.90422  0.42351  0.26541  1.0000
  H   H5027     1.0  0.86714  0.46301  0.23783  1.0000
  H   H5028     1.0  0.87692  0.36872  0.29526  1.0000
  C   C3152     1.0  0.94429  0.33452  0.31561  1.0000
  C   C3153     1.0  0.92002  0.36992  0.30842  1.0000
  H   H5029     1.0  0.98332  0.53398  0.25453  1.0000
  C   C3154     1.0  0.90752  0.42995  0.25031  1.0000
  C   C3155     1.0  0.90459  0.42386  0.24009  1.0000
  C   C3156     1.0  0.89836  0.41131  0.24495  1.0000
  H   H5030     1.0  0.91251  0.43952  0.24645  1.0000
  H   H5031     1.0  0.95866  0.31912  0.34217  1.0000
  S   S1256     1.0  0.99318  0.56112  0.41794  1.0000
  C   C3157     1.0  0.88161  0.49770  0.30775  1.0000
  N   N315      1.0  0.85830  0.44419  0.23956  1.0000
  C   C3158     1.0  0.95141  0.64016  0.40933  1.0000
  H   H5032     1.0  0.95460  0.46212  0.24686  1.0000
  H   H5033     1.0  0.98534  0.50127  0.26977  1.0000
  H   H5034     1.0  0.93464  0.32049  0.30874  1.0000
  C   C3159     1.0  0.98168  0.51309  0.37436  1.0000
  C   C3160     1.0  0.96080  0.47032  0.23979  1.0000
  H   H5035     1.0  0.94548  0.55016  0.30568  1.0000
  H   H5036     1.0  0.97338  0.58123  0.30719  1.0000
  H   H5037     1.0  0.89843  0.32650  0.43380  1.0000
  C   C3161     1.0  0.95650  0.54304  0.30576  1.0000
  H   H5038     1.0  0.80773  0.32375  0.25013  1.0000
  H   H5039     1.0  0.85136  0.42342  0.24581  1.0000
  H   H5040     1.0  0.94710  0.61815  0.30475  1.0000
  H   H5041     1.0  0.77340  0.32988  0.25563  1.0000
  H   H5042     1.0  0.99513  0.48825  0.36408  1.0000
  H   H5043     1.0  0.98417  0.50907  0.25075  1.0000
  H   H5044     1.0  0.86772  0.42286  0.25177  1.0000
  C   C3162     1.0  0.95823  0.31817  0.29897  1.0000
  H   H5045     1.0  0.94867  0.36838  0.29389  1.0000
  S   S1257     1.0  0.87072  0.37677  0.26201  1.0000
  S   S1258     1.0  0.89533  0.34107  0.28730  1.0000
  S   S1259     1.0  0.91222  0.46855  0.28218  1.0000
  C   C3163     1.0  0.94080  0.36803  0.28740  1.0000
  C   C3164     1.0  0.89793  0.33941  0.31504  1.0000
  Fe  Fe621     1.0  0.88716  0.35505  0.26692  1.0000
  H   H5046     1.0  0.86926  0.51724  0.40683  1.0000
  H   H5047     1.0  0.96466  0.50512  0.23708  1.0000
  S   S1260     1.0  0.99270  0.59155  0.25752  1.0000
  N   N316      1.0  0.79110  0.33671  0.23766  1.0000
  H   H5048     1.0  0.89979  0.58695  0.46822  1.0000
  H   H5049     1.0  0.91441  0.39855  0.29517  1.0000
  H   H5050     1.0  0.83764  0.44734  0.23293  1.0000
  H   H5051     1.0  0.99412  0.31962  0.23359  1.0000
  H   H5052     1.0  0.94745  0.31959  0.26329  1.0000
  S   S1261     1.0  0.90826  0.43078  0.27823  1.0000
  Fe  Fe622     1.0  0.88846  0.38199  0.24166  1.0000
  H   H5053     1.0  0.97252  0.55370  0.23246  1.0000
  H   H5054     1.0  0.91551  0.36348  0.28461  1.0000
  C   C3165     1.0  0.91773  0.64188  0.45455  1.0000
  H   H5055     1.0  0.95749  0.51257  0.36533  1.0000
  H   H5056     1.0  0.83593  0.45555  0.24808  1.0000
  H   H5057     1.0  0.98074  0.33729  0.30436  1.0000
  H   H5058     1.0  0.92793  0.36948  0.31518  1.0000
  S   S1262     1.0  0.92245  0.46493  0.24776  1.0000
  S   S1263     1.0  0.90556  0.36138  0.24770  1.0000
  S   S1264     1.0  0.87843  0.34355  0.25489  1.0000
  H   H5059     1.0  0.90503  0.49248  0.29728  1.0000
  C   C3166     1.0  0.97796  0.60124  0.31911  1.0000
  Fe  Fe623     1.0  0.92423  0.48026  0.26060  1.0000
  H   H5060     1.0  0.99340  0.54349  0.29170  1.0000
  H   H5061     1.0  0.97093  0.49843  0.26288  1.0000
  Fe  Fe624     1.0  0.86386  0.36579  0.24796  1.0000
  S   S1265     1.0  0.84018  0.37028  0.24538  1.0000
  H   H5062     1.0  0.89448  0.40662  0.28200  1.0000
  Fe  Fe625     1.0  0.90815  0.45494  0.26892  1.0000
  S   S1266     1.0  0.94453  0.48878  0.25860  1.0000
  S   S1267     1.0  0.88656  0.47003  0.26432  1.0000
  C   C3167     1.0  0.89492  0.40494  0.26006  1.0000
  Fe  Fe626     1.0  0.90104  0.48116  0.24398  1.0000
  H   H5063     1.0  0.95789  0.62627  0.31166  1.0000
  H   H5064     1.0  0.88983  0.39543  0.26391  1.0000
  N   N317      1.0  0.92548  0.37633  0.29264  1.0000
  C   C3168     1.0  0.89769  0.41116  0.27029  1.0000
  H   H5065     1.0  0.91762  0.58987  0.46803  1.0000
  H   H5066     1.0  0.97930  0.57000  0.46461  1.0000
  H   H5067     1.0  0.90889  0.37648  0.31306  1.0000
  H   H5068     1.0  0.94104  0.35613  0.28854  1.0000
  H   H5069     1.0  0.91865  0.35847  0.30999  1.0000
  H   H5070     1.0  0.90725  0.32351  0.26467  1.0000
  Fe  Fe627     1.0  0.89177  0.48457  0.27603  1.0000
  H   H5071     1.0  0.89454  0.43555  0.34759  1.0000
  H   H5072     1.0  0.90497  0.32854  0.31431  1.0000
  C   C3169     1.0  0.89135  0.34806  0.30325  1.0000
  C   C3170     1.0  0.95848  0.48396  0.24352  1.0000
  C   C3171     1.0  0.88211  0.36203  0.30430  1.0000
  H   H5073     1.0  0.94532  0.37269  0.27556  1.0000
  C   C3172     1.0  0.92569  0.39204  0.29087  1.0000
  H   H5074     1.0  0.92924  0.39750  0.27904  1.0000
  H   H5075     1.0  0.93350  0.39314  0.29700  1.0000
  C   C3173     1.0  0.97067  0.33361  0.30535  1.0000
  H   H5076     1.0  0.90361  0.38064  0.28819  1.0000
  H   H5077     1.0  0.99527  0.60620  0.43074  1.0000
  C   C3174     1.0  0.98497  0.52455  0.30558  1.0000
  H   H5078     1.0  0.88612  0.61003  0.47693  1.0000
  C   C3175     1.0  0.97640  0.53085  0.26584  1.0000
  H   H5079     1.0  0.91659  0.41517  0.38892  1.0000
  S   S1268     1.0  0.93893  0.48243  0.33201  1.0000
  C   C3176     1.0  0.94317  0.33659  0.41070  1.0000
  H   H5080     1.0  0.90072  0.43111  0.32206  1.0000
  C   C3177     1.0  0.93050  0.42725  0.37045  1.0000
  H   H5081     1.0  0.84415  0.46399  0.22963  1.0000
  C   C3178     1.0  0.90985  0.43722  0.31921  1.0000
  H   H5082     1.0  0.87240  0.37812  0.31803  1.0000
  H   H5083     1.0  0.93730  0.32834  0.41917  1.0000
  H   H5084     1.0  0.92804  0.43683  0.37520  1.0000
  C   C3179     1.0  0.90404  0.44128  0.34395  1.0000
  Fe  Fe628     1.0  0.93776  0.35402  0.34420  1.0000
  S   S1269     1.0  0.92232  0.33843  0.35129  1.0000
  Fe  Fe629     1.0  0.92148  0.36989  0.36940  1.0000
  S   S1270     1.0  0.90456  0.35547  0.37826  1.0000
  S   S1271     1.0  0.91939  0.38711  0.38210  1.0000
  Fe  Fe630     1.0  0.92442  0.33674  0.37421  1.0000
  N   N318      1.0  0.98127  0.51025  0.36021  1.0000
  Fe  Fe631     1.0  0.90425  0.35869  0.35435  1.0000
  S   S1272     1.0  0.88383  0.36573  0.34459  1.0000
  S   S1273     1.0  0.94138  0.35089  0.36696  1.0000
  S   S1274     1.0  0.91964  0.37456  0.34583  1.0000
  H   H5085     1.0  0.77266  0.32782  0.23793  1.0000
  C   C3180     1.0  0.78042  0.32693  0.24509  1.0000
  H   H5086     1.0  0.90768  0.33119  0.40650  1.0000
  C   C3181     1.0  0.83896  0.36290  0.23119  1.0000
  Fe  Fe632     1.0  0.94296  0.46440  0.35195  1.0000
  C   C3182     1.0  0.93736  0.35206  0.42829  1.0000
  S   S1275     1.0  0.94887  0.44182  0.34651  1.0000
  H   H5087     1.0  0.91993  0.35590  0.40077  1.0000
  H   H5088     1.0  0.93251  0.36336  0.43057  1.0000
  H   H5089     1.0  0.93098  0.34429  0.43690  1.0000
  H   H5090     1.0  0.91397  0.34876  0.42025  1.0000
  H   H5091     1.0  0.94913  0.34875  0.42972  1.0000
  C   C3183     1.0  0.94037  0.42692  0.35669  1.0000
  S   S1276     1.0  0.95966  0.47414  0.35634  1.0000
  C   C3184     1.0  0.89227  0.45939  0.32524  1.0000
  H   H5092     1.0  0.92033  0.42891  0.32108  1.0000
  H   H5093     1.0  0.94226  0.33580  0.39970  1.0000
  C   C3185     1.0  0.94350  0.41445  0.35061  1.0000
  H   H5094     1.0  0.91153  0.44227  0.30715  1.0000
  H   H5095     1.0  0.91420  0.43278  0.34637  1.0000
  C   C3186     1.0  0.89544  0.34472  0.32782  1.0000
  C   C3187     1.0  0.88634  0.35871  0.32890  1.0000
  N   N319      1.0  0.90619  0.44857  0.32807  1.0000
  H   H5096     1.0  0.90035  0.33784  0.33694  1.0000
  C   C3188     1.0  0.92725  0.40250  0.37209  1.0000
  C   C3189     1.0  0.93689  0.40232  0.35822  1.0000
  H   H5097     1.0  0.93949  0.39273  0.35347  1.0000
  H   H5098     1.0  0.93385  0.33895  0.32236  1.0000
  H   H5099     1.0  0.95114  0.41415  0.33997  1.0000
  H   H5100     1.0  0.97871  0.64643  0.39919  1.0000
  H   H5101     1.0  0.89339  0.46494  0.31332  1.0000
  C   C3190     1.0  0.91862  0.45635  0.32394  1.0000
  H   H5102     1.0  0.97619  0.63788  0.41849  1.0000
  C   C3191     1.0  0.92405  0.41499  0.37818  1.0000
  H   H5103     1.0  0.88259  0.45397  0.32841  1.0000
  C   C3192     1.0  0.87954  0.36731  0.31719  1.0000
  H   H5104     1.0  0.92935  0.44850  0.32580  1.0000
  S   S1277     1.0  0.95695  0.35210  0.32448  1.0000
  C   C3193     1.0  0.94521  0.36225  0.40221  1.0000
  C   C3194     1.0  0.92087  0.35620  0.41190  1.0000
  H   H5105     1.0  0.94489  0.36234  0.39075  1.0000
  H   H5106     1.0  0.92046  0.46219  0.31209  1.0000
  H   H5107     1.0  0.91634  0.46482  0.33059  1.0000
  N   N320      1.0  0.93666  0.35177  0.41327  1.0000
  H   H5108     1.0  0.91570  0.36777  0.41334  1.0000
  H   H5109     1.0  0.95718  0.35936  0.40291  1.0000
  S   S1278     1.0  0.92394  0.47520  0.36801  1.0000
  H   H5110     1.0  0.88934  0.46828  0.33154  1.0000
  H   H5111     1.0  0.90175  0.44943  0.35097  1.0000
  Fe  Fe633     1.0  0.94030  0.48702  0.37038  1.0000
  S   S1279     1.0  0.96750  0.56661  0.28695  1.0000
  H   H5112     1.0  0.95722  0.58616  0.32126  1.0000
  C   C3195     1.0  0.95725  0.52727  0.25606  1.0000
  S   S1280     1.0  0.87479  0.49484  0.29380  1.0000
  Fe  Fe634     1.0  0.92092  0.49384  0.34821  1.0000
  H   H5113     1.0  0.93904  0.64265  0.41056  1.0000
  H   H5114     1.0  0.94969  0.53776  0.25873  1.0000
  H   H5115     1.0  0.98002  0.61945  0.29206  1.0000
  C   C3196     1.0  0.96351  0.59026  0.30991  1.0000
  H   H5116     1.0  0.90277  0.49013  0.39280  1.0000
  H   H5117     1.0  0.99112  0.52856  0.34678  1.0000
  N   N321      1.0  0.89134  0.51282  0.39305  1.0000
  H   H5118     1.0  0.98415  0.52599  0.27357  1.0000
  N   N322      1.0  0.96737  0.52035  0.26644  1.0000
  H   H5119     1.0  0.96363  0.52956  0.35633  1.0000
  S   S1281     1.0  0.90398  0.49740  0.25519  1.0000
  H   H5120     1.0  0.98163  0.31863  0.29069  1.0000
  C   C3197     1.0  0.95840  0.51652  0.28163  1.0000
  H   H5121     1.0  0.96366  0.52999  0.24442  1.0000
  H   H5122     1.0  0.99283  0.51429  0.33737  1.0000
  H   H5123     1.0  0.77566  0.35585  0.24462  1.0000
  H   H5124     1.0  0.90724  0.42884  0.22840  1.0000
  H   H5125     1.0  0.92111  0.33290  0.26463  1.0000
  H   H5126     1.0  0.96918  0.54129  0.26899  1.0000
  C   C3198     1.0  0.78269  0.35225  0.23437  1.0000
  H   H5127     1.0  0.96582  0.51594  0.34598  1.0000
  H   H5128     1.0  0.98936  0.58140  0.43641  1.0000
  H   H5129     1.0  0.84967  0.43159  0.26101  1.0000
  S   S1282     1.0  0.94406  0.48989  0.39157  1.0000
  H   H5130     1.0  0.95007  0.51972  0.25648  1.0000
  H   H5131     1.0  0.95009  0.57855  0.47348  1.0000
  H   H5132     1.0  0.97951  0.52519  0.37387  1.0000
  C   C3199     1.0  0.96927  0.54851  0.29767  1.0000
  H   H5133     1.0  0.98823  0.56745  0.23774  1.0000
  C   C3200     1.0  0.97742  0.50668  0.26226  1.0000
  H   H5134     1.0  0.95523  0.33306  0.41111  1.0000
  H   H5135     1.0  0.87669  0.44579  0.24746  1.0000
  H   H5136     1.0  0.86803  0.49799  0.23442  1.0000
  H   H5137     1.0  0.96571  0.51099  0.28972  1.0000
  H   H5138     1.0  0.97298  0.50856  0.38362  1.0000
  C   C3201     1.0  0.96661  0.49444  0.23446  1.0000
  C   C3202     1.0  0.87628  0.50405  0.33164  1.0000
  C   C3203     1.0  0.87977  0.50847  0.40624  1.0000
  C   C3204     1.0  0.97634  0.60903  0.29345  1.0000
  C   C3205     1.0  0.89479  0.52668  0.39362  1.0000
  Fe  Fe635     1.0  0.94434  0.55956  0.45512  1.0000
  S   S1283     1.0  0.92583  0.57112  0.44298  1.0000
  Fe  Fe636     1.0  0.96848  0.56385  0.42722  1.0000
  S   S1284     1.0  0.95207  0.57630  0.41297  1.0000
  H   H5139     1.0  0.88461  0.53582  0.39432  1.0000
  Fe  Fe637     1.0  0.94012  0.58777  0.43164  1.0000
  S   S1285     1.0  0.93015  0.61236  0.42834  1.0000
  Fe  Fe638     1.0  0.93935  0.55842  0.42536  1.0000
  S   S1286     1.0  0.92806  0.55120  0.41144  1.0000
  S   S1287     1.0  0.95785  0.57694  0.44465  1.0000
  S   S1288     1.0  0.95666  0.54514  0.43865  1.0000
  H   H5140     1.0  0.87528  0.52395  0.37938  1.0000
  C   C3206     1.0  0.91253  0.32103  0.41342  1.0000
  H   H5141     1.0  0.85859  0.45487  0.25631  1.0000
  C   C3207     1.0  0.96640  0.51743  0.35681  1.0000
  S   S1289     1.0  0.93567  0.50650  0.35187  1.0000
  H   H5142     1.0  0.95622  0.59190  0.30209  1.0000
  C   C3208     1.0  0.89700  0.49543  0.30695  1.0000
  Fe  Fe639     1.0  0.95412  0.49300  0.33766  1.0000
  C   C3209     1.0  0.98960  0.56464  0.46901  1.0000
  H   H5143     1.0  0.94043  0.37386  0.40366  1.0000
  C   C3210     1.0  0.93412  0.53436  0.40532  1.0000
  C   C3211     1.0  0.93017  0.53379  0.39254  1.0000
  C   C3212     1.0  0.93359  0.52036  0.38794  1.0000
  C   C3213     1.0  0.94065  0.50725  0.39630  1.0000
  C   C3214     1.0  0.94486  0.50784  0.40893  1.0000
  C   C3215     1.0  0.94174  0.52136  0.41335  1.0000
  H   H5144     1.0  0.92434  0.54383  0.38624  1.0000
  H   H5145     1.0  0.93052  0.52016  0.37806  1.0000
  H   H5146     1.0  0.91383  0.49573  0.31784  1.0000
  H   H5147     1.0  0.94474  0.52164  0.42328  1.0000
  C   C3216     1.0  0.92364  0.63390  0.46692  1.0000
  C   C3217     1.0  0.93207  0.61938  0.46725  1.0000
  C   C3218     1.0  0.93422  0.61272  0.45540  1.0000
  C   C3219     1.0  0.92798  0.62053  0.44318  1.0000
  C   C3220     1.0  0.91983  0.63517  0.44274  1.0000
  S   S1290     1.0  0.98911  0.63594  0.36940  1.0000
  H   H5148     1.0  0.94066  0.60154  0.45577  1.0000
  H   H5149     1.0  0.91492  0.64126  0.43334  1.0000
  H   H5150     1.0  0.90995  0.49906  0.40254  1.0000
  C   C3221     1.0  0.85666  0.42990  0.25000  1.0000
  H   H5151     1.0  0.94812  0.52397  0.31981  1.0000
  H   H5152     1.0  0.87689  0.49807  0.40612  1.0000
  H   H5153     1.0  0.98659  0.55104  0.44940  1.0000
  S   S1291     1.0  0.89392  0.40440  0.23211  1.0000
  H   H5154     1.0  0.85943  0.50389  0.32077  1.0000
  C   C3222     1.0  0.84336  0.45314  0.23747  1.0000
  H   H5155     1.0  0.86818  0.50748  0.34109  1.0000
  H   H5156     1.0  0.89963  0.52515  0.40336  1.0000
  H   H5157     1.0  0.91383  0.50352  0.38274  1.0000
  H   H5158     1.0  0.90394  0.61365  0.47544  1.0000
  H   H5159     1.0  0.95671  0.63808  0.39805  1.0000
  C   C3223     1.0  0.95798  0.52826  0.31377  1.0000
  C   C3224     1.0  0.95473  0.61573  0.31242  1.0000
  H   H5160     1.0  0.89417  0.51873  0.36938  1.0000
  C   C3225     1.0  0.89161  0.50159  0.33101  1.0000
  H   H5161     1.0  0.97208  0.59776  0.33080  1.0000
  C   C3226     1.0  0.88577  0.51521  0.37954  1.0000
  C   C3227     1.0  0.98349  0.53931  0.29777  1.0000
  S   S1292     1.0  0.89722  0.50418  0.34587  1.0000
  C   C3228     1.0  0.97224  0.51900  0.31349  1.0000
  C   C3229     1.0  0.90199  0.49728  0.31862  1.0000
  H   H5162     1.0  0.79486  0.33867  0.25795  1.0000
  N   N323      1.0  0.96813  0.60407  0.30873  1.0000
  H   H5163     1.0  0.88370  0.50653  0.41661  1.0000
  S   S1293     1.0  0.97458  0.50031  0.32252  1.0000
  Fe  Fe640     1.0  0.89579  0.35126  0.23536  1.0000
  H   H5164     1.0  0.88344  0.50488  0.37846  1.0000
  H   H5165     1.0  0.95087  0.52658  0.28531  1.0000
  H   H5166     1.0  0.98199  0.61132  0.31827  1.0000
  H   H5167     1.0  0.98660  0.60058  0.29037  1.0000
  C   C3230     1.0  0.86547  0.45232  0.24556  1.0000
  H   H5168     1.0  0.95036  0.49776  0.41546  1.0000
  C   C3231     1.0  0.97274  0.64830  0.41043  1.0000
  H   H5169     1.0  0.94824  0.61235  0.32388  1.0000
  H   H5170     1.0  0.96939  0.61104  0.28524  1.0000
  H   H5171     1.0  0.95129  0.50878  0.28241  1.0000
  C   C3232     1.0  0.90504  0.50087  0.39280  1.0000
  H   H5172     1.0  0.90309  0.53055  0.38356  1.0000
  C   C3233     1.0  0.87132  0.50205  0.32011  1.0000
  H   H5173     1.0  0.92112  0.32770  0.24821  1.0000
  H   H5174     1.0  0.79038  0.36000  0.22887  1.0000
  H   H5175     1.0  0.93692  0.61329  0.47669  1.0000
  H   H5176     1.0  0.81694  0.37629  0.22965  1.0000
  C   C3234     1.0  0.91925  0.32408  0.26040  1.0000
  C   C3235     1.0  0.99440  0.58625  0.42525  1.0000
  H   H5177     1.0  0.95442  0.62956  0.41736  1.0000
  H   H5178     1.0  0.97535  0.48912  0.37045  1.0000
  C   C3236     1.0  0.97119  0.32300  0.29767  1.0000
  H   H5179     1.0  0.95110  0.64450  0.43552  1.0000
  H   H5180     1.0  0.97138  0.54568  0.47408  1.0000
  N   N324      1.0  0.99392  0.54859  0.46925  1.0000
  C   C3237     1.0  0.80121  0.33534  0.24737  1.0000
  H   H5181     1.0  0.98373  0.49154  0.35101  1.0000
  Fe  Fe641     1.0  0.99028  0.57055  0.27456  1.0000
  C   C3238     1.0  0.99291  0.51635  0.34816  1.0000
  H   H5182     1.0  0.98803  0.59228  0.31680  1.0000
  C   C3239     1.0  0.90792  0.58517  0.47521  1.0000
  H   H5183     1.0  0.86081  0.34830  0.22994  1.0000
  C   C3240     1.0  0.98401  0.49408  0.36150  1.0000
  C   C3241     1.0  0.94472  0.32416  0.30772  1.0000
  H   H5184     1.0  0.80947  0.34255  0.24196  1.0000
  H   H5185     1.0  0.99274  0.50784  0.37732  1.0000
  H   H5186     1.0  0.91396  0.51941  0.22807  1.0000
  H   H5187     1.0  0.84381  0.50035  0.22809  1.0000
  C   C3242     1.0  0.93328  0.39635  0.69519  1.0000
  C   C3243     1.0  0.97163  0.60930  0.61452  1.0000
  N   N325      1.0  0.94710  0.63522  0.51344  1.0000
  S   S1294     1.0  0.97755  0.62452  0.69147  1.0000
  H   H5188     1.0  0.98468  0.52920  0.47967  1.0000
  C   C3244     1.0  0.89505  0.60804  0.48307  1.0000
  C   C3245     1.0  0.94909  0.31871  0.62964  1.0000
  Fe  Fe642     1.0  0.95415  0.34126  0.65119  1.0000
  C   C3246     1.0  0.97601  0.46618  0.72667  1.0000
  S   S1295     1.0  0.96533  0.61650  0.63057  1.0000
  H   H5189     1.0  0.93828  0.61626  0.52683  1.0000
  C   C3247     1.0  0.95670  0.63438  0.52344  1.0000
  H   H5190     1.0  0.91703  0.57791  0.50090  1.0000
  H   H5191     1.0  0.96514  0.56331  0.68696  1.0000
  H   H5192     1.0  0.91469  0.37752  0.70562  1.0000
  H   H5193     1.0  0.91043  0.39751  0.71888  1.0000
  H   H5194     1.0  0.90051  0.38839  0.69569  1.0000
  C   C3248     1.0  0.91262  0.38627  0.69562  1.0000
  C   C3249     1.0  0.97494  0.55635  0.69162  1.0000
  H   H5195     1.0  0.94919  0.61295  0.61152  1.0000
  H   H5196     1.0  0.97849  0.54350  0.49010  1.0000
  S   S1296     1.0  0.94644  0.39644  0.65003  1.0000
  C   C3250     1.0  0.92882  0.50235  0.71127  1.0000
  H   H5197     1.0  0.98284  0.55051  0.68306  1.0000
  H   H5198     1.0  0.92044  0.40684  0.67162  1.0000
  H   H5199     1.0  0.97673  0.57907  0.71210  1.0000
  C   C3251     1.0  0.98682  0.60364  0.60913  1.0000
  H   H5200     1.0  0.90488  0.32781  0.56388  1.0000
  N   N326      1.0  0.97157  0.55390  0.61747  1.0000
  C   C3252     1.0  0.96255  0.56527  0.62593  1.0000
  H   H5201     1.0  0.95043  0.56506  0.62880  1.0000
  Fe  Fe643     1.0  0.93553  0.34854  0.68043  1.0000
  S   S1297     1.0  0.95095  0.36191  0.68110  1.0000
  S   S1298     1.0  0.91746  0.34810  0.70118  1.0000
  Fe  Fe644     1.0  0.96926  0.34330  0.67413  1.0000
  C   C3253     1.0  0.97372  0.40579  0.67015  1.0000
  C   C3254     1.0  0.98162  0.54141  0.47872  1.0000
  H   H5202     1.0  0.89296  0.57275  0.50173  1.0000
  C   C3255     1.0  0.95483  0.40564  0.65779  1.0000
  C   C3256     1.0  0.98824  0.35153  0.71798  1.0000
  H   H5203     1.0  0.96216  0.33158  0.72147  1.0000
  Fe  Fe645     1.0  0.96944  0.45533  0.67412  1.0000
  S   S1299     1.0  0.95056  0.47015  0.66385  1.0000
  S   S1300     1.0  0.96282  0.46503  0.69414  1.0000
  H   H5204     1.0  0.93588  0.38777  0.70513  1.0000
  H   H5205     1.0  0.97551  0.60799  0.72127  1.0000
  H   H5206     1.0  0.95323  0.45450  0.63819  1.0000
  N   N327      1.0  0.91714  0.39988  0.69527  1.0000
  C   C3257     1.0  0.95897  0.46065  0.62751  1.0000
  H   H5207     1.0  0.92183  0.33161  0.58520  1.0000
  C   C3258     1.0  0.96802  0.42096  0.66983  1.0000
  C   C3259     1.0  0.98739  0.49894  0.70191  1.0000
  C   C3260     1.0  0.97289  0.50775  0.70303  1.0000
  H   H5208     1.0  0.95076  0.43992  0.66393  1.0000
  H   H5209     1.0  0.94779  0.33416  0.70320  1.0000
  H   H5210     1.0  0.98599  0.46910  0.72804  1.0000
  C   C3261     1.0  0.94220  0.33833  0.71305  1.0000
  C   C3262     1.0  0.92695  0.34503  0.71534  1.0000
  H   H5211     1.0  0.95928  0.63675  0.57069  1.0000
  S   S1301     1.0  0.95997  0.32938  0.63242  1.0000
  C   C3263     1.0  0.99119  0.59672  0.59706  1.0000
  H   H5212     1.0  0.91899  0.38146  0.68582  1.0000
  C   C3264     1.0  0.94896  0.42074  0.65770  1.0000
  H   H5213     1.0  0.98737  0.43193  0.61843  1.0000
  C   C3265     1.0  0.98633  0.60365  0.71480  1.0000
  S   S1302     1.0  0.92220  0.48378  0.69819  1.0000
  Fe  Fe646     1.0  0.95105  0.37145  0.65732  1.0000
  H   H5214     1.0  0.95901  0.64541  0.52239  1.0000
  H   H5215     1.0  0.96502  0.38434  0.72379  1.0000
  C   C3266     1.0  0.95042  0.57296  0.48473  1.0000
  C   C3267     1.0  0.92135  0.64897  0.55854  1.0000
  S   S1303     1.0  0.93410  0.35944  0.65686  1.0000
  H   H5216     1.0  0.98133  0.47309  0.60963  1.0000
  H   H5217     1.0  0.95702  0.60167  0.58985  1.0000
  C   C3268     1.0  0.95544  0.42834  0.66386  1.0000
  C   C3269     1.0  0.96708  0.39810  0.66422  1.0000
  C   C3270     1.0  0.98749  0.55482  0.61352  1.0000
  H   H5218     1.0  0.95820  0.53780  0.62935  1.0000
  S   S1304     1.0  0.97710  0.43042  0.67661  1.0000
  C   C3271     1.0  0.98284  0.45211  0.63463  1.0000
  H   H5219     1.0  0.91790  0.42140  0.68092  1.0000
  Fe  Fe647     1.0  0.94503  0.48102  0.68314  1.0000
  S   S1305     1.0  0.99393  0.48592  0.69066  1.0000
  H   H5220     1.0  0.96618  0.56359  0.63639  1.0000
  H   H5221     1.0  0.96693  0.56781  0.59694  1.0000
  H   H5222     1.0  0.98904  0.56588  0.60653  1.0000
  C   C3272     1.0  0.97558  0.43791  0.62185  1.0000
  Fe  Fe648     1.0  0.97702  0.48137  0.68112  1.0000
  H   H5223     1.0  0.98347  0.40003  0.67472  1.0000
  H   H5224     1.0  0.93720  0.62060  0.50775  1.0000
  C   C3273     1.0  0.97703  0.51877  0.72098  1.0000
  C   C3274     1.0  0.96619  0.55656  0.60382  1.0000
  H   H5225     1.0  0.89620  0.40847  0.70897  1.0000
  Fe  Fe649     1.0  0.96602  0.48594  0.65308  1.0000
  H   H5226     1.0  0.93937  0.42655  0.65288  1.0000
  Fe  Fe650     1.0  0.94323  0.56524  0.57350  1.0000
  S   S1306     1.0  0.96739  0.56195  0.56128  1.0000
  S   S1307     1.0  0.93235  0.54798  0.59115  1.0000
  Fe  Fe651     1.0  0.93682  0.59851  0.56018  1.0000
  S   S1308     1.0  0.96040  0.59759  0.54735  1.0000
  S   S1309     1.0  0.92106  0.62091  0.55751  1.0000
  Fe  Fe652     1.0  0.95825  0.57726  0.54180  1.0000
  S   S1310     1.0  0.96614  0.57834  0.51717  1.0000
  Fe  Fe653     1.0  0.96691  0.58274  0.56796  1.0000
  S   S1311     1.0  0.93409  0.57906  0.55350  1.0000
  S   S1312     1.0  0.94331  0.58507  0.58131  1.0000
  C   C3275     1.0  0.96095  0.60854  0.60747  1.0000
  H   H5227     1.0  0.96751  0.56382  0.71787  1.0000
  H   H5228     1.0  0.99472  0.44603  0.63206  1.0000
  H   H5229     1.0  0.92669  0.64211  0.52868  1.0000
  H   H5230     1.0  0.97751  0.44627  0.64572  1.0000
  S   S1313     1.0  0.95385  0.32915  0.67483  1.0000
  H   H5231     1.0  0.95616  0.49237  0.72766  1.0000
  C   C3276     1.0  0.92153  0.49094  0.71327  1.0000
  H   H5232     1.0  0.97297  0.54849  0.59689  1.0000
  S   S1314     1.0  0.96729  0.64093  0.65313  1.0000
  H   H5233     1.0  0.96764  0.62645  0.52114  1.0000
  H   H5234     1.0  0.91160  0.41603  0.70860  1.0000
  S   S1315     1.0  0.95872  0.49832  0.67146  1.0000
  N   N328      1.0  0.90105  0.59201  0.48816  1.0000
  C   C3277     1.0  0.99542  0.55571  0.70206  1.0000
  C   C3278     1.0  0.95662  0.57187  0.50787  1.0000
  C   C3279     1.0  0.95636  0.57877  0.49307  1.0000
  H   H5235     1.0  0.89028  0.61372  0.49248  1.0000
  C   C3280     1.0  0.92788  0.50828  0.72330  1.0000
  C   C3281     1.0  0.94476  0.55336  0.50594  1.0000
  C   C3282     1.0  0.95045  0.55935  0.51443  1.0000
  H   H5236     1.0  0.99513  0.60422  0.61451  1.0000
  H   H5237     1.0  0.94049  0.54337  0.51092  1.0000
  H   H5238     1.0  0.95062  0.55395  0.52586  1.0000
  C   C3283     1.0  0.98713  0.57703  0.68362  1.0000
  H   H5239     1.0  0.96557  0.50681  0.69672  1.0000
  C   C3284     1.0  0.95038  0.33685  0.72350  1.0000
  H   H5240     1.0  0.92212  0.59481  0.48974  1.0000
  C   C3285     1.0  0.92858  0.63396  0.56105  1.0000
  H   H5241     1.0  0.95426  0.55575  0.60628  1.0000
  C   C3286     1.0  0.94506  0.55996  0.49094  1.0000
  C   C3287     1.0  0.94216  0.62958  0.56560  1.0000
  H   H5242     1.0  0.94008  0.39196  0.68530  1.0000
  Fe  Fe654     1.0  0.98064  0.62553  0.63814  1.0000
  H   H5243     1.0  0.94777  0.61802  0.56768  1.0000
  C   C3288     1.0  0.94354  0.53309  0.60140  1.0000
  C   C3289     1.0  0.93736  0.52670  0.61605  1.0000
  C   C3290     1.0  0.95850  0.52753  0.59518  1.0000
  H   H5244     1.0  0.92575  0.53091  0.62089  1.0000
  H   H5245     1.0  0.96329  0.53225  0.58384  1.0000
  C   C3291     1.0  0.95470  0.64041  0.49796  1.0000
  C   C3292     1.0  0.90845  0.40574  0.70851  1.0000
  H   H5246     1.0  0.93014  0.32340  0.64735  1.0000
  C   C3293     1.0  0.94617  0.51500  0.62453  1.0000
  H   H5247     1.0  0.90782  0.59517  0.50637  1.0000
  S   S1316     1.0  0.97280  0.49506  0.62842  1.0000
  S   S1317     1.0  0.97114  0.35417  0.65004  1.0000
  H   H5248     1.0  0.97079  0.54771  0.70109  1.0000
  C   C3294     1.0  0.91425  0.41110  0.68177  1.0000
  H   H5249     1.0  0.97167  0.38644  0.66430  1.0000
  N   N329      1.0  0.98226  0.56536  0.69635  1.0000
  H   H5250     1.0  0.99195  0.55301  0.62353  1.0000
  H   H5251     1.0  0.93479  0.50689  0.70036  1.0000
  N   N330      1.0  0.97482  0.45305  0.62322  1.0000
  H   H5252     1.0  0.95262  0.46177  0.61904  1.0000
  C   C3295     1.0  0.91248  0.58990  0.49667  1.0000
  H   H5253     1.0  0.99214  0.54670  0.71159  1.0000
  H   H5254     1.0  0.94729  0.47185  0.72505  1.0000
  Fe  Fe655     1.0  0.98443  0.63003  0.66677  1.0000
  C   C3296     1.0  0.88875  0.58486  0.49769  1.0000
  H   H5255     1.0  0.95803  0.47204  0.62885  1.0000
  H   H5256     1.0  0.88331  0.58976  0.50758  1.0000
  C   C3297     1.0  0.96775  0.51769  0.71252  1.0000
  H   H5257     1.0  0.97374  0.53663  0.63704  1.0000
  C   C3298     1.0  0.97152  0.57233  0.70814  1.0000
  H   H5258     1.0  0.97398  0.47260  0.71563  1.0000
  H   H5259     1.0  0.97989  0.36531  0.69219  1.0000
  C   C3299     1.0  0.97003  0.53899  0.62651  1.0000
  C   C3300     1.0  0.96723  0.51570  0.60356  1.0000
  S   S1318     1.0  0.98692  0.33562  0.68768  1.0000
  H   H5260     1.0  0.97618  0.46246  0.60000  1.0000
  C   C3301     1.0  0.97237  0.36889  0.70229  1.0000
  C   C3302     1.0  0.91367  0.48522  0.72742  1.0000
  C   C3303     1.0  0.96114  0.50948  0.61827  1.0000
  H   H5261     1.0  0.94137  0.51025  0.63586  1.0000
  H   H5262     1.0  0.93716  0.40637  0.69485  1.0000
  H   H5263     1.0  0.90214  0.41419  0.68155  1.0000
  H   H5264     1.0  0.94206  0.64031  0.61252  1.0000
  H   H5265     1.0  0.95125  0.63055  0.53519  1.0000
  H   H5266     1.0  0.96153  0.57986  0.70418  1.0000
  H   H5267     1.0  0.94772  0.64122  0.49012  1.0000
  H   H5268     1.0  0.95488  0.61202  0.51298  1.0000
  C   C3304     1.0  0.91409  0.32384  0.58905  1.0000
  C   C3305     1.0  0.94425  0.62038  0.51531  1.0000
  H   H5269     1.0  0.97063  0.43112  0.63256  1.0000
  H   H5270     1.0  0.93314  0.51739  0.72164  1.0000
  S   S1319     1.0  0.98543  0.47020  0.66202  1.0000
  C   C3306     1.0  0.96535  0.60196  0.59525  1.0000
  C   C3307     1.0  0.98041  0.59566  0.59023  1.0000
  S   S1320     1.0  0.93918  0.55152  0.48011  1.0000
  H   H5271     1.0  0.97880  0.51145  0.59864  1.0000
  H   H5272     1.0  0.96649  0.38058  0.69879  1.0000
  C   C3308     1.0  0.94868  0.64021  0.56730  1.0000
  N   N331      1.0  0.98087  0.36729  0.71352  1.0000
  C   C3309     1.0  0.93270  0.64575  0.51707  1.0000
  C   C3310     1.0  0.91651  0.32133  0.56417  1.0000
  H   H5273     1.0  0.96389  0.36186  0.70657  1.0000
  H   H5274     1.0  0.96363  0.57663  0.61943  1.0000
  C   C3311     1.0  0.99160  0.51009  0.71974  1.0000
  S   S1321     1.0  0.98579  0.58538  0.57633  1.0000
  H   H5275     1.0  0.96093  0.58858  0.48799  1.0000
  H   H5276     1.0  0.92415  0.32920  0.55949  1.0000
  H   H5277     1.0  0.97747  0.58467  0.67913  1.0000
  C   C3312     1.0  0.99235  0.37634  0.70720  1.0000
  H   H5278     1.0  0.98717  0.38830  0.70360  1.0000
  H   H5279     1.0  0.87996  0.58613  0.49161  1.0000
  H   H5280     1.0  0.99459  0.54642  0.60707  1.0000
  H   H5281     1.0  0.97690  0.53014  0.62051  1.0000
  H   H5282     1.0  0.95651  0.52446  0.71340  1.0000
  S   S1322     1.0  0.91991  0.64167  0.48230  1.0000
  H   H5283     1.0  0.96560  0.63270  0.49486  1.0000
  H   H5284     1.0  0.92517  0.64659  0.50974  1.0000
  H   H5285     1.0  0.97987  0.34442  0.72287  1.0000
  H   H5286     1.0  0.96731  0.64425  0.60977  1.0000
  H   H5287     1.0  0.96937  0.43813  0.61355  1.0000
  C   C3313     1.0  0.98188  0.46157  0.60892  1.0000
  H   H5288     1.0  0.98292  0.46334  0.63558  1.0000
  H   H5289     1.0  0.97897  0.45421  0.72640  1.0000
  H   H5290     1.0  0.94774  0.64647  0.63292  1.0000
  H   H5291     1.0  0.90244  0.33056  0.58949  1.0000
  C   C3314     1.0  0.99040  0.61008  0.69977  1.0000
  C   C3315     1.0  0.97052  0.37239  0.72660  1.0000
  H   H5292     1.0  0.99392  0.45631  0.60543  1.0000
  S   S1323     1.0  0.99508  0.64134  0.62386  1.0000
  H   H5293     1.0  0.99275  0.58395  0.68684  1.0000
  H   H5294     1.0  0.99483  0.34986  0.72641  1.0000
  H   H5295     1.0  0.98729  0.56672  0.48032  1.0000
  H   H5296     1.0  0.99521  0.57221  0.67446  1.0000
  H   H5297     1.0  0.91212  0.57299  0.47864  1.0000
  Fe  Fe656     1.0  0.70412  0.36281  0.91154  1.0000
  S   S1324     1.0  0.69321  0.38735  0.90901  1.0000
  S   S1325     1.0  0.69306  0.34343  0.92322  1.0000
  Fe  Fe657     1.0  0.88509  0.50775  0.97669  1.0000
  H   H5298     1.0  0.88432  0.33093  0.95723  1.0000
  Fe  Fe658     1.0  0.71369  0.45216  0.92906  1.0000
  S   S1326     1.0  0.70506  0.46819  0.90985  1.0000
  S   S1327     1.0  0.71875  0.42712  0.93420  1.0000
  C   C3316     1.0  0.75251  0.49522  0.88787  1.0000
  S   S1328     1.0  0.69748  0.46403  0.94613  1.0000
  H   H5299     1.0  0.90250  0.32692  0.91879  1.0000
  S   S1329     1.0  0.72131  0.48136  0.96124  1.0000
  C   C3317     1.0  0.77544  0.48854  0.89710  1.0000
  Fe  Fe659     1.0  0.69017  0.48103  0.92678  1.0000
  H   H5300     1.0  0.81491  0.32831  0.88891  1.0000
  C   C3318     1.0  0.67342  0.42184  0.94744  1.0000
  H   H5301     1.0  0.71100  0.38018  0.93107  1.0000
  C   C3319     1.0  0.82357  0.50243  0.97592  1.0000
  C   C3320     1.0  0.66860  0.51698  0.93027  1.0000
  H   H5302     1.0  0.76172  0.39012  0.89732  1.0000
  C   C3321     1.0  0.76036  0.39140  0.88589  1.0000
  H   H5303     1.0  0.68478  0.50747  0.90195  1.0000
  Fe  Fe660     1.0  0.98639  0.53455  0.74396  1.0000
  S   S1330     1.0  0.72456  0.35285  0.92098  1.0000
  S   S1331     1.0  0.71446  0.35439  0.89063  1.0000
  Fe  Fe661     1.0  0.71519  0.47668  0.94240  1.0000
  Fe  Fe662     1.0  0.73422  0.34296  0.90097  1.0000
  C   C3322     1.0  0.70045  0.39838  0.91589  1.0000
  C   C3323     1.0  0.70903  0.39201  0.92660  1.0000
  C   C3324     1.0  0.71476  0.40098  0.93189  1.0000
  C   C3325     1.0  0.71201  0.41639  0.92650  1.0000
  C   C3326     1.0  0.70363  0.42280  0.91559  1.0000
  C   C3327     1.0  0.69767  0.41383  0.91047  1.0000
  H   H5304     1.0  0.70177  0.43462  0.91108  1.0000
  H   H5305     1.0  0.69111  0.41880  0.90210  1.0000
  S   S1332     1.0  0.73217  0.46341  0.92704  1.0000
  H   H5306     1.0  0.92258  0.47983  0.85502  1.0000
  H   H5307     1.0  0.66292  0.43534  0.97050  1.0000
  Fe  Fe663     1.0  0.71478  0.33266  0.93058  1.0000
  H   H5308     1.0  0.72120  0.39594  0.94036  1.0000
  H   H5309     1.0  0.74826  0.40486  0.86215  1.0000
  Fe  Fe664     1.0  0.70492  0.33428  0.90296  1.0000
  C   C3328     1.0  0.74320  0.39577  0.87008  1.0000
  H   H5310     1.0  0.74161  0.41804  0.88290  1.0000
  H   H5311     1.0  0.75936  0.44465  0.96273  1.0000
  H   H5312     1.0  0.76593  0.40042  0.87860  1.0000
  C   C3329     1.0  0.81125  0.55889  0.97709  1.0000
  H   H5313     1.0  0.73127  0.39802  0.86934  1.0000
  Fe  Fe665     1.0  0.72221  0.48049  0.90930  1.0000
  H   H5314     1.0  0.74903  0.38526  0.86630  1.0000
  N   N332      1.0  0.74441  0.39456  0.88533  1.0000
  H   H5315     1.0  0.67275  0.41869  0.93741  1.0000
  C   C3330     1.0  0.73653  0.40862  0.89001  1.0000
  H   H5316     1.0  0.72453  0.41145  0.88945  1.0000
  H   H5317     1.0  0.69907  0.52503  0.86284  1.0000
  H   H5318     1.0  0.91690  0.51628  0.93776  1.0000
  C   C3331     1.0  0.91469  0.50490  0.94165  1.0000
  H   H5319     1.0  0.82631  0.33298  0.96306  1.0000
  S   S1333     1.0  0.68144  0.61786  0.95585  1.0000
  H   H5320     1.0  0.94578  0.31961  0.84989  1.0000
  C   C3332     1.0  0.66474  0.53240  0.92886  1.0000
  H   H5321     1.0  0.67828  0.51058  0.93462  1.0000
  H   H5322     1.0  0.68630  0.57251  0.95536  1.0000
  H   H5323     1.0  0.74421  0.51650  0.97055  1.0000
  H   H5324     1.0  0.71006  0.53424  0.96104  1.0000
  C   C3333     1.0  0.70407  0.52700  0.87106  1.0000
  H   H5325     1.0  0.71182  0.60199  0.94524  1.0000
  H   H5326     1.0  0.72859  0.50146  0.93308  1.0000
  C   C3334     1.0  0.70987  0.60069  0.95707  1.0000
  S   S1334     1.0  0.70654  0.49467  0.92448  1.0000
  H   H5327     1.0  0.81936  0.32565  0.91976  1.0000
  C   C3335     1.0  0.70145  0.52744  0.89653  1.0000
  C   C3336     1.0  0.73152  0.50493  0.94138  1.0000
  N   N333      1.0  0.66719  0.43784  0.94693  1.0000
  N   N334      1.0  0.69424  0.52489  0.88601  1.0000
  H   H5328     1.0  0.88880  0.32125  0.93498  1.0000
  H   H5329     1.0  0.97709  0.49781  0.81522  1.0000
  C   C3337     1.0  0.72912  0.49702  0.95608  1.0000
  H   H5330     1.0  0.79237  0.33634  0.96856  1.0000
  H   H5331     1.0  0.94064  0.49083  0.92668  1.0000
  H   H5332     1.0  0.99277  0.58632  0.73299  1.0000
  Fe  Fe666     1.0  0.66388  0.62910  0.97273  1.0000
  S   S1335     1.0  0.73471  0.49276  0.88822  1.0000
  H   H5333     1.0  0.68737  0.44425  0.93331  1.0000
  C   C3338     1.0  0.72127  0.59236  0.96467  1.0000
  C   C3339     1.0  0.73815  0.51717  0.93725  1.0000
  H   H5334     1.0  0.73202  0.58729  0.95868  1.0000
  H   H5335     1.0  0.96886  0.48922  0.73943  1.0000
  C   C3340     1.0  0.67962  0.53549  0.88587  1.0000
  H   H5336     1.0  0.93743  0.32980  0.83442  1.0000
  C   C3341     1.0  0.88950  0.49890  0.84555  1.0000
  C   C3342     1.0  0.69604  0.60755  0.96482  1.0000
  H   H5337     1.0  0.74359  0.32793  0.93268  1.0000
  Fe  Fe667     1.0  0.78224  0.55244  0.96518  1.0000
  H   H5338     1.0  0.71250  0.51957  0.89694  1.0000
  H   H5339     1.0  0.88754  0.36049  0.93470  1.0000
  H   H5340     1.0  0.68545  0.41872  0.94804  1.0000
  H   H5341     1.0  0.69434  0.52594  0.90793  1.0000
  S   S1336     1.0  0.88249  0.48934  0.96810  1.0000
  C   C3343     1.0  0.98886  0.33693  0.82120  1.0000
  C   C3344     1.0  0.74056  0.51338  0.96242  1.0000
  C   C3345     1.0  0.88813  0.35043  0.93083  1.0000
  H   H5342     1.0  0.74665  0.45757  0.95205  1.0000
  H   H5343     1.0  0.73992  0.52326  0.92586  1.0000
  S   S1337     1.0  0.75044  0.53706  0.94237  1.0000
  C   C3346     1.0  0.74261  0.52144  0.94777  1.0000
  H   H5344     1.0  0.68088  0.54719  0.88278  1.0000
  S   S1338     1.0  0.94860  0.33886  0.79065  1.0000
  Fe  Fe668     1.0  0.93131  0.37997  0.77732  1.0000
  S   S1339     1.0  0.92074  0.36201  0.77678  1.0000
  Fe  Fe669     1.0  0.92583  0.35183  0.79935  1.0000
  S   S1340     1.0  0.91161  0.33964  0.81925  1.0000
  Fe  Fe670     1.0  0.94443  0.35074  0.76823  1.0000
  S   S1341     1.0  0.95404  0.33871  0.74965  1.0000
  S   S1342     1.0  0.93423  0.37085  0.80070  1.0000
  H   H5345     1.0  0.77853  0.44164  0.93935  1.0000
  C   C3347     1.0  0.94981  0.46572  0.73603  1.0000
  H   H5346     1.0  0.95617  0.46376  0.76211  1.0000
  C   C3348     1.0  0.89540  0.33406  0.95294  1.0000
  C   C3349     1.0  0.94676  0.50827  0.83338  1.0000
  H   H5347     1.0  0.70343  0.53888  0.89338  1.0000
  Fe  Fe671     1.0  0.84969  0.36979  0.87878  1.0000
  S   S1343     1.0  0.86363  0.35743  0.89547  1.0000
  S   S1344     1.0  0.86007  0.38137  0.85605  1.0000
  Fe  Fe672     1.0  0.82034  0.36835  0.90117  1.0000
  S   S1345     1.0  0.83153  0.35640  0.91993  1.0000
  S   S1346     1.0  0.79534  0.37387  0.90811  1.0000
  Fe  Fe673     1.0  0.84726  0.37178  0.91007  1.0000
  S   S1347     1.0  0.85718  0.38175  0.92244  1.0000
  Fe  Fe674     1.0  0.84699  0.34288  0.90397  1.0000
  S   S1348     1.0  0.83439  0.38535  0.89287  1.0000
  S   S1349     1.0  0.83449  0.35363  0.88571  1.0000
  C   C3350     1.0  0.97324  0.33244  0.84591  1.0000
  C   C3351     1.0  0.76366  0.47799  0.93996  1.0000
  Fe  Fe675     1.0  0.84680  0.46943  0.89709  1.0000
  H   H5348     1.0  0.75428  0.47979  0.93446  1.0000
  S   S1350     1.0  0.75819  0.34139  0.88804  1.0000
  C   C3352     1.0  0.91980  0.35000  0.72844  1.0000
  Fe  Fe676     1.0  0.82132  0.46014  0.92127  1.0000
  S   S1351     1.0  0.82571  0.46368  0.89663  1.0000
  S   S1352     1.0  0.81151  0.44069  0.93487  1.0000
  H   H5349     1.0  0.96436  0.46611  0.83951  1.0000
  H   H5350     1.0  0.87933  0.43861  0.82189  1.0000
  C   C3353     1.0  0.73751  0.38238  0.89536  1.0000
  S   S1353     1.0  0.84321  0.46409  0.92184  1.0000
  C   C3354     1.0  0.87200  0.46304  0.86546  1.0000
  S   S1354     1.0  0.86963  0.45987  0.88465  1.0000
  S   S1355     1.0  0.92173  0.46933  0.81363  1.0000
  H   H5351     1.0  0.91295  0.40793  0.79896  1.0000
  Fe  Fe677     1.0  0.93388  0.46449  0.79137  1.0000
  S   S1356     1.0  0.95113  0.44344  0.78937  1.0000
  S   S1357     1.0  0.91347  0.47098  0.78180  1.0000
  H   H5352     1.0  0.75670  0.47779  0.90685  1.0000
  C   C3355     1.0  0.85803  0.32729  0.94989  1.0000
  H   H5353     1.0  0.79290  0.32492  0.95653  1.0000
  C   C3356     1.0  0.96121  0.34285  0.84079  1.0000
  H   H5354     1.0  0.71881  0.55589  0.94421  1.0000
  H   H5355     1.0  0.80246  0.33432  0.91320  1.0000
  C   C3357     1.0  0.69187  0.50957  0.89061  1.0000
  H   H5356     1.0  0.75462  0.34962  0.91569  1.0000
  S   S1358     1.0  0.95456  0.36950  0.76699  1.0000
  Fe  Fe678     1.0  0.90361  0.53038  0.97142  1.0000
  C   C3358     1.0  0.96273  0.48658  0.84545  1.0000
  H   H5357     1.0  0.92206  0.43522  0.75913  1.0000
  H   H5358     1.0  0.89439  0.40474  0.80599  1.0000
  H   H5359     1.0  0.95192  0.45365  0.73642  1.0000
  H   H5360     1.0  0.77290  0.48246  0.93151  1.0000
  H   H5361     1.0  0.72614  0.55901  0.95799  1.0000
  C   C3359     1.0  0.84434  0.39743  0.92754  1.0000
  C   C3360     1.0  0.82899  0.39881  0.92914  1.0000
  C   C3361     1.0  0.81887  0.41199  0.93185  1.0000
  C   C3362     1.0  0.82415  0.42393  0.93252  1.0000
  C   C3363     1.0  0.83950  0.42253  0.93095  1.0000
  C   C3364     1.0  0.84956  0.40917  0.92876  1.0000
  H   H5362     1.0  0.82491  0.38978  0.92814  1.0000
  H   H5363     1.0  0.80700  0.41306  0.93303  1.0000
  H   H5364     1.0  0.84360  0.43166  0.93162  1.0000
  H   H5365     1.0  0.86143  0.40811  0.92757  1.0000
  C   C3365     1.0  0.78635  0.36297  0.90329  1.0000
  C   C3366     1.0  0.77299  0.35969  0.91261  1.0000
  C   C3367     1.0  0.76480  0.35219  0.90837  1.0000
  C   C3368     1.0  0.76964  0.34837  0.89461  1.0000
  C   C3369     1.0  0.78342  0.35098  0.88558  1.0000
  C   C3370     1.0  0.79183  0.35823  0.88996  1.0000
  H   H5366     1.0  0.76884  0.36315  0.92304  1.0000
  H   H5367     1.0  0.76664  0.38095  0.88224  1.0000
  H   H5368     1.0  0.78726  0.34797  0.87493  1.0000
  H   H5369     1.0  0.80210  0.36085  0.88266  1.0000
  Fe  Fe679     1.0  0.90167  0.47737  0.80342  1.0000
  H   H5370     1.0  0.69166  0.55515  0.94966  1.0000
  H   H5371     1.0  0.78379  0.45770  0.92637  1.0000
  Fe  Fe680     1.0  0.95670  0.35864  0.79024  1.0000
  H   H5372     1.0  0.78219  0.48157  0.90483  1.0000
  C   C3371     1.0  0.98248  0.54547  0.80771  1.0000
  C   C3372     1.0  0.95938  0.47787  0.83786  1.0000
  H   H5373     1.0  0.87670  0.34814  0.93450  1.0000
  H   H5374     1.0  0.89480  0.45045  0.86259  1.0000
  N   N335      1.0  0.89938  0.33761  0.93659  1.0000
  C   C3373     1.0  0.89744  0.35135  0.82947  1.0000
  C   C3374     1.0  0.88927  0.34520  0.84328  1.0000
  C   C3375     1.0  0.87785  0.35437  0.85157  1.0000
  C   C3376     1.0  0.87448  0.36970  0.84600  1.0000
  C   C3377     1.0  0.88265  0.37585  0.83220  1.0000
  C   C3378     1.0  0.89416  0.36670  0.82396  1.0000
  H   H5375     1.0  0.89175  0.33333  0.84754  1.0000
  H   H5376     1.0  0.87156  0.34955  0.86219  1.0000
  H   H5377     1.0  0.87997  0.38768  0.82784  1.0000
  H   H5378     1.0  0.90032  0.37148  0.81326  1.0000
  C   C3379     1.0  0.93296  0.41470  0.77154  1.0000
  C   C3380     1.0  0.94333  0.40810  0.78056  1.0000
  C   C3381     1.0  0.94965  0.41695  0.78535  1.0000
  C   C3382     1.0  0.94564  0.43240  0.78106  1.0000
  C   C3383     1.0  0.93621  0.43892  0.77110  1.0000
  C   C3384     1.0  0.92982  0.43009  0.76638  1.0000
  H   H5379     1.0  0.94617  0.39620  0.78425  1.0000
  H   H5380     1.0  0.95714  0.41183  0.79287  1.0000
  H   H5381     1.0  0.93366  0.45075  0.76718  1.0000
  H   H5382     1.0  0.90494  0.44314  0.81120  1.0000
  H   H5383     1.0  0.67191  0.53395  0.89697  1.0000
  H   H5384     1.0  0.92234  0.49822  0.94913  1.0000
  H   H5385     1.0  0.92248  0.35213  0.74922  1.0000
  S   S1359     1.0  0.92273  0.40402  0.76798  1.0000
  C   C3385     1.0  0.86261  0.47370  0.84300  1.0000
  C   C3386     1.0  0.86639  0.48272  0.95237  1.0000
  H   H5386     1.0  0.67458  0.62901  0.91048  1.0000
  H   H5387     1.0  0.70268  0.50126  0.89062  1.0000
  H   H5388     1.0  0.88711  0.42057  0.83192  1.0000
  H   H5389     1.0  0.87488  0.42230  0.82007  1.0000
  H   H5390     1.0  0.90611  0.40260  0.81851  1.0000
  H   H5391     1.0  0.99280  0.53334  0.82617  1.0000
  H   H5392     1.0  0.91890  0.43035  0.80140  1.0000
  S   S1360     1.0  0.97551  0.47836  0.85697  1.0000
  C   C3387     1.0  0.85543  0.48602  0.94409  1.0000
  C   C3388     1.0  0.86036  0.47136  0.85842  1.0000
  H   H5393     1.0  0.98346  0.50854  0.82381  1.0000
  H   H5394     1.0  0.89483  0.34366  0.95751  1.0000
  C   C3389     1.0  0.80892  0.32354  0.91848  1.0000
  H   H5395     1.0  0.85658  0.33929  0.92786  1.0000
  S   S1361     1.0  0.99560  0.48572  0.88339  1.0000
  C   C3390     1.0  0.70757  0.53992  0.97033  1.0000
  H   H5396     1.0  0.66721  0.64292  0.93727  1.0000
  C   C3391     1.0  0.77431  0.45363  0.93482  1.0000
  H   H5397     1.0  0.96816  0.44890  0.75382  1.0000
  H   H5398     1.0  0.72540  0.38449  0.89536  1.0000
  H   H5399     1.0  0.97572  0.46354  0.75511  1.0000
  H   H5400     1.0  0.74295  0.37166  0.89195  1.0000
  H   H5401     1.0  0.89837  0.51693  0.85698  1.0000
  H   H5402     1.0  0.92309  0.33189  0.93567  1.0000
  H   H5403     1.0  0.94746  0.47761  0.82199  1.0000
  H   H5404     1.0  0.88458  0.48933  0.84667  1.0000
  S   S1362     1.0  0.97841  0.35455  0.79700  1.0000
  S   S1363     1.0  0.97757  0.54936  0.84994  1.0000
  H   H5405     1.0  0.80205  0.31999  0.92967  1.0000
  H   H5406     1.0  0.88484  0.49814  0.87443  1.0000
  H   H5407     1.0  0.91593  0.47709  0.92575  1.0000
  H   H5408     1.0  0.91448  0.35106  0.93546  1.0000
  Fe  Fe681     1.0  0.98314  0.52599  0.86292  1.0000
  N   N336      1.0  0.85387  0.42242  0.88149  1.0000
  C   C3392     1.0  0.83896  0.42111  0.89102  1.0000
  C   C3393     1.0  0.86036  0.40943  0.87463  1.0000
  C   C3394     1.0  0.86380  0.42301  0.89056  1.0000
  C   C3395     1.0  0.85231  0.43612  0.86982  1.0000
  H   H5409     1.0  0.83384  0.43052  0.89670  1.0000
  H   H5410     1.0  0.83974  0.41080  0.89977  1.0000
  H   H5411     1.0  0.83106  0.42079  0.88458  1.0000
  H   H5412     1.0  0.85305  0.40846  0.86788  1.0000
  H   H5413     1.0  0.87157  0.41007  0.86727  1.0000
  H   H5414     1.0  0.86181  0.39888  0.88314  1.0000
  H   H5415     1.0  0.86586  0.41247  0.89895  1.0000
  H   H5416     1.0  0.85881  0.43214  0.89664  1.0000
  H   H5417     1.0  0.87486  0.42498  0.88364  1.0000
  H   H5418     1.0  0.86333  0.43747  0.86236  1.0000
  H   H5419     1.0  0.84759  0.44610  0.87469  1.0000
  H   H5420     1.0  0.84474  0.43612  0.86289  1.0000
  N   N337      1.0  0.89707  0.42528  0.80869  1.0000
  C   C3396     1.0  0.89246  0.43378  0.79474  1.0000
  C   C3397     1.0  0.90893  0.43121  0.81071  1.0000
  C   C3398     1.0  0.90285  0.40946  0.80805  1.0000
  C   C3399     1.0  0.88401  0.42675  0.82122  1.0000
  H   H5421     1.0  0.90198  0.43270  0.78504  1.0000
  H   H5422     1.0  0.88830  0.44584  0.79474  1.0000
  H   H5423     1.0  0.88340  0.42976  0.79291  1.0000
  H   H5424     1.0  0.91281  0.42503  0.82104  1.0000
  H   H5425     1.0  0.93454  0.50882  0.91575  1.0000
  S   S1364     1.0  0.69517  0.32297  0.89136  1.0000
  S   S1365     1.0  0.83656  0.49365  0.89536  1.0000
  H   H5426     1.0  0.76544  0.45454  0.92897  1.0000
  H   H5427     1.0  0.91233  0.54641  0.77892  1.0000
  H   H5428     1.0  0.75115  0.46294  0.96629  1.0000
  C   C3400     1.0  0.96587  0.46107  0.75299  1.0000
  C   C3401     1.0  0.67523  0.44661  0.93344  1.0000
  H   H5429     1.0  0.91809  0.48616  0.83713  1.0000
  C   C3402     1.0  0.90581  0.50689  0.91999  1.0000
  H   H5430     1.0  0.90380  0.32457  0.95761  1.0000
  H   H5431     1.0  0.73692  0.40789  0.90164  1.0000
  C   C3403     1.0  0.88584  0.45705  0.85712  1.0000
  H   H5432     1.0  0.85291  0.47721  0.94094  1.0000
  H   H5433     1.0  0.91645  0.50502  0.85853  1.0000
  C   C3404     1.0  0.87661  0.46808  0.83461  1.0000
  H   H5434     1.0  0.93950  0.46857  0.74452  1.0000
  C   C3405     1.0  0.88820  0.45967  0.84170  1.0000
  H   H5435     1.0  0.89890  0.45499  0.83534  1.0000
  H   H5436     1.0  0.95050  0.34519  0.84834  1.0000
  C   C3406     1.0  0.82056  0.32519  0.97231  1.0000
  C   C3407     1.0  0.71582  0.56142  0.95368  1.0000
  S   S1366     1.0  0.94003  0.48654  0.78229  1.0000
  Fe  Fe682     1.0  0.91856  0.49363  0.77450  1.0000
  H   H5437     1.0  0.89426  0.50272  0.83355  1.0000
  H   H5438     1.0  0.71521  0.51914  0.87092  1.0000
  H   H5439     1.0  0.88988  0.47953  0.87185  1.0000
  S   S1367     1.0  0.85370  0.31841  0.91312  1.0000
  H   H5440     1.0  0.67235  0.61912  0.92943  1.0000
  H   H5441     1.0  0.68618  0.50732  0.88311  1.0000
  H   H5442     1.0  0.90798  0.47643  0.72898  1.0000
  C   C3408     1.0  0.96281  0.34981  0.82578  1.0000
  S   S1368     1.0  0.77856  0.52986  0.96753  1.0000
  H   H5443     1.0  0.73843  0.38089  0.90696  1.0000
  C   C3409     1.0  0.97661  0.34676  0.81595  1.0000
  N   N338      1.0  0.76864  0.46214  0.94661  1.0000
  H   H5444     1.0  0.95340  0.35756  0.82182  1.0000
  C   C3410     1.0  0.89977  0.32459  0.93109  1.0000
  C   C3411     1.0  0.94334  0.34179  0.73656  1.0000
  N   N339      1.0  0.70338  0.55622  0.96529  1.0000
  C   C3412     1.0  0.78066  0.46038  0.95428  1.0000
  C   C3413     1.0  0.98571  0.50420  0.81367  1.0000
  H   H5445     1.0  0.88012  0.50797  0.84911  1.0000
  H   H5446     1.0  0.67418  0.44408  0.92326  1.0000
  H   H5447     1.0  0.87234  0.47135  0.95550  1.0000
  H   H5448     1.0  0.67176  0.53781  0.93172  1.0000
  H   H5449     1.0  0.90727  0.48625  0.75048  1.0000
  S   S1369     1.0  0.87947  0.47152  0.81533  1.0000
  S   S1370     1.0  0.80867  0.48348  0.92204  1.0000
  H   H5450     1.0  0.96150  0.36602  0.73140  1.0000
  H   H5451     1.0  0.77663  0.46638  0.96346  1.0000
  C   C3414     1.0  0.94985  0.48437  0.82793  1.0000
  H   H5452     1.0  0.84962  0.47598  0.86482  1.0000
  H   H5453     1.0  0.67391  0.53401  0.87795  1.0000
  H   H5454     1.0  0.90259  0.48271  0.94154  1.0000
  H   H5455     1.0  0.90306  0.50586  0.94843  1.0000
  H   H5456     1.0  0.89406  0.50742  0.92656  1.0000
  C   C3415     1.0  0.85731  0.32859  0.93531  1.0000
  S   S1371     1.0  0.80501  0.55583  0.95209  1.0000
  H   H5457     1.0  0.77034  0.32098  0.93313  1.0000
  H   H5458     1.0  0.91638  0.53091  0.77042  1.0000
  C   C3416     1.0  0.96250  0.56671  0.81226  1.0000
  C   C3417     1.0  0.93666  0.54769  0.75660  1.0000
  N   N340      1.0  0.79513  0.53425  0.91766  1.0000
  S   S1372     1.0  0.92009  0.50956  0.75241  1.0000
  H   H5459     1.0  0.95899  0.50859  0.84898  1.0000
  H   H5460     1.0  0.90920  0.47257  0.85075  1.0000
  H   H5461     1.0  0.77685  0.51701  0.86683  1.0000
  S   S1373     1.0  0.97114  0.49846  0.91767  1.0000
  C   C3418     1.0  0.78846  0.54939  0.92024  1.0000
  S   S1374     1.0  0.96621  0.51228  0.87617  1.0000
  H   H5462     1.0  0.93984  0.53651  0.79252  1.0000
  Fe  Fe683     1.0  0.98524  0.54992  0.76789  1.0000
  S   S1375     1.0  0.92229  0.54084  0.95593  1.0000
  C   C3419     1.0  0.76103  0.48643  0.89824  1.0000
  S   S1376     1.0  0.96848  0.56161  0.78468  1.0000
  S   S1377     1.0  0.88288  0.53139  0.96410  1.0000
  H   H5463     1.0  0.77444  0.53118  0.91535  1.0000
  C   C3420     1.0  0.94049  0.54382  0.78124  1.0000
  H   H5464     1.0  0.85417  0.55080  0.96148  1.0000
  H   H5465     1.0  0.93383  0.54290  0.74872  1.0000
  H   H5466     1.0  0.93339  0.55495  0.78243  1.0000
  C   C3421     1.0  0.95834  0.51085  0.92813  1.0000
  C   C3422     1.0  0.95248  0.50524  0.94308  1.0000
  C   C3423     1.0  0.94150  0.51442  0.95166  1.0000
  C   C3424     1.0  0.93637  0.52933  0.94537  1.0000
  C   C3425     1.0  0.94248  0.53507  0.93051  1.0000
  C   C3426     1.0  0.95335  0.52581  0.92183  1.0000
  H   H5467     1.0  0.93705  0.50992  0.96314  1.0000
  H   H5468     1.0  0.93863  0.54664  0.92561  1.0000
  H   H5469     1.0  0.95784  0.53022  0.91031  1.0000
  H   H5470     1.0  0.78333  0.52353  0.93853  1.0000
  C   C3427     1.0  0.78115  0.49963  0.88576  1.0000
  N   N341      1.0  0.93579  0.53757  0.77135  1.0000
  H   H5471     1.0  0.70610  0.53845  0.86720  1.0000
  H   H5472     1.0  0.94195  0.52007  0.83162  1.0000
  H   H5473     1.0  0.80037  0.51211  0.93056  1.0000
  H   H5474     1.0  0.75191  0.51295  0.86848  1.0000
  C   C3428     1.0  0.77249  0.50848  0.87563  1.0000
  S   S1378     1.0  0.79894  0.50305  0.88379  1.0000
  H   H5475     1.0  0.95636  0.49368  0.94800  1.0000
  C   C3429     1.0  0.79498  0.52358  0.93204  1.0000
  C   C3430     1.0  0.91420  0.48275  0.93487  1.0000
  H   H5476     1.0  0.93414  0.49251  0.91046  1.0000
  H   H5477     1.0  0.81138  0.54151  0.89830  1.0000
  H   H5478     1.0  0.91923  0.52800  0.78871  1.0000
  H   H5479     1.0  0.77670  0.55032  0.92674  1.0000
  H   H5480     1.0  0.95227  0.54514  0.77692  1.0000
  Fe  Fe684     1.0  0.92580  0.49226  0.80348  1.0000
  H   H5481     1.0  0.86392  0.51740  0.95632  1.0000
  S   S1379     1.0  0.90459  0.50085  0.79518  1.0000
  C   C3431     1.0  0.94583  0.52302  0.76991  1.0000
  H   H5482     1.0  0.83690  0.55221  0.94586  1.0000
  S   S1380     1.0  0.93127  0.50789  0.81365  1.0000
  H   H5483     1.0  0.79095  0.51901  0.90748  1.0000
  N   N342      1.0  0.91672  0.49801  0.92914  1.0000
  C   C3432     1.0  0.91329  0.49074  0.73958  1.0000
  H   H5484     1.0  0.79484  0.55251  0.92657  1.0000
  H   H5485     1.0  0.78834  0.55779  0.90965  1.0000
  H   H5486     1.0  0.94247  0.51783  0.76272  1.0000
  H   H5487     1.0  0.81607  0.52219  0.90695  1.0000
  C   C3433     1.0  0.96450  0.56401  0.82668  1.0000
  C   C3434     1.0  0.78635  0.53050  0.90932  1.0000
  C   C3435     1.0  0.84223  0.55297  0.96590  1.0000
  C   C3436     1.0  0.89435  0.48954  0.87014  1.0000
  C   C3437     1.0  0.81695  0.55655  0.96272  1.0000
  C   C3438     1.0  0.83244  0.55391  0.95702  1.0000
  H   H5488     1.0  0.89068  0.35336  0.91852  1.0000
  H   H5489     1.0  0.81777  0.53589  0.91535  1.0000
  Fe  Fe685     1.0  0.98046  0.50490  0.89304  1.0000
  S   S1381     1.0  0.98302  0.55839  0.74432  1.0000
  C   C3439     1.0  0.81077  0.53347  0.90916  1.0000
  C   C3440     1.0  0.92802  0.34842  0.73906  1.0000
  C   C3441     1.0  0.94354  0.49958  0.82569  1.0000
  H   H5490     1.0  0.78647  0.53809  0.89824  1.0000
  H   H5491     1.0  0.80127  0.52627  0.93874  1.0000
  S   S1382     1.0  0.98659  0.52628  0.76813  1.0000
  H   H5492     1.0  0.90701  0.50206  0.91041  1.0000
  H   H5493     1.0  0.97648  0.37087  0.73551  1.0000
  H   H5494     1.0  0.90275  0.48648  0.87711  1.0000
  H   H5495     1.0  0.85710  0.33711  0.95377  1.0000
  C   C3442     1.0  0.66904  0.44155  0.96009  1.0000
  S   S1383     1.0  0.76156  0.56457  0.95656  1.0000
  C   C3443     1.0  0.85066  0.51193  0.94468  1.0000
  Fe  Fe686     1.0  0.98238  0.49425  0.86570  1.0000
  H   H5496     1.0  0.92884  0.55863  0.75715  1.0000
  H   H5497     1.0  0.84445  0.52324  0.94187  1.0000
  Fe  Fe687     1.0  0.81491  0.48744  0.89742  1.0000
  H   H5498     1.0  0.95763  0.57135  0.83388  1.0000
  H   H5499     1.0  0.95405  0.57609  0.80845  1.0000
  H   H5500     1.0  0.85360  0.48014  0.83754  1.0000
  C   C3444     1.0  0.93213  0.49752  0.92010  1.0000
  N   N343      1.0  0.90106  0.49478  0.85437  1.0000
  C   C3445     1.0  0.86938  0.49397  0.95698  1.0000
  C   C3446     1.0  0.92023  0.53566  0.77763  1.0000
  Fe  Fe688     1.0  0.75709  0.54199  0.96067  1.0000
  H   H5501     1.0  0.94948  0.48863  0.74726  1.0000
  Fe  Fe689     1.0  0.83114  0.48792  0.92013  1.0000
  C   C3447     1.0  0.90715  0.50786  0.85264  1.0000
  C   C3448     1.0  0.84740  0.50061  0.94040  1.0000
  C   C3449     1.0  0.97149  0.55754  0.80271  1.0000
  H   H5502     1.0  0.90736  0.51850  0.91561  1.0000
  C   C3450     1.0  0.75834  0.50619  0.87658  1.0000
  C   C3451     1.0  0.86168  0.50863  0.95289  1.0000
  H   H5503     1.0  0.95757  0.52408  0.76481  1.0000
  C   C3452     1.0  0.95919  0.48566  0.73823  1.0000
  H   H5504     1.0  0.91176  0.51245  0.84081  1.0000
  C   C3453     1.0  0.91326  0.48280  0.84913  1.0000
  H   H5505     1.0  0.94577  0.51525  0.78089  1.0000
  C   C3454     1.0  0.95635  0.50178  0.84326  1.0000
  C   C3455     1.0  0.73370  0.50123  0.96659  1.0000
  C   C3456     1.0  0.97523  0.55186  0.83186  1.0000
  C   C3457     1.0  0.75593  0.45656  0.95740  1.0000
  H   H5506     1.0  0.92198  0.47588  0.94218  1.0000
  H   H5507     1.0  0.94816  0.54972  0.75178  1.0000
  S   S1384     1.0  0.83251  0.50487  0.93148  1.0000
  C   C3458     1.0  0.91432  0.34131  0.93149  1.0000
  C   C3459     1.0  0.98714  0.32966  0.83616  1.0000
  H   H5508     1.0  0.82293  0.51046  0.96514  1.0000
  H   H5509     1.0  0.79032  0.46476  0.94657  1.0000
  H   H5510     1.0  0.78506  0.44848  0.95902  1.0000
  C   C3460     1.0  0.68978  0.56026  0.95923  1.0000
  H   H5511     1.0  0.98962  0.53852  0.80026  1.0000
  C   C3461     1.0  0.92033  0.50235  0.73750  1.0000
  S   S1385     1.0  0.66581  0.49082  0.92609  1.0000
  C   C3462     1.0  0.98424  0.54252  0.82237  1.0000
  N   N344      1.0  0.96273  0.46964  0.73848  1.0000
  H   H5512     1.0  0.91775  0.34395  0.91920  1.0000
  S   S1386     1.0  0.72575  0.32215  0.91119  1.0000
  H   H5513     1.0  0.71290  0.57359  0.94925  1.0000
  C   C3463     1.0  0.79999  0.32982  0.96043  1.0000
  H   H5514     1.0  0.83195  0.31961  0.89532  1.0000
  H   H5515     1.0  0.83617  0.52481  0.97261  1.0000
  H   H5516     1.0  0.66737  0.41485  0.95727  1.0000
  H   H5517     1.0  0.90797  0.35514  0.73032  1.0000
  H   H5518     1.0  0.68016  0.55649  0.96770  1.0000
  H   H5519     1.0  0.66481  0.45363  0.95987  1.0000
  H   H5520     1.0  0.94665  0.53663  0.97324  1.0000
  H   H5521     1.0  0.75972  0.48480  0.94847  1.0000
  H   H5522     1.0  0.67081  0.45875  0.93268  1.0000
  H   H5523     1.0  0.98396  0.51390  0.80433  1.0000
  C   C3464     1.0  0.74734  0.31928  0.94152  1.0000
  H   H5524     1.0  0.80507  0.33777  0.95078  1.0000
  H   H5525     1.0  0.68108  0.43873  0.96066  1.0000
  H   H5526     1.0  0.83428  0.49402  0.97415  1.0000
  H   H5527     1.0  0.69666  0.57555  0.97461  1.0000
  S   S1387     1.0  0.97005  0.53099  0.73306  1.0000
  H   H5528     1.0  0.96065  0.32339  0.81739  1.0000
  H   H5529     1.0  0.71776  0.53653  0.97499  1.0000
  C   C3465     1.0  0.93992  0.31863  0.84183  1.0000
  S   S1388     1.0  0.97025  0.32206  0.86412  1.0000
  C   C3466     1.0  0.66619  0.62522  0.92048  1.0000
  H   H5530     1.0  0.99539  0.48187  0.79906  1.0000
  H   H5531     1.0  0.99446  0.47540  0.82588  1.0000
  H   H5532     1.0  0.79108  0.32023  0.90316  1.0000
  H   H5533     1.0  0.73207  0.49501  0.97794  1.0000
  N   N345      1.0  0.81161  0.31821  0.96706  1.0000
  C   C3467     1.0  0.70037  0.56329  0.97792  1.0000
  S   S1389     1.0  0.67113  0.68564  0.07768  1.0000
  Fe  Fe690     1.0  0.68545  0.67093  0.06240  1.0000
  S   S1390     1.0  0.70601  0.67910  0.05936  1.0000
  S   S1391     1.0  0.66752  0.88815  0.16957  1.0000
  H   H5534     1.0  0.70950  0.91252  0.19059  1.0000
  S   S1392     1.0  0.69856  0.67480  0.09539  1.0000
  Fe  Fe691     1.0  0.69227  0.69241  0.07599  1.0000
  S   S1393     1.0  0.69433  0.71616  0.06826  1.0000
  C   C3468     1.0  0.75619  0.68576  0.07171  1.0000
  H   H5535     1.0  0.71207  0.91612  0.21403  1.0000
  C   C3469     1.0  0.67007  0.84667  0.14758  1.0000
  H   H5536     1.0  0.72905  0.71728  0.06661  1.0000
  H   H5537     1.0  0.71841  0.69600  0.08237  1.0000
  H   H5538     1.0  0.69541  0.72134  0.11720  1.0000
  C   C3470     1.0  0.66515  0.71032  0.01997  1.0000
  N   N346      1.0  0.74108  0.69452  0.07001  1.0000
  S   S1394     1.0  0.66561  0.88423  0.20514  1.0000
  H   H5539     1.0  0.73194  0.69213  0.09342  1.0000
  C   C3471     1.0  0.69314  0.72599  0.08150  1.0000
  C   C3472     1.0  0.69455  0.71871  0.09596  1.0000
  S   S1395     1.0  0.68061  0.82053  0.11805  1.0000
  H   H5540     1.0  0.69587  0.70681  0.09937  1.0000
  H   H5541     1.0  0.73031  0.67784  0.08573  1.0000
  C   C3473     1.0  0.67612  0.73143  0.01516  1.0000
  Fe  Fe692     1.0  0.67712  0.98357  0.17598  1.0000
  H   H5542     1.0  0.68475  0.93826  0.15750  1.0000
  H   H5543     1.0  0.75915  0.68738  0.08143  1.0000
  H   H5544     1.0  0.69297  0.90549  0.19991  1.0000
  H   H5545     1.0  0.69447  0.80876  0.00330  1.0000
  C   C3474     1.0  0.67427  0.94100  0.16524  1.0000
  C   C3475     1.0  0.72996  0.68992  0.08349  1.0000
  H   H5546     1.0  0.76492  0.68889  0.06174  1.0000
  C   C3476     1.0  0.73760  0.69182  0.05713  1.0000
  H   H5547     1.0  0.67182  0.92002  0.21492  1.0000
  C   C3477     1.0  0.66550  0.93033  0.17205  1.0000
  H   H5548     1.0  0.74300  0.71297  0.07727  1.0000
  C   C3478     1.0  0.69429  0.72692  0.10603  1.0000
  H   H5549     1.0  0.67893  0.73935  0.01990  1.0000
  C   C3479     1.0  0.67810  0.80319  0.98777  1.0000
  C   C3480     1.0  0.74045  0.71051  0.06776  1.0000
  H   H5550     1.0  0.74857  0.71446  0.05758  1.0000
  H   H5551     1.0  0.67105  0.93560  0.19960  1.0000
  C   C3481     1.0  0.67940  0.71164  0.03656  1.0000
  S   S1396     1.0  0.66735  0.97786  0.20027  1.0000
  C   C3482     1.0  0.72827  0.88366  0.20624  1.0000
  H   H5552     1.0  0.69664  0.92681  0.22509  1.0000
  Fe  Fe693     1.0  0.71085  0.66086  0.07869  1.0000
  S   S1397     1.0  0.68138  0.96779  0.16122  1.0000
  Fe  Fe694     1.0  0.67871  0.66654  0.09544  1.0000
  H   H5553     1.0  0.73509  0.94256  0.22152  1.0000
  C   C3483     1.0  0.66966  0.66069  0.02511  1.0000
  H   H5554     1.0  0.68901  0.76158  0.08398  1.0000
  H   H5555     1.0  0.66647  0.67176  0.01859  1.0000
  H   H5556     1.0  0.69534  0.94812  0.20347  1.0000
  H   H5557     1.0  0.67605  0.85176  0.15212  1.0000
  C   C3484     1.0  0.69614  0.81441  0.99136  1.0000
  Fe  Fe695     1.0  0.66366  0.79940  0.08391  1.0000
  H   H5558     1.0  0.69574  0.90891  0.22355  1.0000
  Fe  Fe696     1.0  0.66942  0.80716  0.11024  1.0000
  C   C3485     1.0  0.67008  0.82707  0.99430  1.0000
  H   H5559     1.0  0.69967  0.82486  0.99014  1.0000
  C   C3486     1.0  0.67798  0.83773  0.13735  1.0000
  H   H5560     1.0  0.67598  0.79723  0.99958  1.0000
  N   N347      1.0  0.69289  0.92629  0.20428  1.0000
  H   H5561     1.0  0.69240  0.92080  0.18429  1.0000
  H   H5562     1.0  0.71075  0.93754  0.19234  1.0000
  H   H5563     1.0  0.66854  0.73805  0.00762  1.0000
  C   C3487     1.0  0.70646  0.87641  0.22380  1.0000
  Fe  Fe697     1.0  0.67648  0.77515  0.10794  1.0000
  H   H5564     1.0  0.73763  0.67988  0.05864  1.0000
  H   H5565     1.0  0.75685  0.67364  0.07339  1.0000
  C   C3488     1.0  0.71073  0.87539  0.19798  1.0000
  C   C3489     1.0  0.69056  0.74964  0.08738  1.0000
  H   H5566     1.0  0.68657  0.72605  0.00821  1.0000
  C   C3490     1.0  0.69122  0.74143  0.07723  1.0000
  C   C3491     1.0  0.69219  0.74241  0.10175  1.0000
  N   N348      1.0  0.66896  0.72033  0.02685  1.0000
  H   H5567     1.0  0.72634  0.69845  0.05541  1.0000
  S   S1398     1.0  0.69126  0.75285  0.11437  1.0000
  H   H5568     1.0  0.67279  0.93786  0.21680  1.0000
  H   H5569     1.0  0.68291  0.71891  0.04153  1.0000
  S   S1399     1.0  0.66272  0.65942  0.11666  1.0000
  C   C3492     1.0  0.69962  0.91927  0.21732  1.0000
  C   C3493     1.0  0.69836  0.93997  0.19630  1.0000
  H   H5570     1.0  0.70560  0.80712  0.98517  1.0000
  N   N349      1.0  0.70480  0.78112  0.13763  1.0000
  C   C3494     1.0  0.71935  0.77888  0.14149  1.0000
  C   C3495     1.0  0.70636  0.78692  0.12152  1.0000
  C   C3496     1.0  0.69341  0.79188  0.14557  1.0000
  C   C3497     1.0  0.70008  0.76683  0.14185  1.0000
  H   H5571     1.0  0.71860  0.77452  0.15358  1.0000
  H   H5572     1.0  0.72318  0.78950  0.13837  1.0000
  H   H5573     1.0  0.72820  0.77085  0.13563  1.0000
  H   H5574     1.0  0.69554  0.78882  0.11835  1.0000
  H   H5575     1.0  0.70977  0.79779  0.11786  1.0000
  H   H5576     1.0  0.71469  0.77906  0.11509  1.0000
  H   H5577     1.0  0.68229  0.79390  0.14285  1.0000
  H   H5578     1.0  0.69649  0.80289  0.14241  1.0000
  H   H5579     1.0  0.69195  0.78798  0.15776  1.0000
  H   H5580     1.0  0.69889  0.76199  0.15390  1.0000
  H   H5581     1.0  0.70824  0.75855  0.13578  1.0000
  H   H5582     1.0  0.68911  0.76818  0.13909  1.0000
  H   H5583     1.0  0.74592  0.69488  0.04677  1.0000
  S   S1400     1.0  0.69773  0.97281  0.22066  1.0000
  C   C3498     1.0  0.67641  0.93008  0.20918  1.0000
  C   C3499     1.0  0.72392  0.88044  0.19497  1.0000
  H   H5584     1.0  0.66921  0.91946  0.16951  1.0000
  H   H5585     1.0  0.69342  0.94557  0.18642  1.0000
  Fe  Fe698     1.0  0.68058  0.87393  0.18668  1.0000
  S   S1401     1.0  0.68431  0.79509  0.09267  1.0000
  H   H5586     1.0  0.67412  0.70356  0.04583  1.0000
  C   C3500     1.0  0.70208  0.87322  0.21246  1.0000
  H   H5587     1.0  0.69012  0.74709  0.06606  1.0000
  C   C3501     1.0  0.66969  0.95501  0.16873  1.0000
  C   C3502     1.0  0.71954  0.88171  0.22065  1.0000
  H   H5588     1.0  0.69225  0.86868  0.21502  1.0000
  H   H5589     1.0  0.73844  0.88765  0.20377  1.0000
  C   C3503     1.0  0.69713  0.91584  0.19435  1.0000
  C   C3504     1.0  0.66672  0.71522  0.98042  1.0000
  S   S1402     1.0  0.67807  0.67418  0.04150  1.0000
  S   S1403     1.0  0.70525  0.87228  0.18333  1.0000
  H   H5590     1.0  0.68706  0.79563  0.98143  1.0000
  H   H5591     1.0  0.69006  0.83600  0.13404  1.0000
  H   H5592     1.0  0.73073  0.88199  0.18384  1.0000
  H   H5593     1.0  0.66785  0.82187  0.00632  1.0000
  H   H5594     1.0  0.67532  0.70431  0.01323  1.0000
  C   C3505     1.0  0.67032  0.83129  0.13118  1.0000
  S   S1404     1.0  0.67380  0.76648  0.98682  1.0000
  S   S1405     1.0  0.66935  0.85476  0.19217  1.0000
  H   H5595     1.0  0.68967  0.70515  0.03041  1.0000
  H   H5596     1.0  0.66394  0.77638  0.06667  1.0000
  N   N350      1.0  0.68235  0.81737  0.98586  1.0000
  C   C3506     1.0  0.67585  0.65857  0.03725  1.0000
  H   H5597     1.0  0.66778  0.80503  0.98365  1.0000
  H   H5598     1.0  0.66621  0.69013  0.14126  1.0000
  S   S1406     1.0  0.67701  0.72851  0.97849  1.0000
  H   H5599     1.0  0.67281  0.83795  0.99299  1.0000
  S   S1407     1.0  0.66295  0.78680  0.12603  1.0000
  Fe  Fe699     1.0  0.66391  0.75183  0.97957  1.0000
  C   C3507     1.0  0.66628  0.69026  0.97953  1.0000
  C   C3508     1.0  0.67428  0.70073  0.97902  1.0000
  H   H5600     1.0  0.66268  0.68737  0.12495  1.0000
  H   H5601     1.0  0.69212  0.98298  0.12875  1.0000
  H   H5602     1.0  0.67218  0.67922  0.97807  1.0000
  S   S1408     1.0  0.66300  0.80804  0.05967  1.0000
  H   H5603     1.0  0.70231  0.96506  0.25019  1.0000
  S   S1409     1.0  0.70595  0.94702  0.31338  1.0000
  C   C3509     1.0  0.67314  0.81493  0.40457  1.0000
  C   C3510     1.0  0.73880  0.87762  0.29894  1.0000
  H   H5604     1.0  0.73582  0.88024  0.28835  1.0000
  H   H5605     1.0  0.67083  0.98329  0.29468  1.0000
  H   H5606     1.0  0.72826  0.77094  0.47729  1.0000
  H   H5607     1.0  0.67034  0.83238  0.35265  1.0000
  H   H5608     1.0  0.69445  0.96443  0.28761  1.0000
  H   H5609     1.0  0.95780  0.66464  0.38935  1.0000
  C   C3511     1.0  0.74611  0.93197  0.24637  1.0000
  C   C3512     1.0  0.70310  0.97649  0.24567  1.0000
  C   C3513     1.0  0.68942  0.92418  0.29506  1.0000
  S   S1410     1.0  0.98070  0.73655  0.42081  1.0000
  H   H5610     1.0  0.73581  0.90771  0.25018  1.0000
  C   C3514     1.0  0.72926  0.78218  0.47732  1.0000
  C   C3515     1.0  0.69293  0.95325  0.28976  1.0000
  H   H5611     1.0  0.73335  0.78770  0.46565  1.0000
  C   C3516     1.0  0.66552  0.96724  0.32263  1.0000
  H   H5612     1.0  0.89151  0.75753  0.44986  1.0000
  H   H5613     1.0  0.68822  0.91289  0.29711  1.0000
  H   H5614     1.0  0.74270  0.97873  0.33451  1.0000
  S   S1411     1.0  0.71038  0.89696  0.27213  1.0000
  C   C3517     1.0  0.97663  0.94735  0.37947  1.0000
  Fe  Fe700     1.0  0.70875  0.88457  0.25633  1.0000
  S   S1412     1.0  0.70509  0.86414  0.27390  1.0000
  C   C3518     1.0  0.68592  0.94948  0.28076  1.0000
  H   H5615     1.0  0.97389  0.70348  0.33526  1.0000
  C   C3519     1.0  0.92212  0.93293  0.40304  1.0000
  Fe  Fe701     1.0  0.71333  0.96843  0.30406  1.0000
  H   H5616     1.0  0.68204  0.95775  0.27162  1.0000
  S   S1413     1.0  0.98621  0.80060  0.37177  1.0000
  C   C3520     1.0  0.68428  0.93490  0.28336  1.0000
  C   C3521     1.0  0.66341  0.86471  0.43921  1.0000
  C   C3522     1.0  0.69780  0.94253  0.30161  1.0000
  H   H5617     1.0  0.68455  0.84885  0.32184  1.0000
  S   S1414     1.0  0.67680  0.92968  0.27150  1.0000
  N   N351      1.0  0.73339  0.98235  0.35650  1.0000
  C   C3523     1.0  0.74262  0.93364  0.32722  1.0000
  H   H5618     1.0  0.99425  0.69634  0.46309  1.0000
  S   S1415     1.0  0.68445  0.89434  0.25677  1.0000
  H   H5619     1.0  0.73754  0.96657  0.41980  1.0000
  H   H5620     1.0  0.81314  0.90740  0.36606  1.0000
  H   H5621     1.0  0.94003  0.66947  0.40162  1.0000
  Fe  Fe702     1.0  0.70431  0.87757  0.28986  1.0000
  Fe  Fe703     1.0  0.68573  0.90530  0.27377  1.0000
  Fe  Fe704     1.0  0.68074  0.87512  0.27583  1.0000
  S   S1416     1.0  0.67959  0.88712  0.29304  1.0000
  S   S1417     1.0  0.73191  0.97229  0.28423  1.0000
  H   H5622     1.0  0.74591  0.94272  0.24874  1.0000
  H   H5623     1.0  0.99275  0.71418  0.37333  1.0000
  H   H5624     1.0  0.67200  0.85440  0.44154  1.0000
  H   H5625     1.0  0.77216  0.92742  0.31561  1.0000
  C   C3524     1.0  0.94888  0.65481  0.42690  1.0000
  C   C3525     1.0  0.97677  0.72739  0.47652  1.0000
  Fe  Fe705     1.0  0.99183  0.65929  0.35887  1.0000
  H   H5626     1.0  0.72261  0.92434  0.26791  1.0000
  C   C3526     1.0  0.69599  0.92803  0.30429  1.0000
  C   C3527     1.0  0.88842  0.73757  0.46638  1.0000
  C   C3528     1.0  0.66431  0.85998  0.41569  1.0000
  C   C3529     1.0  0.72822  0.85089  0.42812  1.0000
  H   H5627     1.0  0.66303  0.88022  0.25169  1.0000
  C   C3530     1.0  0.67308  0.81789  0.41807  1.0000
  H   H5628     1.0  0.77631  0.97649  0.44719  1.0000
  H   H5629     1.0  0.95251  0.97433  0.39597  1.0000
  C   C3531     1.0  0.74370  0.82050  0.37705  1.0000
  H   H5630     1.0  0.68361  0.81052  0.39769  1.0000
  H   H5631     1.0  0.68348  0.81582  0.42152  1.0000
  C   C3532     1.0  0.96101  0.96987  0.36844  1.0000
  C   C3533     1.0  0.72837  0.87195  0.40149  1.0000
  C   C3534     1.0  0.95235  0.66608  0.40083  1.0000
  H   H5632     1.0  0.71079  0.88603  0.41428  1.0000
  Fe  Fe706     1.0  0.71425  0.81283  0.44689  1.0000
  H   H5633     1.0  0.97692  0.65718  0.41231  1.0000
  H   H5634     1.0  0.71449  0.82545  0.37679  1.0000
  H   H5635     1.0  0.66635  0.84431  0.32746  1.0000
  H   H5636     1.0  0.72982  0.79390  0.40489  1.0000
  H   H5637     1.0  0.66679  0.81426  0.26385  1.0000
  H   H5638     1.0  0.96405  0.95771  0.40435  1.0000
  H   H5639     1.0  0.76982  0.94947  0.35614  1.0000
  S   S1418     1.0  0.72301  0.97506  0.31908  1.0000
  H   H5640     1.0  0.66807  0.86308  0.31952  1.0000
  H   H5641     1.0  0.72622  0.86289  0.33527  1.0000
  C   C3535     1.0  0.98809  0.72210  0.35150  1.0000
  H   H5642     1.0  0.96446  0.72951  0.45403  1.0000
  C   C3536     1.0  0.73344  0.86777  0.32537  1.0000
  H   H5643     1.0  0.68173  0.88274  0.42295  1.0000
  C   C3537     1.0  0.77030  0.97800  0.31396  1.0000
  H   H5644     1.0  0.72827  0.87999  0.39111  1.0000
  S   S1419     1.0  0.67982  0.83671  0.46848  1.0000
  H   H5645     1.0  0.70862  0.93360  0.25725  1.0000
  Fe  Fe707     1.0  0.99289  0.77554  0.37649  1.0000
  H   H5646     1.0  0.74302  0.79156  0.38780  1.0000
  S   S1420     1.0  0.69486  0.80330  0.46179  1.0000
  H   H5647     1.0  0.67509  0.84228  0.36316  1.0000
  Fe  Fe708     1.0  0.68036  0.82434  0.45158  1.0000
  C   C3538     1.0  0.72935  0.87140  0.31172  1.0000
  N   N352      1.0  0.73191  0.81420  0.38871  1.0000
  H   H5648     1.0  0.89926  0.73114  0.46212  1.0000
  H   H5649     1.0  0.73923  0.83210  0.37149  1.0000
  H   H5650     1.0  0.69980  0.91972  0.31344  1.0000
  H   H5651     1.0  0.75297  0.82093  0.38175  1.0000
  C   C3539     1.0  0.72705  0.94376  0.23219  1.0000
  Fe  Fe709     1.0  0.69610  0.81643  0.47725  1.0000
  H   H5652     1.0  0.66482  0.89127  0.23326  1.0000
  S   S1421     1.0  0.69967  0.83253  0.43533  1.0000
  H   H5653     1.0  0.72098  0.91637  0.24048  1.0000
  S   S1422     1.0  0.71659  0.82428  0.46305  1.0000
  C   C3540     1.0  0.73210  0.91723  0.24135  1.0000
  C   C3541     1.0  0.71973  0.81404  0.38210  1.0000
  H   H5654     1.0  0.72134  0.83516  0.39492  1.0000
  H   H5655     1.0  0.74759  0.79864  0.40100  1.0000
  C   C3542     1.0  0.73787  0.84741  0.41517  1.0000
  H   H5656     1.0  0.72393  0.80730  0.37351  1.0000
  H   H5657     1.0  0.68949  0.86469  0.41916  1.0000
  H   H5658     1.0  0.95230  0.96390  0.36908  1.0000
  H   H5659     1.0  0.72668  0.95479  0.23401  1.0000
  H   H5660     1.0  0.74864  0.81387  0.36840  1.0000
  C   C3543     1.0  0.78505  0.97509  0.33201  1.0000
  C   C3544     1.0  0.71811  0.86457  0.42780  1.0000
  C   C3545     1.0  0.71853  0.87537  0.41457  1.0000
  S   S1423     1.0  0.73334  0.79946  0.43308  1.0000
  C   C3546     1.0  0.73760  0.85774  0.40178  1.0000
  H   H5661     1.0  0.68857  0.83644  0.34742  1.0000
  S   S1424     1.0  0.70341  0.86670  0.44324  1.0000
  H   H5662     1.0  0.74517  0.80222  0.47466  1.0000
  Fe  Fe710     1.0  0.70026  0.84344  0.45276  1.0000
  H   H5663     1.0  0.72835  0.84273  0.43831  1.0000
  H   H5664     1.0  0.74527  0.83656  0.41552  1.0000
  Fe  Fe711     1.0  0.79652  0.98458  0.36249  1.0000
  C   C3547     1.0  0.73838  0.79889  0.39585  1.0000
  H   H5665     1.0  0.97024  0.83119  0.36802  1.0000
  S   S1425     1.0  0.71242  0.86787  0.31105  1.0000
  H   H5666     1.0  0.96875  0.97010  0.35739  1.0000
  H   H5667     1.0  0.71073  0.80922  0.39063  1.0000
  H   H5668     1.0  0.71572  0.94408  0.23084  1.0000
  H   H5669     1.0  0.75559  0.94557  0.29978  1.0000
  C   C3548     1.0  0.85500  0.98210  0.36661  1.0000
  C   C3549     1.0  0.97024  0.71815  0.45888  1.0000
  H   H5670     1.0  0.98521  0.69023  0.37782  1.0000
  C   C3550     1.0  0.74685  0.87047  0.32630  1.0000
  H   H5671     1.0  0.96835  0.94071  0.38047  1.0000
  C   C3551     1.0  0.67650  0.84098  0.35171  1.0000
  C   C3552     1.0  0.72582  0.82337  0.39991  1.0000
  H   H5672     1.0  0.74824  0.81406  0.44608  1.0000
  H   H5673     1.0  0.68231  0.87963  0.40524  1.0000
  C   C3553     1.0  0.94413  0.71997  0.42912  1.0000
  C   C3554     1.0  0.97347  0.71497  0.41233  1.0000
  H   H5674     1.0  0.98489  0.71291  0.40600  1.0000
  N   N353      1.0  0.94332  0.73573  0.37898  1.0000
  H   H5675     1.0  0.69176  0.86176  0.33716  1.0000
  H   H5676     1.0  0.73846  0.94145  0.29928  1.0000
  C   C3555     1.0  0.71999  0.93348  0.25835  1.0000
  C   C3556     1.0  0.96391  0.70578  0.41334  1.0000
  N   N354      1.0  0.98267  0.71860  0.46498  1.0000
  S   S1426     1.0  0.92595  0.70617  0.46416  1.0000
  S   S1427     1.0  0.90609  0.68433  0.46070  1.0000
  H   H5677     1.0  0.94972  0.75546  0.36426  1.0000
  H   H5678     1.0  0.66712  0.95632  0.31988  1.0000
  H   H5679     1.0  0.95072  0.71512  0.37170  1.0000
  C   C3557     1.0  0.75013  0.93643  0.30071  1.0000
  H   H5680     1.0  0.93266  0.72228  0.43519  1.0000
  N   N355      1.0  0.67087  0.85515  0.34196  1.0000
  C   C3558     1.0  0.97914  0.69525  0.35677  1.0000
  C   C3559     1.0  0.95383  0.74320  0.36670  1.0000
  S   S1428     1.0  0.92152  0.98030  0.38623  1.0000
  H   H5681     1.0  0.66561  0.86433  0.40356  1.0000
  H   H5682     1.0  0.95565  0.73935  0.35634  1.0000
  S   S1429     1.0  0.97259  0.67900  0.36015  1.0000
  H   H5683     1.0  0.97509  0.98303  0.37982  1.0000
  H   H5684     1.0  0.92375  0.75139  0.37301  1.0000
  H   H5685     1.0  0.66450  0.87253  0.44525  1.0000
  N   N356      1.0  0.73132  0.93161  0.24457  1.0000
  Fe  Fe712     1.0  0.92810  0.69094  0.44938  1.0000
  S   S1430     1.0  0.94171  0.67145  0.46241  1.0000
  S   S1431     1.0  0.93781  0.69580  0.42484  1.0000
  H   H5686     1.0  0.95276  0.66358  0.42937  1.0000
  C   C3560     1.0  0.70063  0.98334  0.23144  1.0000
  S   S1432     1.0  0.89294  0.97944  0.41557  1.0000
  C   C3561     1.0  0.94932  0.70813  0.42200  1.0000
  H   H5687     1.0  0.96797  0.69660  0.40781  1.0000
  N   N357      1.0  0.95633  0.65234  0.41188  1.0000
  Fe  Fe713     1.0  0.99217  0.74611  0.39800  1.0000
  C   C3562     1.0  0.74349  0.97325  0.34611  1.0000
  H   H5688     1.0  0.96499  0.74088  0.36939  1.0000
  H   H5689     1.0  0.92951  0.73541  0.36493  1.0000
  C   C3563     1.0  0.96847  0.72626  0.42024  1.0000
  C   C3564     1.0  0.67256  0.85270  0.32706  1.0000
  H   H5690     1.0  0.74690  0.97893  0.44132  1.0000
  H   H5691     1.0  0.74861  0.94209  0.32715  1.0000
  H   H5692     1.0  0.67637  0.87657  0.33276  1.0000
  C   C3565     1.0  0.70645  0.98442  0.25407  1.0000
  C   C3566     1.0  0.67954  0.86611  0.34089  1.0000
  H   H5693     1.0  0.79552  0.98100  0.42404  1.0000
  H   H5694     1.0  0.92042  0.73372  0.38416  1.0000
  H   H5695     1.0  0.95523  0.98159  0.36893  1.0000
  H   H5696     1.0  0.75911  0.77723  0.46978  1.0000
  C   C3567     1.0  0.95373  0.72892  0.42839  1.0000
  C   C3568     1.0  0.94928  0.71951  0.38166  1.0000
  C   C3569     1.0  0.92859  0.73923  0.37509  1.0000
  H   H5697     1.0  0.72697  0.98079  0.37998  1.0000
  H   H5698     1.0  0.76635  0.91096  0.32713  1.0000
  S   S1433     1.0  0.76413  0.97013  0.30294  1.0000
  H   H5699     1.0  0.75966  0.88489  0.28994  1.0000
  H   H5700     1.0  0.74267  0.90566  0.32643  1.0000
  C   C3570     1.0  0.76591  0.91893  0.31635  1.0000
  C   C3571     1.0  0.75232  0.88017  0.29984  1.0000
  H   H5701     1.0  0.75609  0.96763  0.41959  1.0000
  H   H5702     1.0  0.75493  0.93053  0.23619  1.0000
  H   H5703     1.0  0.74767  0.90839  0.30675  1.0000
  C   C3572     1.0  0.74238  0.91423  0.31598  1.0000
  H   H5704     1.0  0.77204  0.91270  0.30752  1.0000
  H   H5705     1.0  0.79624  0.81137  0.39991  1.0000
  H   H5706     1.0  0.80922  0.89018  0.39845  1.0000
  H   H5707     1.0  0.91115  0.65308  0.45426  1.0000
  H   H5708     1.0  0.73040  0.91902  0.31550  1.0000
  C   C3573     1.0  0.98041  0.97123  0.37932  1.0000
  H   H5709     1.0  0.78619  0.85210  0.39735  1.0000
  H   H5710     1.0  0.89334  0.90528  0.35552  1.0000
  C   C3574     1.0  0.76482  0.92071  0.38559  1.0000
  H   H5711     1.0  0.89191  0.90801  0.33685  1.0000
  H   H5712     1.0  0.93719  0.75318  0.39090  1.0000
  H   H5713     1.0  0.84231  0.89574  0.34423  1.0000
  Fe  Fe714     1.0  0.79249  0.87123  0.36166  1.0000
  S   S1434     1.0  0.77279  0.88022  0.37828  1.0000
  C   C3575     1.0  0.75579  0.80397  0.44345  1.0000
  Fe  Fe715     1.0  0.76044  0.86849  0.37023  1.0000
  Fe  Fe716     1.0  0.76761  0.89896  0.35924  1.0000
  S   S1435     1.0  0.78032  0.85842  0.35469  1.0000
  Fe  Fe717     1.0  0.81961  0.82036  0.44899  1.0000
  S   S1436     1.0  0.82876  0.79939  0.44072  1.0000
  S   S1437     1.0  0.81904  0.84142  0.43144  1.0000
  Fe  Fe718     1.0  0.80871  0.79193  0.45649  1.0000
  S   S1438     1.0  0.79709  0.77912  0.44874  1.0000
  Fe  Fe719     1.0  0.83998  0.79083  0.45996  1.0000
  S   S1439     1.0  0.86464  0.77967  0.45558  1.0000
  S   S1440     1.0  0.79857  0.81358  0.46334  1.0000
  S   S1441     1.0  0.83251  0.81265  0.46691  1.0000
  H   H5714     1.0  0.74995  0.86756  0.33686  1.0000
  H   H5715     1.0  0.89334  0.93381  0.42303  1.0000
  H   H5716     1.0  0.87752  0.90046  0.43136  1.0000
  H   H5717     1.0  0.89678  0.91405  0.42952  1.0000
  H   H5718     1.0  0.83883  0.84958  0.38282  1.0000
  Fe  Fe720     1.0  0.88300  0.87842  0.37354  1.0000
  S   S1442     1.0  0.88194  0.89440  0.38689  1.0000
  Fe  Fe721     1.0  0.90763  0.85511  0.38745  1.0000
  S   S1443     1.0  0.90860  0.86979  0.40159  1.0000
  Fe  Fe722     1.0  0.88352  0.87486  0.40572  1.0000
  S   S1444     1.0  0.86815  0.87543  0.42796  1.0000
  Fe  Fe723     1.0  0.90698  0.88806  0.38116  1.0000
  S   S1445     1.0  0.91718  0.90811  0.37125  1.0000
  S   S1446     1.0  0.88249  0.85924  0.39297  1.0000
  S   S1447     1.0  0.90808  0.87303  0.36654  1.0000
  H   H5719     1.0  0.79930  0.91556  0.40360  1.0000
  H   H5720     1.0  0.80868  0.93020  0.39301  1.0000
  C   C3576     1.0  0.92251  0.90969  0.39731  1.0000
  H   H5721     1.0  0.92402  0.89774  0.40041  1.0000
  C   C3577     1.0  0.86985  0.76097  0.46467  1.0000
  C   C3578     1.0  0.88401  0.75254  0.45945  1.0000
  H   H5722     1.0  0.73093  0.93939  0.32639  1.0000
  H   H5723     1.0  0.73165  0.96334  0.37452  1.0000
  H   H5724     1.0  0.86330  0.91262  0.44172  1.0000
  C   C3579     1.0  0.83174  0.85177  0.43097  1.0000
  C   C3580     1.0  0.83621  0.85125  0.44377  1.0000
  C   C3581     1.0  0.84697  0.85906  0.44296  1.0000
  C   C3582     1.0  0.85337  0.86722  0.42933  1.0000
  C   C3583     1.0  0.84863  0.86800  0.41662  1.0000
  C   C3584     1.0  0.83780  0.86032  0.41744  1.0000
  H   H5725     1.0  0.83139  0.84485  0.45429  1.0000
  H   H5726     1.0  0.85060  0.85844  0.45283  1.0000
  H   H5727     1.0  0.85334  0.87449  0.40610  1.0000
  H   H5728     1.0  0.83437  0.86071  0.40753  1.0000
  C   C3585     1.0  0.77979  0.78635  0.44352  1.0000
  C   C3586     1.0  0.77533  0.77796  0.43649  1.0000
  N   N358      1.0  0.88400  0.92773  0.34571  1.0000
  C   C3587     1.0  0.77013  0.79956  0.44679  1.0000
  H   H5729     1.0  0.78275  0.76776  0.43394  1.0000
  H   H5730     1.0  0.74095  0.96208  0.34852  1.0000
  H   H5731     1.0  0.77354  0.80610  0.45222  1.0000
  C   C3588     1.0  0.76917  0.94303  0.36734  1.0000
  C   C3589     1.0  0.77287  0.94818  0.37775  1.0000
  H   H5732     1.0  0.87014  0.94742  0.41467  1.0000
  H   H5733     1.0  0.77584  0.95885  0.37464  1.0000
  C   C3590     1.0  0.85285  0.87920  0.36071  1.0000
  C   C3591     1.0  0.82001  0.89356  0.39261  1.0000
  H   H5734     1.0  0.89936  0.93543  0.35287  1.0000
  C   C3592     1.0  0.82813  0.86629  0.36659  1.0000
  C   C3593     1.0  0.82911  0.87933  0.35573  1.0000
  C   C3594     1.0  0.84152  0.88572  0.35272  1.0000
  C   C3595     1.0  0.98460  0.69823  0.36747  1.0000
  S   S1448     1.0  0.99330  0.73916  0.34763  1.0000
  H   H5735     1.0  0.82039  0.88440  0.34957  1.0000
  H   H5736     1.0  0.77984  0.81401  0.41449  1.0000
  C   C3596     1.0  0.91868  0.94063  0.38938  1.0000
  H   H5737     1.0  0.79384  0.82619  0.43225  1.0000
  S   S1449     1.0  0.75293  0.88816  0.35307  1.0000
  H   H5738     1.0  0.95257  0.73851  0.39570  1.0000
  C   C3597     1.0  0.78504  0.84060  0.39860  1.0000
  H   H5739     1.0  0.98214  0.72693  0.33044  1.0000
  C   C3598     1.0  0.76852  0.92589  0.39607  1.0000
  C   C3599     1.0  0.81046  0.91803  0.39764  1.0000
  S   S1450     1.0  0.92358  0.94241  0.41557  1.0000
  H   H5740     1.0  0.93384  0.73550  0.40205  1.0000
  C   C3600     1.0  0.85857  0.96720  0.37371  1.0000
  H   H5741     1.0  0.78512  0.95761  0.32198  1.0000
  Fe  Fe724     1.0  0.91970  0.66600  0.47498  1.0000
  S   S1451     1.0  0.86776  0.88793  0.35744  1.0000
  Fe  Fe725     1.0  0.79300  0.96177  0.39109  1.0000
  C   C3601     1.0  0.88567  0.93794  0.33101  1.0000
  C   C3602     1.0  0.76125  0.78245  0.43298  1.0000
  H   H5742     1.0  0.89733  0.93968  0.32678  1.0000
  C   C3603     1.0  0.95837  0.96282  0.39492  1.0000
  C   C3604     1.0  0.77275  0.93955  0.39206  1.0000
  C   C3605     1.0  0.88780  0.92437  0.42906  1.0000
  C   C3606     1.0  0.76518  0.92932  0.37122  1.0000
  H   H5743     1.0  0.74867  0.97595  0.40336  1.0000
  C   C3607     1.0  0.75631  0.87670  0.31354  1.0000
  H   H5744     1.0  0.86053  0.86101  0.37766  1.0000
  H   H5745     1.0  0.88625  0.92671  0.36754  1.0000
  C   C3608     1.0  0.91929  0.91740  0.38356  1.0000
  H   H5746     1.0  0.81120  0.84181  0.40317  1.0000
  S   S1452     1.0  0.77884  0.94548  0.40449  1.0000
  H   H5747     1.0  0.85625  0.93778  0.41529  1.0000
  H   H5748     1.0  0.73465  0.82332  0.40542  1.0000
  S   S1453     1.0  0.81136  0.96604  0.39849  1.0000
  H   H5749     1.0  0.85919  0.93982  0.43217  1.0000
  S   S1454     1.0  0.97835  0.75922  0.38134  1.0000
  H   H5750     1.0  0.88972  0.93023  0.40009  1.0000
  H   H5751     1.0  0.81630  0.82266  0.41201  1.0000
  H   H5752     1.0  0.67209  0.97179  0.35359  1.0000
  H   H5753     1.0  0.75624  0.93093  0.29135  1.0000
  H   H5754     1.0  0.77556  0.83376  0.42813  1.0000
  N   N359      1.0  0.87635  0.92370  0.42175  1.0000
  C   C3609     1.0  0.86025  0.75445  0.47713  1.0000
  Fe  Fe726     1.0  0.82400  0.96667  0.37502  1.0000
  H   H5755     1.0  0.71672  0.81910  0.40877  1.0000
  C   C3610     1.0  0.86840  0.92573  0.35089  1.0000
  H   H5756     1.0  0.77288  0.84057  0.40206  1.0000
  N   N360      1.0  0.87831  0.81848  0.42419  1.0000
  C   C3611     1.0  0.86424  0.81605  0.43488  1.0000
  C   C3612     1.0  0.88995  0.80461  0.42568  1.0000
  C   C3613     1.0  0.88336  0.83035  0.42717  1.0000
  C   C3614     1.0  0.87568  0.82289  0.40902  1.0000
  H   H5757     1.0  0.86576  0.81265  0.44648  1.0000
  H   H5758     1.0  0.86015  0.80714  0.43296  1.0000
  H   H5759     1.0  0.85519  0.82625  0.43404  1.0000
  H   H5760     1.0  0.89216  0.80096  0.43703  1.0000
  H   H5761     1.0  0.88642  0.79537  0.42369  1.0000
  H   H5762     1.0  0.90072  0.80606  0.41769  1.0000
  H   H5763     1.0  0.89403  0.83239  0.41933  1.0000
  H   H5764     1.0  0.88527  0.82748  0.43858  1.0000
  H   H5765     1.0  0.87491  0.84100  0.42600  1.0000
  H   H5766     1.0  0.88608  0.82491  0.40065  1.0000
  H   H5767     1.0  0.86686  0.83327  0.40758  1.0000
  H   H5768     1.0  0.87196  0.81414  0.40638  1.0000
  H   H5769     1.0  0.78925  0.83804  0.38740  1.0000
  C   C3615     1.0  0.67080  0.98372  0.35050  1.0000
  H   H5770     1.0  0.98871  0.73712  0.44790  1.0000
  H   H5771     1.0  0.96043  0.71656  0.38448  1.0000
  S   S1455     1.0  0.77278  0.88085  0.31465  1.0000
  H   H5772     1.0  0.96172  0.71276  0.46751  1.0000
  C   C3616     1.0  0.88756  0.93405  0.35629  1.0000
  H   H5773     1.0  0.76155  0.91017  0.38867  1.0000
  H   H5774     1.0  0.70847  0.97902  0.26498  1.0000
  C   C3617     1.0  0.89434  0.91322  0.34463  1.0000
  H   H5775     1.0  0.74206  0.92577  0.33818  1.0000
  H   H5776     1.0  0.88613  0.96893  0.38908  1.0000
  C   C3618     1.0  0.94162  0.74097  0.39249  1.0000
  C   C3619     1.0  0.74567  0.97394  0.41564  1.0000
  N   N361      1.0  0.79350  0.82996  0.40934  1.0000
  C   C3620     1.0  0.80953  0.83052  0.40419  1.0000
  C   C3621     1.0  0.79182  0.81480  0.41069  1.0000
  H   H5777     1.0  0.86075  0.91003  0.42491  1.0000
  H   H5778     1.0  0.79799  0.80653  0.41883  1.0000
  H   H5779     1.0  0.79695  0.91015  0.38069  1.0000
  H   H5780     1.0  0.88285  0.92581  0.44059  1.0000
  C   C3622     1.0  0.97816  0.70570  0.34351  1.0000
  H   H5781     1.0  0.94335  0.84312  0.37563  1.0000
  H   H5782     1.0  0.84001  0.91054  0.38574  1.0000
  N   N362      1.0  0.75025  0.92580  0.31508  1.0000
  Fe  Fe727     1.0  0.77406  0.87918  0.33801  1.0000
  C   C3623     1.0  0.96220  0.82438  0.37398  1.0000
  H   H5783     1.0  0.90625  0.91423  0.34091  1.0000
  S   S1456     1.0  0.82067  0.78141  0.47518  1.0000
  H   H5784     1.0  0.74964  0.92295  0.25567  1.0000
  C   C3624     1.0  0.78067  0.96915  0.32251  1.0000
  H   H5785     1.0  0.87516  0.92151  0.40056  1.0000
  C   C3625     1.0  0.88354  0.92141  0.40665  1.0000
  Fe  Fe728     1.0  0.91693  0.96737  0.40967  1.0000
  H   H5786     1.0  0.87308  0.95080  0.38674  1.0000
  H   H5787     1.0  0.78895  0.84529  0.42335  1.0000
  S   S1457     1.0  0.76034  0.92348  0.35793  1.0000
  N   N363      1.0  0.96912  0.96281  0.38053  1.0000
  C   C3626     1.0  0.78765  0.83398  0.42392  1.0000
  H   H5788     1.0  0.93331  0.80011  0.39525  1.0000
  S   S1458     1.0  0.78854  0.89111  0.34318  1.0000
  H   H5789     1.0  0.81739  0.91534  0.40599  1.0000
  H   H5790     1.0  0.92685  0.91141  0.41748  1.0000
  H   H5791     1.0  0.89173  0.91056  0.40685  1.0000
  C   C3627     1.0  0.86496  0.93779  0.42095  1.0000
  S   S1459     1.0  0.81265  0.85818  0.37099  1.0000
  S   S1460     1.0  0.91724  0.83029  0.39154  1.0000
  H   H5792     1.0  0.88302  0.93352  0.32277  1.0000
  C   C3628     1.0  0.92412  0.91744  0.40695  1.0000
  H   H5793     1.0  0.76834  0.91922  0.40717  1.0000
  H   H5794     1.0  0.86545  0.92061  0.34337  1.0000
  H   H5795     1.0  0.81429  0.82782  0.39309  1.0000
  H   H5796     1.0  0.91691  0.95255  0.38631  1.0000
  H   H5797     1.0  0.86027  0.93650  0.35155  1.0000
  C   C3629     1.0  0.75131  0.79523  0.43673  1.0000
  C   C3630     1.0  0.98888  0.71176  0.36492  1.0000
  N   N364      1.0  0.81766  0.90961  0.38589  1.0000
  H   H5798     1.0  0.80545  0.92545  0.37031  1.0000
  H   H5799     1.0  0.83089  0.92564  0.37316  1.0000
  C   C3631     1.0  0.87745  0.97261  0.38282  1.0000
  C   C3632     1.0  0.83225  0.91353  0.37811  1.0000
  C   C3633     1.0  0.87009  0.96237  0.38151  1.0000
  H   H5800     1.0  0.82722  0.89037  0.40078  1.0000
  C   C3634     1.0  0.94697  0.83117  0.37827  1.0000
  H   H5801     1.0  0.86669  0.91830  0.36208  1.0000
  C   C3635     1.0  0.80790  0.91333  0.37526  1.0000
  C   C3636     1.0  0.94134  0.80693  0.38929  1.0000
  C   C3637     1.0  0.99380  0.72555  0.45301  1.0000
  H   H5802     1.0  0.67782  0.86893  0.35173  1.0000
  H   H5803     1.0  0.91505  0.93889  0.36894  1.0000
  H   H5804     1.0  0.83790  0.90755  0.36901  1.0000
  H   H5805     1.0  0.75788  0.77568  0.42776  1.0000
  C   C3638     1.0  0.93649  0.82243  0.38593  1.0000
  H   H5806     1.0  0.98650  0.96649  0.38848  1.0000
  C   C3639     1.0  0.83955  0.85968  0.37442  1.0000
  H   H5807     1.0  0.88010  0.94510  0.35722  1.0000
  H   H5808     1.0  0.79289  0.96818  0.33871  1.0000
  S   S1461     1.0  0.74759  0.85197  0.38550  1.0000
  C   C3640     1.0  0.95653  0.80017  0.38503  1.0000
  H   H5809     1.0  0.94176  0.71348  0.39102  1.0000
  H   H5810     1.0  0.87802  0.94902  0.33147  1.0000
  S   S1462     1.0  0.84833  0.95479  0.37315  1.0000
  H   H5811     1.0  0.94971  0.73790  0.43419  1.0000
  H   H5812     1.0  0.96011  0.78824  0.38777  1.0000
  C   C3641     1.0  0.85183  0.86618  0.37155  1.0000
  H   H5813     1.0  0.82555  0.88686  0.38412  1.0000
  C   C3642     1.0  0.96703  0.80886  0.37731  1.0000
  S   S1463     1.0  0.80645  0.96008  0.36821  1.0000
  C   C3643     1.0  0.91754  0.93286  0.37956  1.0000
  C   C3644     1.0  0.86913  0.91122  0.43032  1.0000
  H   H5814     1.0  0.97431  0.71180  0.44997  1.0000
  Fe  Fe729     1.0  0.74083  0.98050  0.29902  1.0000
  H   H5815     1.0  0.75537  0.97158  0.34662  1.0000
  Fe  Fe730     1.0  0.90496  0.69817  0.47658  1.0000
  H   H5816     1.0  0.74014  0.91559  0.23078  1.0000
  H   H5817     1.0  0.74623  0.97234  0.37324  1.0000
  H   H5818     1.0  0.98477  0.94688  0.36871  1.0000
  H   H5819     1.0  0.71927  0.94409  0.26129  1.0000
  H   H5820     1.0  0.69985  0.87453  0.23498  1.0000
  H   H5821     1.0  0.95590  0.67550  0.40245  1.0000
  H   H5822     1.0  0.67309  0.84963  0.41752  1.0000
  H   H5823     1.0  0.72828  0.97744  0.44221  1.0000
  S   S1464     1.0  0.66409  0.86146  0.27886  1.0000
  H   H5824     1.0  0.94967  0.95655  0.39629  1.0000
  C   C3645     1.0  0.73458  0.97438  0.37177  1.0000
  S   S1465     1.0  0.92604  0.98153  0.41855  1.0000
  C   C3646     1.0  0.68036  0.87471  0.41731  1.0000
  H   H5825     1.0  0.98286  0.94172  0.38844  1.0000
  C   C3647     1.0  0.98282  0.71897  0.34081  1.0000
  H   H5826     1.0  0.93652  0.65853  0.42816  1.0000
  H   H5827     1.0  0.97105  0.73892  0.47205  1.0000
  C   C3648     1.0  0.98987  0.70332  0.47148  1.0000
  N   N365      1.0  0.66543  0.87101  0.42314  1.0000
  H   H5828     1.0  0.69262  0.98291  0.33602  1.0000
  H   H5829     1.0  0.98883  0.97133  0.36867  1.0000
  H   H5830     1.0  0.67674  0.97005  0.31937  1.0000
  H   H5831     1.0  0.71422  0.97442  0.35688  1.0000
  S   S1466     1.0  0.72493  0.88663  0.23432  1.0000
  Fe  Fe731     1.0  0.70495  0.84441  0.59151  1.0000
  S   S1467     1.0  0.70168  0.82198  0.60508  1.0000
  S   S1468     1.0  0.70577  0.86174  0.60260  1.0000
  Fe  Fe732     1.0  0.70571  0.83659  0.56248  1.0000
  S   S1469     1.0  0.70260  0.81365  0.57399  1.0000
  S   S1470     1.0  0.70793  0.84504  0.53782  1.0000
  Fe  Fe733     1.0  0.68543  0.82465  0.59117  1.0000
  H   H5832     1.0  0.98781  0.73327  0.57654  1.0000
  Fe  Fe734     1.0  0.71934  0.81375  0.58641  1.0000
  S   S1471     1.0  0.68746  0.84772  0.57882  1.0000
  S   S1472     1.0  0.72355  0.83607  0.57368  1.0000
  H   H5833     1.0  0.83237  0.97651  0.70143  1.0000
  H   H5834     1.0  0.73751  0.82118  0.63065  1.0000
  H   H5835     1.0  0.69850  0.83649  0.49389  1.0000
  S   S1473     1.0  0.69651  0.80562  0.50113  1.0000
  H   H5836     1.0  0.74259  0.94869  0.63733  1.0000
  S   S1474     1.0  0.73999  0.79554  0.58811  1.0000
  H   H5837     1.0  0.71605  0.87529  0.62011  1.0000
  C   C3649     1.0  0.87879  0.73102  0.47877  1.0000
  C   C3650     1.0  0.70575  0.83370  0.52739  1.0000
  C   C3651     1.0  0.70324  0.84003  0.51309  1.0000
  C   C3652     1.0  0.70068  0.83143  0.50481  1.0000
  C   C3653     1.0  0.70061  0.81643  0.51084  1.0000
  C   C3654     1.0  0.70355  0.80997  0.52495  1.0000
  C   C3655     1.0  0.70615  0.81858  0.53320  1.0000
  H   H5838     1.0  0.70305  0.85170  0.50847  1.0000
  H   H5839     1.0  0.70362  0.79834  0.52962  1.0000
  H   H5840     1.0  0.70843  0.81348  0.54402  1.0000
  C   C3656     1.0  0.71785  0.85438  0.61496  1.0000
  C   C3657     1.0  0.72409  0.83919  0.61789  1.0000
  C   C3658     1.0  0.72086  0.86350  0.62234  1.0000
  H   H5841     1.0  0.72204  0.83212  0.61216  1.0000
  H   H5842     1.0  0.94794  0.68384  0.60850  1.0000
  C   C3659     1.0  0.66626  0.82504  0.54029  1.0000
  H   H5843     1.0  0.87922  0.77710  0.51400  1.0000
  C   C3660     1.0  0.86991  0.75254  0.53104  1.0000
  H   H5844     1.0  0.89895  0.76884  0.51120  1.0000
  H   H5845     1.0  0.81401  0.81918  0.70914  1.0000
  H   H5846     1.0  0.75667  0.82301  0.56198  1.0000
  H   H5847     1.0  0.95696  0.65161  0.49618  1.0000
  N   N366      1.0  0.99280  0.71162  0.59067  1.0000
  H   H5848     1.0  0.67516  0.81585  0.54449  1.0000
  H   H5849     1.0  0.83484  0.82725  0.68904  1.0000
  H   H5850     1.0  0.76876  0.79579  0.53777  1.0000
  C   C3661     1.0  0.77982  0.79201  0.62305  1.0000
  H   H5851     1.0  0.82969  0.98224  0.66264  1.0000
  S   S1475     1.0  0.96245  0.79866  0.64177  1.0000
  H   H5852     1.0  0.66646  0.85809  0.69792  1.0000
  H   H5853     1.0  0.84310  0.94982  0.67710  1.0000
  H   H5854     1.0  0.87525  0.75985  0.50129  1.0000
  H   H5855     1.0  0.67032  0.82097  0.65127  1.0000
  H   H5856     1.0  0.72540  0.87098  0.72645  1.0000
  H   H5857     1.0  0.87064  0.67747  0.55156  1.0000
  C   C3662     1.0  0.92779  0.65962  0.56037  1.0000
  H   H5858     1.0  0.70195  0.88773  0.70807  1.0000
  H   H5859     1.0  0.73711  0.96036  0.60598  1.0000
  C   C3663     1.0  0.73010  0.85735  0.63264  1.0000
  C   C3664     1.0  0.73297  0.83300  0.62836  1.0000
  H   H5860     1.0  0.74221  0.82228  0.59484  1.0000
  H   H5861     1.0  0.70323  0.90609  0.70793  1.0000
  H   H5862     1.0  0.70976  0.97917  0.66557  1.0000
  H   H5863     1.0  0.79241  0.85733  0.69715  1.0000
  H   H5864     1.0  0.67488  0.84882  0.54219  1.0000
  H   H5865     1.0  0.73240  0.86439  0.63835  1.0000
  C   C3665     1.0  0.73601  0.84204  0.63574  1.0000
  C   C3666     1.0  0.74861  0.95457  0.60767  1.0000
  H   H5866     1.0  0.76245  0.77208  0.48809  1.0000
  C   C3667     1.0  0.84616  0.86644  0.64928  1.0000
  H   H5867     1.0  0.72189  0.78102  0.50654  1.0000
  C   C3668     1.0  0.90870  0.97672  0.57778  1.0000
  H   H5868     1.0  0.73190  0.76309  0.50314  1.0000
  H   H5869     1.0  0.75654  0.98275  0.61680  1.0000
  H   H5870     1.0  0.72437  0.82306  0.70847  1.0000
  C   C3669     1.0  0.83623  0.95779  0.68410  1.0000
  C   C3670     1.0  0.73011  0.82687  0.71444  1.0000
  N   N367      1.0  0.72391  0.88972  0.70801  1.0000
  H   H5871     1.0  0.98972  0.73338  0.59443  1.0000
  H   H5872     1.0  0.77697  0.95426  0.60827  1.0000
  C   C3671     1.0  0.70740  0.89406  0.71229  1.0000
  H   H5873     1.0  0.96846  0.72238  0.48578  1.0000
  Fe  Fe735     1.0  0.98200  0.76556  0.60528  1.0000
  H   H5874     1.0  0.67258  0.83430  0.62502  1.0000
  H   H5875     1.0  0.82439  0.96020  0.68300  1.0000
  C   C3672     1.0  0.73066  0.89836  0.71385  1.0000
  H   H5876     1.0  0.67042  0.85406  0.62005  1.0000
  C   C3673     1.0  0.66641  0.82127  0.72008  1.0000
  C   C3674     1.0  0.77712  0.96689  0.71871  1.0000
  H   H5877     1.0  0.88791  0.77005  0.52947  1.0000
  H   H5878     1.0  0.97132  0.72890  0.63759  1.0000
  H   H5879     1.0  0.93532  0.81953  0.65031  1.0000
  C   C3675     1.0  0.72891  0.87371  0.71415  1.0000
  H   H5880     1.0  0.82304  0.91437  0.64594  1.0000
  H   H5881     1.0  0.98926  0.81490  0.65191  1.0000
  C   C3676     1.0  0.74325  0.83203  0.70706  1.0000
  C   C3677     1.0  0.72872  0.89276  0.69171  1.0000
  H   H5882     1.0  0.86066  0.76115  0.52673  1.0000
  H   H5883     1.0  0.76134  0.97834  0.59893  1.0000
  Fe  Fe736     1.0  0.78488  0.97341  0.68167  1.0000
  H   H5884     1.0  0.74621  0.93104  0.66220  1.0000
  H   H5885     1.0  0.84806  0.97126  0.65671  1.0000
  C   C3678     1.0  0.67003  0.84176  0.55278  1.0000
  S   S1476     1.0  0.74850  0.90311  0.65568  1.0000
  H   H5886     1.0  0.89787  0.73752  0.62215  1.0000
  H   H5887     1.0  0.88321  0.71365  0.58995  1.0000
  Fe  Fe737     1.0  0.93586  0.69137  0.56441  1.0000
  S   S1477     1.0  0.94668  0.70985  0.56279  1.0000
  S   S1478     1.0  0.95007  0.66833  0.56663  1.0000
  Fe  Fe738     1.0  0.90533  0.71176  0.56338  1.0000
  S   S1479     1.0  0.88225  0.71498  0.56004  1.0000
  S   S1480     1.0  0.95565  0.68440  0.48949  1.0000
  S   S1481     1.0  0.92424  0.70348  0.54595  1.0000
  S   S1482     1.0  0.91595  0.69771  0.58215  1.0000
  H   H5888     1.0  0.89675  0.74268  0.53787  1.0000
  H   H5889     1.0  0.68854  0.85316  0.63432  1.0000
  H   H5890     1.0  0.72366  0.88666  0.68683  1.0000
  S   S1483     1.0  0.97297  0.67984  0.63113  1.0000
  C   C3679     1.0  0.93961  0.73513  0.59586  1.0000
  H   H5891     1.0  0.91083  0.65229  0.55512  1.0000
  H   H5892     1.0  0.96692  0.68763  0.51271  1.0000
  H   H5893     1.0  0.74768  0.83206  0.69545  1.0000
  N   N368      1.0  0.73936  0.78144  0.48680  1.0000
  H   H5894     1.0  0.84804  0.92412  0.62030  1.0000
  C   C3680     1.0  0.73318  0.77448  0.50223  1.0000
  S   S1484     1.0  0.91320  0.73196  0.56225  1.0000
  H   H5895     1.0  0.83306  0.84316  0.69622  1.0000
  C   C3681     1.0  0.94511  0.72232  0.51289  1.0000
  N   N369      1.0  0.88292  0.68953  0.53175  1.0000
  H   H5896     1.0  0.88204  0.68780  0.55468  1.0000
  H   H5897     1.0  0.87037  0.71007  0.53787  1.0000
  H   H5898     1.0  0.86720  0.74152  0.53311  1.0000
  C   C3682     1.0  0.95123  0.69888  0.49870  1.0000
  C   C3683     1.0  0.95880  0.69767  0.50961  1.0000
  C   C3684     1.0  0.98867  0.82336  0.64138  1.0000
  C   C3685     1.0  0.88149  0.68106  0.54725  1.0000
  C   C3686     1.0  0.86969  0.72375  0.57368  1.0000
  H   H5899     1.0  0.85379  0.73544  0.55998  1.0000
  H   H5900     1.0  0.74311  0.89548  0.71067  1.0000
  C   C3687     1.0  0.86335  0.72904  0.59811  1.0000
  H   H5901     1.0  0.83195  0.84546  0.67743  1.0000
  H   H5902     1.0  0.74112  0.88937  0.68808  1.0000
  H   H5903     1.0  0.98584  0.72807  0.48132  1.0000
  H   H5904     1.0  0.92218  0.67119  0.55843  1.0000
  H   H5905     1.0  0.67639  0.80031  0.62037  1.0000
  H   H5906     1.0  0.96101  0.70809  0.52572  1.0000
  H   H5907     1.0  0.86976  0.75448  0.54194  1.0000
  C   C3688     1.0  0.99265  0.68772  0.64206  1.0000
  H   H5908     1.0  0.92448  0.96625  0.59953  1.0000
  H   H5909     1.0  0.98177  0.69779  0.48060  1.0000
  H   H5910     1.0  0.74133  0.87008  0.71125  1.0000
  C   C3689     1.0  0.88244  0.68000  0.52232  1.0000
  H   H5911     1.0  0.73122  0.96618  0.63050  1.0000
  H   H5912     1.0  0.92944  0.73362  0.49887  1.0000
  C   C3690     1.0  0.97937  0.69225  0.63693  1.0000
  H   H5913     1.0  0.89181  0.67002  0.52265  1.0000
  H   H5914     1.0  0.78067  0.77994  0.62787  1.0000
  C   C3691     1.0  0.87311  0.72141  0.58746  1.0000
  S   S1485     1.0  0.92716  0.72343  0.59955  1.0000
  C   C3692     1.0  0.68459  0.84343  0.64229  1.0000
  H   H5915     1.0  0.94238  0.73990  0.57220  1.0000
  H   H5916     1.0  0.97184  0.71721  0.60569  1.0000
  H   H5917     1.0  0.76913  0.94146  0.62405  1.0000
  H   H5918     1.0  0.88334  0.68607  0.51056  1.0000
  H   H5919     1.0  0.93445  0.65705  0.51580  1.0000
  H   H5920     1.0  0.89802  0.70153  0.53357  1.0000
  S   S1486     1.0  0.97308  0.76449  0.58634  1.0000
  H   H5921     1.0  0.90703  0.68472  0.52723  1.0000
  C   C3693     1.0  0.66526  0.80491  0.62608  1.0000
  H   H5922     1.0  0.67165  0.83129  0.52943  1.0000
  H   H5923     1.0  0.79492  0.83560  0.68679  1.0000
  C   C3694     1.0  0.83243  0.98168  0.68956  1.0000
  C   C3695     1.0  0.95555  0.70928  0.51688  1.0000
  Fe  Fe739     1.0  0.92592  0.71718  0.57926  1.0000
  H   H5924     1.0  0.87175  0.67612  0.52589  1.0000
  C   C3696     1.0  0.89731  0.69435  0.52664  1.0000
  Fe  Fe740     1.0  0.78720  0.85583  0.65106  1.0000
  C   C3697     1.0  0.94060  0.71183  0.49487  1.0000
  Fe  Fe741     1.0  0.93298  0.72275  0.54598  1.0000
  H   H5925     1.0  0.86518  0.96067  0.67414  1.0000
  H   H5926     1.0  0.89873  0.70079  0.51496  1.0000
  C   C3698     1.0  0.87041  0.70270  0.53079  1.0000
  C   C3699     1.0  0.74286  0.96042  0.63161  1.0000
  H   H5927     1.0  0.72693  0.91051  0.70965  1.0000
  H   H5928     1.0  0.89568  0.75499  0.62682  1.0000
  C   C3700     1.0  0.93770  0.72365  0.50180  1.0000
  H   H5929     1.0  0.86595  0.72719  0.60877  1.0000
  C   C3701     1.0  0.93849  0.65241  0.60789  1.0000
  C   C3702     1.0  0.85654  0.73368  0.57055  1.0000
  H   H5930     1.0  0.91043  0.74943  0.61186  1.0000
  C   C3703     1.0  0.94555  0.74179  0.58133  1.0000
  H   H5931     1.0  0.87118  0.70939  0.51924  1.0000
  H   H5932     1.0  0.96121  0.71060  0.63175  1.0000
  C   C3704     1.0  0.89852  0.74936  0.61746  1.0000
  H   H5933     1.0  0.67350  0.82916  0.71895  1.0000
  H   H5934     1.0  0.85937  0.69950  0.53446  1.0000
  H   H5935     1.0  0.93920  0.73254  0.61888  1.0000
  H   H5936     1.0  0.84939  0.76089  0.48133  1.0000
  C   C3705     1.0  0.94371  0.73774  0.60761  1.0000
  C   C3706     1.0  0.91214  0.97023  0.60283  1.0000
  C   C3707     1.0  0.75782  0.92686  0.65735  1.0000
  C   C3708     1.0  0.97161  0.70709  0.63550  1.0000
  H   H5937     1.0  0.98907  0.83152  0.61238  1.0000
  H   H5938     1.0  0.84011  0.90240  0.63860  1.0000
  H   H5939     1.0  0.88364  0.97921  0.59881  1.0000
  H   H5940     1.0  0.82409  0.93594  0.65447  1.0000
  C   C3709     1.0  0.66635  0.84475  0.62869  1.0000
  S   S1487     1.0  0.93988  0.73591  0.52323  1.0000
  H   H5941     1.0  0.81598  0.82659  0.60228  1.0000
  Fe  Fe742     1.0  0.81839  0.80423  0.58331  1.0000
  S   S1488     1.0  0.83828  0.81338  0.56900  1.0000
  S   S1489     1.0  0.79574  0.81970  0.58718  1.0000
  Fe  Fe743     1.0  0.83719  0.77367  0.59262  1.0000
  S   S1490     1.0  0.85850  0.77996  0.57881  1.0000
  S   S1491     1.0  0.83978  0.75085  0.60688  1.0000
  Fe  Fe744     1.0  0.84974  0.80063  0.58760  1.0000
  S   S1492     1.0  0.86370  0.80662  0.59940  1.0000
  Fe  Fe745     1.0  0.84515  0.79181  0.56158  1.0000
  S   S1493     1.0  0.85484  0.78929  0.53816  1.0000
  S   S1494     1.0  0.82922  0.79350  0.60263  1.0000
  S   S1495     1.0  0.82447  0.78349  0.57460  1.0000
  H   H5942     1.0  0.77241  0.95807  0.62637  1.0000
  S   S1496     1.0  0.90141  0.88935  0.59409  1.0000
  S   S1497     1.0  0.86764  0.89212  0.61414  1.0000
  Fe  Fe746     1.0  0.88309  0.87695  0.59989  1.0000
  S   S1498     1.0  0.87613  0.87100  0.58212  1.0000
  Fe  Fe747     1.0  0.88677  0.90296  0.61043  1.0000
  S   S1499     1.0  0.89166  0.85994  0.61861  1.0000
  H   H5943     1.0  0.76774  0.82082  0.62286  1.0000
  C   C3710     1.0  0.83952  0.85147  0.63664  1.0000
  S   S1500     1.0  0.91657  0.67906  0.49188  1.0000
  C   C3711     1.0  0.86476  0.73954  0.48421  1.0000
  S   S1501     1.0  0.80246  0.80665  0.50410  1.0000
  H   H5944     1.0  0.79939  0.85506  0.61231  1.0000
  H   H5945     1.0  0.96006  0.84117  0.59946  1.0000
  N   N370      1.0  0.75338  0.96140  0.61703  1.0000
  H   H5946     1.0  0.84907  0.93970  0.62631  1.0000
  N   N371      1.0  0.66855  0.84452  0.64333  1.0000
  H   H5947     1.0  0.82434  0.87024  0.59081  1.0000
  C   C3712     1.0  0.74528  0.81905  0.54143  1.0000
  H   H5948     1.0  0.81506  0.84216  0.57711  1.0000
  C   C3713     1.0  0.83600  0.93075  0.65497  1.0000
  N   N372      1.0  0.76122  0.81831  0.54053  1.0000
  C   C3714     1.0  0.76210  0.91318  0.65325  1.0000
  C   C3715     1.0  0.85886  0.91469  0.64510  1.0000
  S   S1502     1.0  0.80242  0.97151  0.66087  1.0000
  C   C3716     1.0  0.85056  0.73947  0.59471  1.0000
  H   H5949     1.0  0.77412  0.82656  0.55030  1.0000
  H   H5950     1.0  0.79942  0.91193  0.63991  1.0000
  H   H5951     1.0  0.89443  0.73030  0.52829  1.0000
  C   C3717     1.0  0.89231  0.74847  0.59516  1.0000
  H   H5952     1.0  0.72545  0.90478  0.68666  1.0000
  H   H5953     1.0  0.86982  0.95759  0.61172  1.0000
  C   C3718     1.0  0.79352  0.79432  0.63959  1.0000
  H   H5954     1.0  0.87086  0.74548  0.62005  1.0000
  H   H5955     1.0  0.74817  0.79647  0.49314  1.0000
  C   C3719     1.0  0.97730  0.71744  0.63882  1.0000
  N   N373      1.0  0.81831  0.84922  0.59503  1.0000
  C   C3720     1.0  0.95448  0.83634  0.61046  1.0000
  H   H5956     1.0  0.83612  0.92406  0.66640  1.0000
  C   C3721     1.0  0.84037  0.79442  0.52857  1.0000
  C   C3722     1.0  0.84317  0.79141  0.51455  1.0000
  C   C3723     1.0  0.83151  0.79507  0.50707  1.0000
  C   C3724     1.0  0.81705  0.80192  0.51349  1.0000
  C   C3725     1.0  0.81430  0.80509  0.52744  1.0000
  C   C3726     1.0  0.82593  0.80133  0.53496  1.0000
  H   H5957     1.0  0.85429  0.78621  0.50945  1.0000
  H   H5958     1.0  0.83372  0.79251  0.49635  1.0000
  H   H5959     1.0  0.80326  0.81060  0.53237  1.0000
  H   H5960     1.0  0.82375  0.80397  0.54564  1.0000
  C   C3727     1.0  0.86588  0.82497  0.59451  1.0000
  C   C3728     1.0  0.86765  0.83108  0.60530  1.0000
  C   C3729     1.0  0.87006  0.84549  0.60165  1.0000
  C   C3730     1.0  0.87122  0.85369  0.58711  1.0000
  C   C3731     1.0  0.86914  0.84771  0.57633  1.0000
  C   C3732     1.0  0.86630  0.83339  0.58006  1.0000
  H   H5961     1.0  0.86712  0.82467  0.61654  1.0000
  H   H5962     1.0  0.87114  0.85019  0.61008  1.0000
  H   H5963     1.0  0.87000  0.85405  0.56504  1.0000
  H   H5964     1.0  0.86498  0.82868  0.57167  1.0000
  H   H5965     1.0  0.87553  0.97027  0.62804  1.0000
  H   H5966     1.0  0.74402  0.81282  0.53389  1.0000
  N   N374      1.0  0.88849  0.75670  0.60704  1.0000
  H   H5967     1.0  0.88321  0.77791  0.59240  1.0000
  H   H5968     1.0  0.86944  0.76310  0.62402  1.0000
  H   H5969     1.0  0.83729  0.74988  0.57828  1.0000
  H   H5970     1.0  0.80350  0.79576  0.63042  1.0000
  N   N375      1.0  0.84315  0.92148  0.64392  1.0000
  C   C3733     1.0  0.87769  0.95161  0.61870  1.0000
  H   H5971     1.0  0.82490  0.85905  0.60901  1.0000
  C   C3734     1.0  0.75536  0.80186  0.58882  1.0000
  C   C3735     1.0  0.78034  0.81274  0.58760  1.0000
  C   C3736     1.0  0.78234  0.79876  0.58475  1.0000
  C   C3737     1.0  0.76989  0.79330  0.58542  1.0000
  H   H5972     1.0  0.84292  0.84354  0.62964  1.0000
  H   H5973     1.0  0.79344  0.79210  0.58201  1.0000
  H   H5974     1.0  0.77153  0.78254  0.58305  1.0000
  C   C3738     1.0  0.88459  0.93671  0.61849  1.0000
  C   C3739     1.0  0.88091  0.95880  0.62792  1.0000
  H   H5975     1.0  0.77770  0.82257  0.63530  1.0000
  C   C3740     1.0  0.89457  0.92897  0.62768  1.0000
  H   H5976     1.0  0.89063  0.67096  0.54835  1.0000
  H   H5977     1.0  0.90004  0.91754  0.62753  1.0000
  H   H5978     1.0  0.79523  0.84825  0.59870  1.0000
  H   H5979     1.0  0.90395  0.74856  0.58859  1.0000
  C   C3741     1.0  0.76864  0.95346  0.61899  1.0000
  H   H5980     1.0  0.76846  0.81765  0.51745  1.0000
  H   H5981     1.0  0.86215  0.85246  0.63551  1.0000
  H   H5982     1.0  0.85852  0.96238  0.69312  1.0000
  H   H5983     1.0  0.79362  0.80022  0.64797  1.0000
  H   H5984     1.0  0.79848  0.86668  0.59431  1.0000
  C   C3742     1.0  0.87277  0.75690  0.61504  1.0000
  H   H5985     1.0  0.74598  0.96555  0.63902  1.0000
  C   C3743     1.0  0.82262  0.83388  0.60344  1.0000
  C   C3744     1.0  0.75336  0.81570  0.59199  1.0000
  C   C3745     1.0  0.82431  0.85654  0.64248  1.0000
  C   C3746     1.0  0.89112  0.95111  0.63691  1.0000
  C   C3747     1.0  0.95383  0.81582  0.63189  1.0000
  H   H5986     1.0  0.88458  0.75331  0.58742  1.0000
  N   N376      1.0  0.92287  0.83094  0.58885  1.0000
  C   C3748     1.0  0.90754  0.83666  0.58618  1.0000
  C   C3749     1.0  0.93136  0.84283  0.58243  1.0000
  C   C3750     1.0  0.93043  0.81815  0.58187  1.0000
  C   C3751     1.0  0.92210  0.82618  0.60495  1.0000
  H   H5987     1.0  0.90069  0.82808  0.59086  1.0000
  H   H5988     1.0  0.90760  0.84051  0.57416  1.0000
  H   H5989     1.0  0.90160  0.84634  0.59131  1.0000
  H   H5990     1.0  0.92572  0.85278  0.58724  1.0000
  H   H5991     1.0  0.94285  0.83912  0.58459  1.0000
  H   H5992     1.0  0.93238  0.84653  0.57026  1.0000
  H   H5993     1.0  0.93115  0.82131  0.56972  1.0000
  H   H5994     1.0  0.92432  0.80897  0.58654  1.0000
  H   H5995     1.0  0.91514  0.81776  0.61031  1.0000
  H   H5996     1.0  0.91714  0.83572  0.61047  1.0000
  H   H5997     1.0  0.93342  0.82122  0.60740  1.0000
  N   N377      1.0  0.88455  0.75329  0.52069  1.0000
  C   C3752     1.0  0.89638  0.74154  0.52683  1.0000
  Fe  Fe748     1.0  0.78730  0.96054  0.65554  1.0000
  C   C3753     1.0  0.88407  0.75115  0.50624  1.0000
  C   C3754     1.0  0.88785  0.76794  0.51871  1.0000
  C   C3755     1.0  0.75435  0.77251  0.48152  1.0000
  C   C3756     1.0  0.99053  0.71286  0.64404  1.0000
  H   H5998     1.0  0.90769  0.74197  0.51955  1.0000
  H   H5999     1.0  0.78082  0.80173  0.54515  1.0000
  H   H6000     1.0  0.66470  0.83138  0.66555  1.0000
  C   C3757     1.0  0.84717  0.74181  0.58093  1.0000
  H   H6001     1.0  0.92384  0.84467  0.63748  1.0000
  H   H6002     1.0  0.74204  0.98339  0.60793  1.0000
  N   N378      1.0  0.77951  0.80011  0.63412  1.0000
  H   H6003     1.0  0.66705  0.86574  0.72020  1.0000
  C   C3758     1.0  0.76888  0.80269  0.54523  1.0000
  H   H6004     1.0  0.94207  0.81361  0.58364  1.0000
  H   H6005     1.0  0.85957  0.90685  0.65596  1.0000
  C   C3759     1.0  0.82708  0.85863  0.59719  1.0000
  H   H6006     1.0  0.76409  0.83192  0.59373  1.0000
  H   H6007     1.0  0.75629  0.95506  0.59657  1.0000
  S   S1503     1.0  0.76834  0.86657  0.63930  1.0000
  H   H6008     1.0  0.86490  0.76237  0.60751  1.0000
  S   S1504     1.0  0.96967  0.76186  0.62902  1.0000
  C   C3760     1.0  0.84139  0.97874  0.66430  1.0000
  H   H6009     1.0  0.73958  0.81428  0.55286  1.0000
  H   H6010     1.0  0.76597  0.80401  0.65519  1.0000
  Fe  Fe749     1.0  0.90921  0.87312  0.61373  1.0000
  C   C3761     1.0  0.77815  0.81608  0.62723  1.0000
  S   S1505     1.0  0.93401  0.86272  0.60850  1.0000
  H   H6011     1.0  0.86523  0.92324  0.64375  1.0000
  H   H6012     1.0  0.93227  0.66220  0.63295  1.0000
  H   H6013     1.0  0.97072  0.81557  0.61170  1.0000
  H   H6014     1.0  0.82082  0.83347  0.61544  1.0000
  C   C3762     1.0  0.76580  0.82115  0.59133  1.0000
  H   H6015     1.0  0.81284  0.82337  0.68280  1.0000
  H   H6016     1.0  0.79496  0.78227  0.64481  1.0000
  H   H6017     1.0  0.93470  0.71285  0.48649  1.0000
  H   H6018     1.0  0.78776  0.81808  0.61785  1.0000
  C   C3763     1.0  0.96058  0.82186  0.61741  1.0000
  H   H6019     1.0  0.83507  0.90238  0.65791  1.0000
  H   H6020     1.0  0.78034  0.82445  0.52417  1.0000
  S   S1506     1.0  0.89597  0.88781  0.62970  1.0000
  H   H6021     1.0  0.83355  0.84494  0.57480  1.0000
  C   C3764     1.0  0.94118  0.84459  0.61762  1.0000
  H   H6022     1.0  0.75672  0.83902  0.54709  1.0000
  H   H6023     1.0  0.95722  0.74848  0.61393  1.0000
  C   C3765     1.0  0.75334  0.97715  0.60986  1.0000
  H   H6024     1.0  0.81822  0.86063  0.57244  1.0000
  H   H6025     1.0  0.79632  0.83196  0.71263  1.0000
  H   H6026     1.0  0.84182  0.93990  0.65301  1.0000
  C   C3766     1.0  0.80214  0.85507  0.60031  1.0000
  H   H6027     1.0  0.83466  0.82897  0.59954  1.0000
  S   S1507     1.0  0.88040  0.92807  0.60673  1.0000
  S   S1508     1.0  0.77457  0.98166  0.64359  1.0000
  H   H6028     1.0  0.83932  0.85432  0.59364  1.0000
  H   H6029     1.0  0.76014  0.97015  0.70660  1.0000
  C   C3767     1.0  0.77713  0.90776  0.64706  1.0000
  H   H6030     1.0  0.89165  0.73663  0.59975  1.0000
  H   H6031     1.0  0.70342  0.89188  0.72453  1.0000
  C   C3768     1.0  0.95563  0.75097  0.57856  1.0000
  C   C3769     1.0  0.76225  0.82714  0.55037  1.0000
  C   C3770     1.0  0.89776  0.93614  0.63690  1.0000
  S   S1509     1.0  0.74573  0.86213  0.67261  1.0000
  C   C3771     1.0  0.85042  0.85651  0.63993  1.0000
  H   H6032     1.0  0.83636  0.95215  0.69585  1.0000
  Fe  Fe750     1.0  0.97800  0.78136  0.62950  1.0000
  C   C3772     1.0  0.93406  0.83834  0.63185  1.0000
  H   H6033     1.0  0.75580  0.80249  0.64289  1.0000
  C   C3773     1.0  0.95990  0.75344  0.59028  1.0000
  S   S1510     1.0  0.81096  0.84949  0.63875  1.0000
  C   C3774     1.0  0.78785  0.91608  0.64489  1.0000
  H   H6034     1.0  0.89495  0.75164  0.49815  1.0000
  S   S1511     1.0  0.89590  0.95977  0.64823  1.0000
  C   C3775     1.0  0.95393  0.74678  0.60482  1.0000
  C   C3776     1.0  0.82142  0.84925  0.57914  1.0000
  H   H6035     1.0  0.97530  0.69953  0.60127  1.0000
  H   H6036     1.0  0.76341  0.79769  0.55667  1.0000
  Fe  Fe751     1.0  0.87755  0.87623  0.63253  1.0000
  C   C3777     1.0  0.84278  0.93079  0.62892  1.0000
  S   S1512     1.0  0.79695  0.94035  0.64573  1.0000
  S   S1513     1.0  0.85982  0.87273  0.65335  1.0000
  Fe  Fe752     1.0  0.75885  0.87885  0.65772  1.0000
  S   S1514     1.0  0.74702  0.83372  0.64893  1.0000
  H   H6037     1.0  0.90222  0.77234  0.59455  1.0000
  H   H6038     1.0  0.76261  0.83599  0.52109  1.0000
  H   H6039     1.0  0.86482  0.90828  0.63642  1.0000
  H   H6040     1.0  0.97013  0.71629  0.58800  1.0000
  C   C3778     1.0  0.89042  0.77208  0.60049  1.0000
  C   C3779     1.0  0.76843  0.82438  0.52515  1.0000
  H   H6041     1.0  0.90564  0.93012  0.64387  1.0000
  H   H6042     1.0  0.74840  0.94269  0.61283  1.0000
  H   H6043     1.0  0.73905  0.83072  0.53834  1.0000
  H   H6044     1.0  0.92624  0.65582  0.61224  1.0000
  H   H6045     1.0  0.78046  0.89729  0.64368  1.0000
  C   C3780     1.0  0.76657  0.79803  0.64662  1.0000
  N   N379      1.0  0.94696  0.66106  0.61167  1.0000
  H   H6046     1.0  0.88732  0.77873  0.60909  1.0000
  H   H6047     1.0  0.68676  0.84299  0.65317  1.0000
  H   H6048     1.0  0.96021  0.75609  0.56728  1.0000
  H   H6049     1.0  0.78957  0.79321  0.61356  1.0000
  H   H6050     1.0  0.76712  0.78611  0.65204  1.0000
  H   H6051     1.0  0.67363  0.81203  0.71481  1.0000
  C   C3781     1.0  0.94055  0.82410  0.63907  1.0000
  H   H6052     1.0  0.74052  0.77369  0.50971  1.0000
  N   N380      1.0  0.84191  0.97154  0.67988  1.0000
  H   H6053     1.0  0.90287  0.96748  0.58008  1.0000
  C   C3782     1.0  0.83495  0.90966  0.64671  1.0000
  H   H6054     1.0  0.69175  0.83334  0.63839  1.0000
  H   H6055     1.0  0.66733  0.78973  0.64699  1.0000
  C   C3783     1.0  0.80718  0.83507  0.68334  1.0000
  H   H6056     1.0  0.82757  0.87926  0.66231  1.0000
  H   H6057     1.0  0.80733  0.86322  0.68255  1.0000
  S   S1515     1.0  0.77872  0.86961  0.66813  1.0000
  H   H6058     1.0  0.72418  0.86679  0.70989  1.0000
  S   S1516     1.0  0.77676  0.83707  0.66535  1.0000
  S   S1517     1.0  0.76646  0.84442  0.70549  1.0000
  H   H6059     1.0  0.80837  0.86022  0.70147  1.0000
  H   H6060     1.0  0.85724  0.73457  0.49378  1.0000
  N   N381      1.0  0.81237  0.84028  0.69367  1.0000
  S   S1518     1.0  0.77104  0.96040  0.67740  1.0000
  H   H6061     1.0  0.67954  0.83328  0.55672  1.0000
  H   H6062     1.0  0.90975  0.97382  0.61343  1.0000
  H   H6063     1.0  0.80942  0.84193  0.67191  1.0000
  H   H6064     1.0  0.95075  0.66457  0.63123  1.0000
  C   C3784     1.0  0.75059  0.83710  0.71474  1.0000
  H   H6065     1.0  0.76949  0.79628  0.61853  1.0000
  C   C3785     1.0  0.80865  0.83111  0.70874  1.0000
  C   C3786     1.0  0.78357  0.92976  0.64903  1.0000
  H   H6066     1.0  0.75389  0.76091  0.48217  1.0000
  C   C3787     1.0  0.83094  0.87152  0.65514  1.0000
  H   H6067     1.0  0.90701  0.96051  0.60522  1.0000
  H   H6068     1.0  0.86200  0.97827  0.67869  1.0000
  C   C3788     1.0  0.80481  0.85595  0.69371  1.0000
  S   S1519     1.0  0.79193  0.96895  0.70305  1.0000
  C   C3789     1.0  0.82004  0.86680  0.65150  1.0000
  H   H6069     1.0  0.80835  0.87117  0.65560  1.0000
  H   H6070     1.0  0.76508  0.94578  0.65825  1.0000
  C   C3790     1.0  0.82876  0.83897  0.68892  1.0000
  H   H6071     1.0  0.88159  0.74021  0.50731  1.0000
  C   C3791     1.0  0.97683  0.71112  0.59664  1.0000
  C   C3792     1.0  0.85758  0.96801  0.68156  1.0000
  C   C3793     1.0  0.76854  0.93513  0.65526  1.0000
  C   C3794     1.0  0.76247  0.96818  0.71740  1.0000
  H   H6072     1.0  0.81241  0.83470  0.71686  1.0000
  H   H6073     1.0  0.83106  0.93615  0.62772  1.0000
  Fe  Fe753     1.0  0.76653  0.85182  0.68140  1.0000
  H   H6074     1.0  0.94036  0.65385  0.59574  1.0000
  Fe  Fe754     1.0  0.75701  0.84893  0.65518  1.0000
  H   H6075     1.0  0.92082  0.97240  0.57348  1.0000
  H   H6076     1.0  0.99057  0.80495  0.62437  1.0000
  H   H6077     1.0  0.66275  0.86833  0.63988  1.0000
  C   C3795     1.0  0.94194  0.67705  0.60551  1.0000
  C   C3796     1.0  0.74061  0.79660  0.48614  1.0000
  S   S1520     1.0  0.98901  0.78602  0.60535  1.0000
  Fe  Fe755     1.0  0.75942  0.98253  0.66594  1.0000
  H   H6078     1.0  0.66499  0.84889  0.56101  1.0000
  S   S1521     1.0  0.88410  0.71236  0.48791  1.0000
  H   H6079     1.0  0.97770  0.82417  0.63885  1.0000
  H   H6080     1.0  0.92974  0.68105  0.60973  1.0000
  H   H6081     1.0  0.72948  0.80362  0.49007  1.0000
  Fe  Fe756     1.0  0.81225  0.80388  0.48072  1.0000
  H   H6082     1.0  0.94409  0.67944  0.59323  1.0000
  C   C3797     1.0  0.66364  0.83163  0.65427  1.0000
  H   H6083     1.0  0.71778  0.78857  0.48117  1.0000
  H   H6084     1.0  0.72746  0.89619  0.72614  1.0000
  C   C3798     1.0  0.94431  0.65847  0.62791  1.0000
  C   C3799     1.0  0.94156  0.65524  0.56460  1.0000
  H   H6085     1.0  0.98842  0.83426  0.64341  1.0000
  Fe  Fe757     1.0  0.98283  0.65588  0.63993  1.0000
  Fe  Fe758     1.0  0.99188  0.74832  0.63369  1.0000
  N   N382      1.0  0.90626  0.98237  0.59121  1.0000
  H   H6086     1.0  0.96986  0.66249  0.60817  1.0000
  C   C3800     1.0  0.96311  0.65628  0.60541  1.0000
  H   H6087     1.0  0.96543  0.65806  0.59314  1.0000
  C   C3801     1.0  0.99421  0.72725  0.58532  1.0000
  H   H6088     1.0  0.99262  0.70913  0.56929  1.0000
  H   H6089     1.0  0.69993  0.98395  0.64301  1.0000
  Fe  Fe759     1.0  0.93758  0.68597  0.47817  1.0000
  C   C3802     1.0  0.66550  0.93468  0.87429  1.0000
  H   H6090     1.0  0.77101  0.95992  0.75625  1.0000
  C   C3803     1.0  0.76855  0.96231  0.74542  1.0000
  Fe  Fe760     1.0  0.68738  0.96336  0.75682  1.0000
  H   H6091     1.0  0.66678  0.80348  0.75582  1.0000
  C   C3804     1.0  0.69277  0.88784  0.79110  1.0000
  Fe  Fe761     1.0  0.66613  0.86376  0.75243  1.0000
  N   N383      1.0  0.70195  0.95027  0.83068  1.0000
  H   H6092     1.0  0.67484  0.93092  0.90698  1.0000
  C   C3805     1.0  0.67073  0.83792  0.92163  1.0000
  H   H6093     1.0  0.67858  0.81554  0.74371  1.0000
  C   C3806     1.0  0.67273  0.93607  0.89604  1.0000
  Fe  Fe762     1.0  0.69497  0.86818  0.75672  1.0000
  S   S1522     1.0  0.70142  0.84473  0.76905  1.0000
  S   S1523     1.0  0.71066  0.88291  0.75352  1.0000
  Fe  Fe763     1.0  0.69402  0.83926  0.75146  1.0000
  S   S1524     1.0  0.70691  0.82217  0.73829  1.0000
  Fe  Fe764     1.0  0.67721  0.84803  0.78048  1.0000
  C   C3807     1.0  0.74483  0.83699  0.72976  1.0000
  S   S1525     1.0  0.68934  0.86256  0.73819  1.0000
  C   C3808     1.0  0.72413  0.82714  0.72938  1.0000
  Fe  Fe765     1.0  0.66463  0.78485  0.96920  1.0000
  H   H6094     1.0  0.69612  0.87630  0.79739  1.0000
  C   C3809     1.0  0.69473  0.96322  0.83749  1.0000
  S   S1526     1.0  0.67889  0.80009  0.95281  1.0000
  S   S1527     1.0  0.67556  0.88219  0.88179  1.0000
  Fe  Fe766     1.0  0.67524  0.87109  0.86417  1.0000
  S   S1528     1.0  0.69404  0.86074  0.84759  1.0000
  H   H6095     1.0  0.72379  0.95525  0.82473  1.0000
  H   H6096     1.0  0.69389  0.81758  0.96318  1.0000
  H   H6097     1.0  0.68842  0.91738  0.78698  1.0000
  C   C3810     1.0  0.67749  0.82400  0.92926  1.0000
  C   C3811     1.0  0.66551  0.85109  0.82924  1.0000
  H   H6098     1.0  0.68882  0.81874  0.92464  1.0000
  H   H6099     1.0  0.67002  0.92021  0.79878  1.0000
  S   S1529     1.0  0.67039  0.83995  0.76427  1.0000
  C   C3812     1.0  0.73151  0.83220  0.73702  1.0000
  H   H6100     1.0  0.66592  0.79278  0.85633  1.0000
  H   H6101     1.0  0.68262  0.94049  0.83887  1.0000
  H   H6102     1.0  0.67477  0.82744  0.96559  1.0000
  C   C3813     1.0  0.67140  0.95730  0.87556  1.0000
  H   H6103     1.0  0.68035  0.90437  0.82048  1.0000
  H   H6104     1.0  0.72704  0.83228  0.74858  1.0000
  C   C3814     1.0  0.67470  0.84740  0.81613  1.0000
  C   C3815     1.0  0.68990  0.84772  0.81266  1.0000
  C   C3816     1.0  0.69592  0.85155  0.82248  1.0000
  C   C3817     1.0  0.68667  0.85540  0.83556  1.0000
  H   H6105     1.0  0.79134  0.96290  0.73387  1.0000
  H   H6106     1.0  0.70002  0.92767  0.83437  1.0000
  H   H6107     1.0  0.69709  0.84474  0.80259  1.0000
  H   H6108     1.0  0.70772  0.85161  0.81990  1.0000
  H   H6109     1.0  0.66438  0.95468  0.85726  1.0000
  H   H6110     1.0  0.68862  0.83537  0.96804  1.0000
  C   C3818     1.0  0.67823  0.91266  0.79193  1.0000
  C   C3819     1.0  0.68831  0.89731  0.81298  1.0000
  C   C3820     1.0  0.78008  0.96397  0.73275  1.0000
  H   H6111     1.0  0.70317  0.89214  0.78584  1.0000
  C   C3821     1.0  0.68527  0.93065  0.75255  1.0000
  H   H6112     1.0  0.70013  0.97277  0.83168  1.0000
  C   C3822     1.0  0.68634  0.90574  0.75070  1.0000
  C   C3823     1.0  0.70111  0.90141  0.75249  1.0000
  C   C3824     1.0  0.70810  0.91176  0.75397  1.0000
  C   C3825     1.0  0.70015  0.92641  0.75404  1.0000
  H   H6113     1.0  0.68099  0.89788  0.74925  1.0000
  H   H6114     1.0  0.71957  0.90841  0.75530  1.0000
  H   H6115     1.0  0.70548  0.93439  0.75536  1.0000
  H   H6116     1.0  0.67040  0.87998  0.81342  1.0000
  C   C3826     1.0  0.67591  0.80624  0.82808  1.0000
  H   H6117     1.0  0.67830  0.80773  0.81584  1.0000
  C   C3827     1.0  0.66685  0.94939  0.86803  1.0000
  Fe  Fe767     1.0  0.68594  0.98096  0.77894  1.0000
  C   C3828     1.0  0.67415  0.95080  0.88970  1.0000
  S   S1530     1.0  0.70577  0.97290  0.73988  1.0000
  H   H6118     1.0  0.69548  0.96062  0.84927  1.0000
  H   H6119     1.0  0.67329  0.91306  0.78261  1.0000
  H   H6120     1.0  0.71966  0.94310  0.84254  1.0000
  H   H6121     1.0  0.70523  0.96386  0.80862  1.0000
  H   H6122     1.0  0.72388  0.93625  0.82597  1.0000
  Fe  Fe768     1.0  0.71568  0.96978  0.75938  1.0000
  C   C3829     1.0  0.71804  0.94601  0.83100  1.0000
  H   H6123     1.0  0.66693  0.92371  0.74948  1.0000
  H   H6124     1.0  0.70592  0.94479  0.80955  1.0000
  S   S1531     1.0  0.73991  0.96140  0.76054  1.0000
  H   H6125     1.0  0.69103  0.88590  0.81990  1.0000
  C   C3830     1.0  0.75389  0.96378  0.74419  1.0000
  S   S1532     1.0  0.69838  0.95817  0.77591  1.0000
  H   H6126     1.0  0.69551  0.93463  0.85088  1.0000
  S   S1533     1.0  0.66696  0.84191  0.80458  1.0000
  S   S1534     1.0  0.67843  0.96111  0.89996  1.0000
  H   H6127     1.0  0.68807  0.88722  0.78202  1.0000
  C   C3831     1.0  0.66853  0.92797  0.88831  1.0000
  H   H6128     1.0  0.68470  0.79695  0.83232  1.0000
  N   N384      1.0  0.68183  0.89735  0.80072  1.0000
  S   S1535     1.0  0.67125  0.87200  0.76967  1.0000
  H   H6129     1.0  0.67717  0.81656  0.83025  1.0000
  H   H6130     1.0  0.67683  0.84333  0.91119  1.0000
  H   H6131     1.0  0.67914  0.79854  0.73919  1.0000
  C   C3832     1.0  0.66970  0.81690  0.94283  1.0000
  H   H6132     1.0  0.68828  0.95716  0.81457  1.0000
  C   C3833     1.0  0.67143  0.85531  0.83879  1.0000
  C   C3834     1.0  0.70030  0.95416  0.81519  1.0000
  C   C3835     1.0  0.69475  0.93772  0.83904  1.0000
  C   C3836     1.0  0.66802  0.89154  0.80684  1.0000
  H   H6133     1.0  0.66815  0.73815  0.93193  1.0000
  H   H6134     1.0  0.69884  0.90146  0.80877  1.0000
  C   C3837     1.0  0.67154  0.80794  0.74399  1.0000
  H   H6135     1.0  0.68638  0.69768  0.97724  1.0000
  H   H6136     1.0  0.68267  0.96704  0.83705  1.0000
  S   S1536     1.0  0.67474  0.94849  0.75364  1.0000
  C   C3838     1.0  0.67843  0.92037  0.75074  1.0000
  H   H6137     1.0  0.67277  0.96842  0.87039  1.0000
  C   C3839     1.0  0.68505  0.82479  0.97001  1.0000
  H   H6138     1.0  0.75045  0.84094  0.73573  1.0000
  H   H6139     1.0  0.66411  0.85850  0.84864  1.0000
  H   H6140     1.0  0.66800  0.77994  0.83648  1.0000
  H   H6141     1.0  0.66279  0.89143  0.79791  1.0000
  H   H6142     1.0  0.66930  0.65281  0.91832  1.0000
  H   H6143     1.0  0.66752  0.91661  0.89325  1.0000
  C   C3840     1.0  0.75082  0.96679  0.73013  1.0000
  H   H6144     1.0  0.73958  0.96766  0.72910  1.0000
