data_image0
_chemical_formula_structural       SCSH4FeC6H2C2SCHCHSCH2CHNC2H6SNHCHSH6CH2CFeS2FeS2FeSFeS3FeS2FeS2FeSFeS3H2CH3FeS2H2CSCHSH9C7H4C3HCH3C6H4C6H4C6H4C6H4C6H2NC4H12NHNSHCHSC4HSH3CH6SH3NCH2NC2H2FeH2CH2N2C4HCH5CH4FeNCHSCH4SCHFeCH9C2H2C2H3CHCH3SH3C2HSH2FeCH4CHCH3CSH2FeCSFeSFeHSH3C2H2CH3CHNHCH4CH2S2H2FeHSC2HCH2FeS2FeS2FeSFeS3FeS2FeH2NCFeHS3CH2CHCH4CSH2C6H3C6H4C2H3CH6CH2CSHC6H6CHNH2C3H4SCFeHCHSCH3SH4NC4H12NC4H12NC4H5C2H2NC2FeCSH2CH2SHC2FeHCSHNH2C2SFeSHFeSFeSHS4H3SHCHCH2FeSFeH2S3CNH4CH2C7H4C6H4C4HCH2CHC6FeH3CH3SHCSHNH2Fe2SH3CH3SHCH2CH2C4HN2HSCH3CH2SH3SNCH2C2H2CSCHSHNFeCS2Fe2SCFeS2HFeSFe2SC3H4C6H3C2H2Fe2H2CHCH3CH3C3HSHSCHCH2CH3NCH4SHCHSH3CHFeSHSCFeSH2SCH2CH5FeHCH8CH2CH2CH2CSHC2HNCSHCHC2H3CH2FeHSFeS2Fe2S3FeHSFe2SH2C6H4C6H4C2H2S2H2NSH2SH4CH2NS2H2CSH8NHCH3CSCHCHCH3CHCH2CH2C2H2C2HFeCFeC2HNHCH2SHCH9CHCH2SH2CHSFeS2FeHSFeS2CFeS4HCH2S2CHCHCH2SH2CHSH2CHSHC2SH3C6H3C7H2CHSCFe2NC4H3C2HNCHFeCH3CHCH4FeH3CHCHSH3C2NHSC2NFeHC3H3CH4CH2CH2CHCH2C2HFeH5CFeCSHCH3NH3CH2CH2SH2FeS2FeS2FeSFeS3H4CH2NHC2NC3H3C3H2C6NH2CH3SHCHCFeCH3C2H4CHCSH3SCHCNH3C2H5C3H4C3H8FeH5CNCFeHSFeSFeS3FeS2FeSFeSFeS3FeC6H4C6H4C6H3SHC4H5CH2CSHCH4FeHC2HCHSH2NHCH2C2HCHCHCSCNC3H9CH2CSCHS2H6C2H3C2H2SHCH4NC2H2CHCH5SCHCFeC2S2NH3CH2CH2C2H2CFe2S2FeS2FeSFeHS2FeS2FeS2CFeS3CH3SCH4SNC6H5C2HC4H2C6H7SCHC3H2CH3CHC3HCNCNH2C2H2NH3NFeH2CH6FeH3CH2CH2CH4CHCHC2H4NC2H2CH2CH4CH2CHCH4CH2C2HCH3CH8SNSFeSFeSH2SHCHC3FeHC4HNC6H3C2HSH6CSHC2HSCHC2NC4H12CH3CH2C3H2SH2CHCHC2H3CH3FeH2CH2NFeH2SHC3H2C2HSHSH4CFeSHSHNC6H11CNH2SH2C2HCHC2HCH5CHCHC2Fe2SFeSFeS2FeS2FeSHFeSFeS3C2HC3FeSH7CHSCSHFeC3HNH5SH3C6H4C6H4C3H2CH2CHCFeH3CHSH2NCH4CHCHCH2SC2H2CSH2S2H2CHC2HNH6NH6CNFeHCH5CH4CH5CH2S2CHSFeS2HFeS3HC2H2C6H7C2H2C2FeH6CSH5CHC2FeH2CHCH3FeCHCHNH2CH2CSCH4FeSFeS2FeSFeS3FeS2CS3H2FeS2FeHFe2S3CSH2C4H2C3H2C2H2C6H4C6H4CHNCH2CSH3NH2C3FeHCH2CHCHCH2CHC2H2CH2C2H2SCHNC4H12C2FeSC2H3CH2SH2CHC2H2C3HSH3CNHCNSCH2CH3NHCHC2H7CHCH2NHCH2C2HNCHCH2SH3C2H4C2FeC2SCHFeS2FeS2FeSFeS3HSH4CFeS2H3C2FeH2SHSHFeS2HNC2HFeCSH2CHC2H7C2HNH4C3H2C6HNH2C6H4C6H6SNCH3CHC2SH5CFeHNCFeHCH2SHCSHSHCH4CHC3HCH4FeHCHCH2CHCH4CH2NSHCH7SH2CH2CH2CH2SNFeS2FeSFeS3H3CH2CH2FeS2FeS2FeSFeS2H3FeS2FeHSHS3HCHFeS2CHSCFeCS2H2SH3CH2CH2C2H2SC2H2C7H2C6H4C6H6C2HNHSH2C6HNH2C6H5CH5C2H2CH2CH4SH5SNC4H3CHC2HNC4H12C2HNC2HNCH2C4H2CH2FeH3CH3FeNC2H2CH5CH5NH2FeH3SHCHCH9FeS2FeS2CSNS3CSH2FeH2C3H3FeSH4Fe3HC2H2NHCHCSHCH3FeCSC2HCSCHCH4C2H5FeC3HFeHC2H4NCHNCSH2SHNCSH2SFeCHSFeS2HSFeS2FeSFeSCHC3HC2H2C6H5C7H7CH2CHSHFeH2SCH3CHCHCSFeH2CH2CSH4CHSH3FeHFe3S5CSFeCH3CHFeS2FeS2Fe2S3C5HCH2C3HC6H4C6H3C6H4SH2C3H4CH6FeH4CH3CHSNH4C2H6SH2SH2C2HCSCSH3SH2SH2NC4H13SCH2SCSCHSFeC2HC2HC2H5C2H2CFeSHFeCH2FeCNHSCFeH2FeH3SHC3SNC2SCSC3HC2HCSH2NCH2C6HNH2CHFeH2CSH2SH4CH2CFeHCHSHCH3FeH5CHSNCS2H4NCHFeH3CHC2H3SFeS2FeSHCSFeNFeCSCHCH2FeHSHCH6CHC2H2SCH4CH2NHNHCFeS2HCH2SHNSC2HC3HCFeC2HSH3CH6C2H2FeH3SH3C2NSHCSHCHCH4C3H3CH2FeS2FeS2FeSFeHS2HCSFeSHSHCH8C7H6C3H2C4H2SH2C2H2CFeH2S2H4C2HFeN2CHCH2SFeHCH4SH3SH2CHCHCHC2H5CH6C2H3CHNS2CH4C2H2CHCH2NCSHFeCFeSCFeH2NC3H3SC2H3CHCHNC3S2CNCHCHCHCHCH5CH2CHC2H2SH2Fe2HCHSH2CHSCFeH3FeSHSFeS2FeS2FeSFeS3CH3CH2SHCNCHC2H2CHCSH3C2HFeC6H5C6H4FeH3SCH3SCHNC4H13S2FeC2HNH2CH2CHFeHCHSCHCH2C2H2NC2H2SH2CSH2FeS2FeS2FeSFeS3H2CS2HCFeS2CH2CH3SC6H2C2H2C3H2C6H4C2H2C2HSH8CNC4H13CH2CH5NH3NH2CHCH2SFe2HFe2S2FeSFeS2Fe2S2C4HCH3C6H5C6H4CH3NHCHC2SH2SCH2C2HSHSCS2H2CH5CH5CH2SCH3CSHFeS2FeS2FeSFeS3CH3FeSH2S2H2C3HC2H2NC6H4C2FeHC2HCHSHCS2H2C6H7CH3NC3H10CH2C2FeH3CHFeH9CHC2H2NC3H4CHSCHNHCH2S2CHFeSFeS2Fe2S2FeS2FeS2FeSFeS3FeCH2FeC2FeCH2CH2C6H4C6H6SC2H2SNC4H2CH7SHFeH3NH3SHCH3CNSH4CHC3HCH2CH2CSH3NC3HFeH5S2C5HCHNCH10C2HC2HCH2NCH3C2H2CH4CH4C4S2H3CH2CFeSH2FeS2HCFeSFeSCHC2H2C3H3C5HCHCH2NHCH5NC2HSH4CFeH4FeH3CFeS2HC2NSHS2HC2HSCHC3HCH2CH3CFeHCHCHSCFeSH2CS2HCHC2H2SNC4HC2HFeH2C6SH3SHNCHCH2CH7C2H4CSFeH2CHCH5FeSN2SFeSC4H5C4HCH2C2SH2CHCH2CSHCHFeC2HCHN2HFeH5CH2SHCHFeHC2S2FeS2FeS2FeSFeS3HCH3SH2FeS2FeS2FeSFeS3FeS2FeHC2SHS3NH5C6H4C3H2CH2CHC7H3C6H4C6HCH2C4H5CH3SC2H3CHC2H2CH2NH2CFeHCH4CH7CHC2H5NH2CS2H2CH2FeHSHCNHCH2NC4H16C3SHCH2FeHCHC4H3C2H2CH4NHCHC2H2CH4NC2H2NH5CHC2HCHCH3SH3SH2CH2CHCH3NSC2H6CHCHCH2C2H3SCH2CSHCH3CH2SHC3NH2SCHCHC3FeC3FeCH2CH3CH2NH3CHFeCH3CSHC2H3NHSH5CFeS2HFeHSC2SH4C4SH3C3H3S2H6CHFeH2SCNH2C2FeH4NCH2SCHCH2CSHCH2FeHC2SHFeH2SHFeS2FeS2FeSFeS3CHC2H2FeS2FeS2FeS2FeSFeS3H4SHC2H2C6H4C2HSC2HCH2C6H8NC5NCHSH2C6H4CHSHC3HC7H3CSHCH2CHFeHFeHSFeH3SCH5NC4H12C4SH4NHCNC4H14C3HNH2CH2NC4H17CHSCHFe2HNH4C2HC3H4CHC3HSCH4CSHC2HSHCH2FeNSCH2CSHCH4CFeS2FeSCFeSFeS2H3SHC2SHFeS2FeS2FeSFeS3FeS2H2FeHC2SH3C3HC6H4C4H3C6H4CSCH2C6H4CSHC4HC4H4CH2SCH4NHCH3CH2NCH3CHCH2SCHCH5NCH5NC3H9NH2FeCHFeHCHFeHCHCHCH2C3H3CH2C2H8SCHCH2CHCNHCSC2SHCHCH3CH2CH3CH2NCH2CH4SH2S2FeSH2C2FeHC6H3CHC4H2FeSNSC2HCHC2S2CHFeC2HCFeCH2C2NHSFeC2HNHSHCH4CHSHCH2CHSH3CHCSH2SFeH7SCHCFeH7SC2H2SHCH5C3HSHC3H5CSCH3FeHSFeS3FeSFeS3FeHSH5SHCSH3SHFeCH2SC6H2NC6H4SH2C5NH2CHCH3C2HCNHC2HCSNFeH3CHCH4C2H8SHCHCFeHCH2NCH2CHCH2SH2CHFeSFeCHNCFeCH2NH3SCSCH2SH3FeH2SHCS2C2H2C2H2C7H2FeHSHC3NHCH5CHC2HC2H5CHCHNCHSNH2CH5CH3CSFeSFeS2FeS2FeHFeS2HCH2CHC2HC2NC3H2C5H5FeHCHS2CH2SCHC2SCH2CH2CHCFeH2CHCH4CHCH3FeH2SH2CHCHFeS2HS2HFeS2FeSFeSFeS2FeS2FeSFeS3H2FeS2FeS2HFeS2FeHCH2SHC2HFeC3H3C6H4C6H6C6H4CSH5SC4H2CHFe2H3CHC5H3C2H2CH2CHCHCFeH3NC4H12CHCHCH5SCH2FeH3NHCSCHCHFeNC2H3C3H3SCH3CSHNH9C2SHCSHNC3H3CH2NCHCSHCHNH4NCHCHCSCH3CSC2H3FeSCFeSFe2S2C2H2SH5CH2SHC2H3CHCHCH4CH2CH3C2H2C2SCHC4H2CH2FeH3C2H3SHC2HCHSHS2HCH2FeS2FeSFeHCS3HSFeSCHS3C3HCH2SFeCHSH2CSHCHCHCHC5H4NC2NFeH3C7H4C2H2C2H3CS2H3CHSHCSH2C2HFeSHNHCH4S2H3CFeHSCH5NC4H12C2HFeCHC3H3FeHFeHC2NSHFeH2SH2CH2CH3C2HNCHFeHFe2H2SCH5C6HCH2CFeH2CHSHSC2FeH3FeS2HFe2H2CH3C2HSFeSNSCFeS3CHC2HCSHFeHC2HC5H3SHCH2NSH6C5H4FeH3CS2N2HFeSC2HNFeCH3FeH5CSC2H4SHCH2CH6SHC3HNCSC2H4CHSHCH9CSHFeSH2SFeS2FeSFeS2CFeS2FeSFeSFeS2H2CH3CHC5H4CH3C2H2C6H4NC5H8CHSCHSCH2NC4H11CHCH4CSH3CHC2SNSCH2CH8C2SH3CSFeH9SH6SCSFeH4CFeCSFeS2FeSCSCFeHSH4C2H3CNCSCHFeHCSC6H4C6H4SH6CFeH2NH2CHC2SH2NCHCH5CHCH3CH2CHFeS2FeS2FeHFeS3H2CNC3H3C3HC2H2CHC6H3C5NHC3HCH6C2H2CH3CH2CH3CNCH2SCHSCH6CH4SHNH2CHC3HSHCH2CHFeS2FeSFeHFeS3FeS2FeS2FeS2FeS2Fe2HS2H2CH2NH2FeSHCHCNHC4H2C2H4SHC7H4C6H8C6H4SNHCH3NHC2H2NC4H12FeCHSCHCH4FeH2SH4CH2CH4CH4CH4CH3NHCHSHC3HSH2CSHFeS2HC3HC2H2CNHSC2H2SHNH4CHNH2CH2CH3CHCH2CSH3C2H2C2SHCHC3H2CFeS2FeS2FeHFeS4NSH2C9H4C6H2CH2C5FeHSH2CFeH2CSH4FeH3SH3CH2C2HCSHFeCHCH3FeH4CSCH2FeHNCSC2H2SH3FeH2SH4NH5CH2SCSCH5C3H4SCH4FeH8CSHC3HSCH2C4HSCHCFeH2SCH5CNH2CHFeSCFeHSHFeS2FeS2FeSFeS3H2FeS2FeS2FeSFeS4C5H4C6H3C2H2SC6H4C6H10CH2SCH2C3H4CHCH3CHC3HC2HSH2SHSHCSHNH3SCNHCH3CSHC2SHCH2FeC2HNC4H12Fe2SH3CFeH4S2H3NHFeNH2CHCH3CHCHNC4H11C2HSH3C4H2CH2C2FeHFeHC2H3CSHCHSNCNC3H2CH5SCH2CH2CSCH10CHCSFeH2C2H2SHCH2C3H3CSHCH2CNH4FeSFeSCFeSHFeSFeS3HSNSCFeHFeSHSH3CH4SFeH3C6H4SHC2HSH6CHCH3SHC6H4NC3H7NH2CNHSC3H2FeH2C3H2FeNC2HCHCHSCH2CSFeHCH2CH2CH2FeHCHSHC2HNC2NHCH3FeH2FeSH3C2H4SC3HCH2CHCSH4SH2CH
_chemical_formula_sum              "S960 C2400 H3840 Fe480 N240"
_cell_length_a       77.9631
_cell_length_b       78.2529
_cell_length_c       78.2619
_cell_angle_alpha    75.2013
_cell_angle_beta     75.1367
_cell_angle_gamma    75.1829

_space_group_name_H-M_alt    "P 1"
_space_group_IT_number       1

loop_
  _space_group_symop_operation_xyz
  'x, y, z'

loop_
  _atom_site_type_symbol
  _atom_site_label
  _atom_site_symmetry_multiplicity
  _atom_site_fract_x
  _atom_site_fract_y
  _atom_site_fract_z
  _atom_site_occupancy
  S   S1        1.0  0.32257  0.27391  0.04312  1.0000
  C   C1        1.0  0.25790  0.30849  0.04792  1.0000
  S   S2        1.0  0.29473  0.28556  0.08877  1.0000
  H   H1        1.0  0.11116  0.29805  0.22544  1.0000
  H   H2        1.0  0.19110  0.23822  0.22089  1.0000
  H   H3        1.0  0.28525  0.29821  0.02109  1.0000
  H   H4        1.0  0.18890  0.21496  0.22695  1.0000
  Fe  Fe1       1.0  0.31958  0.28726  0.06627  1.0000
  C   C2        1.0  0.16594  0.27889  0.20892  1.0000
  C   C3        1.0  0.16600  0.28751  0.19086  1.0000
  C   C4        1.0  0.17689  0.30027  0.18221  1.0000
  C   C5        1.0  0.18826  0.30403  0.19138  1.0000
  C   C6        1.0  0.18861  0.29503  0.20929  1.0000
  C   C7        1.0  0.32273  0.28648  0.98809  1.0000
  H   H5        1.0  0.15732  0.28460  0.18362  1.0000
  H   H6        1.0  0.17658  0.30709  0.16836  1.0000
  C   C8        1.0  0.27634  0.30415  0.08851  1.0000
  C   C9        1.0  0.24138  0.30915  0.14700  1.0000
  S   S3        1.0  0.32601  0.31324  0.04882  1.0000
  C   C10       1.0  0.25923  0.30181  0.09892  1.0000
  H   H7        1.0  0.12948  0.29993  0.20635  1.0000
  C   C11       1.0  0.17735  0.28260  0.21809  1.0000
  H   H8        1.0  0.25737  0.28851  0.10646  1.0000
  S   S4        1.0  0.15101  0.26408  0.21984  1.0000
  C   C12       1.0  0.11700  0.30774  0.21364  1.0000
  H   H9        1.0  0.22894  0.31882  0.14364  1.0000
  H   H10       1.0  0.23135  0.31468  0.10767  1.0000
  C   C13       1.0  0.27156  0.30536  0.15191  1.0000
  H   H11       1.0  0.19736  0.29792  0.21645  1.0000
  N   N1        1.0  0.25494  0.31866  0.14838  1.0000
  C   C14       1.0  0.31618  0.30506  0.98669  1.0000
  C   C15       1.0  0.24451  0.31659  0.09966  1.0000
  H   H12       1.0  0.24679  0.30094  0.13639  1.0000
  H   H13       1.0  0.24870  0.29967  0.04801  1.0000
  H   H14       1.0  0.24365  0.31915  0.17645  1.0000
  H   H15       1.0  0.26995  0.29964  0.05309  1.0000
  H   H16       1.0  0.14698  0.30838  0.22482  1.0000
  H   H17       1.0  0.25066  0.31732  0.05778  1.0000
  S   S5        1.0  0.31857  0.31637  0.00233  1.0000
  N   N2        1.0  0.26326  0.31926  0.02966  1.0000
  H   H18       1.0  0.27677  0.31475  0.00309  1.0000
  C   C16       1.0  0.27265  0.30702  0.01702  1.0000
  H   H19       1.0  0.26386  0.29814  0.01633  1.0000
  S   S6        1.0  0.20205  0.31994  0.18070  1.0000
  H   H20       1.0  0.27754  0.29773  0.14079  1.0000
  H   H21       1.0  0.23704  0.29991  0.15997  1.0000
  H   H22       1.0  0.26869  0.29534  0.16469  1.0000
  H   H23       1.0  0.28211  0.31207  0.15299  1.0000
  H   H24       1.0  0.10724  0.31275  0.20441  1.0000
  H   H25       1.0  0.22292  0.22782  0.22572  1.0000
  C   C17       1.0  0.13375  0.31542  0.23166  1.0000
  H   H26       1.0  0.17745  0.27600  0.23197  1.0000
  H   H27       1.0  0.22021  0.20475  0.23255  1.0000
  C   C18       1.0  0.18758  0.22711  0.23245  1.0000
  Fe  Fe2       1.0  0.21517  0.09818  0.36515  1.0000
  S   S7        1.0  0.23265  0.08319  0.34384  1.0000
  S   S8        1.0  0.21577  0.08416  0.39414  1.0000
  Fe  Fe3       1.0  0.19878  0.12934  0.33771  1.0000
  S   S9        1.0  0.21547  0.11712  0.31421  1.0000
  S   S10       1.0  0.17447  0.15211  0.33437  1.0000
  Fe  Fe4       1.0  0.20838  0.09119  0.33117  1.0000
  S   S11       1.0  0.20175  0.07301  0.31692  1.0000
  Fe  Fe5       1.0  0.23847  0.11018  0.32875  1.0000
  S   S12       1.0  0.26682  0.11359  0.31391  1.0000
  S   S13       1.0  0.19018  0.10354  0.35381  1.0000
  S   S14       1.0  0.22250  0.12500  0.35095  1.0000
  Fe  Fe6       1.0  0.10132  0.07037  0.35445  1.0000
  S   S15       1.0  0.10313  0.08398  0.37564  1.0000
  S   S16       1.0  0.11806  0.07577  0.32642  1.0000
  Fe  Fe7       1.0  0.07084  0.05204  0.37866  1.0000
  S   S17       1.0  0.07039  0.06416  0.40196  1.0000
  S   S18       1.0  0.05048  0.03437  0.38348  1.0000
  Fe  Fe8       1.0  0.07278  0.08958  0.38097  1.0000
  S   S19       1.0  0.05553  0.11664  0.38493  1.0000
  Fe  Fe9       1.0  0.10074  0.05729  0.39434  1.0000
  S   S20       1.0  0.12095  0.04276  0.41203  1.0000
  S   S21       1.0  0.07100  0.07794  0.35832  1.0000
  S   S22       1.0  0.10113  0.04311  0.37254  1.0000
  H   H28       1.0  0.24351  0.16718  0.44938  1.0000
  H   H29       1.0  0.11873  0.10640  0.34007  1.0000
  C   C19       1.0  0.12494  0.14788  0.33983  1.0000
  H   H30       1.0  0.13651  0.15369  0.33999  1.0000
  H   H31       1.0  0.10399  0.12303  0.35218  1.0000
  H   H32       1.0  0.17299  0.23138  0.23846  1.0000
  Fe  Fe10      1.0  0.27922  0.08748  0.45292  1.0000
  S   S23       1.0  0.29297  0.05818  0.45598  1.0000
  S   S24       1.0  0.26881  0.10693  0.42937  1.0000
  H   H33       1.0  0.20487  0.23774  0.26321  1.0000
  H   H34       1.0  0.10803  0.00714  0.42199  1.0000
  C   C20       1.0  0.00278  0.08096  0.35641  1.0000
  S   S25       1.0  0.30103  0.09600  0.46076  1.0000
  C   C21       1.0  0.25683  0.13407  0.46678  1.0000
  H   H35       1.0  0.20185  0.25103  0.24131  1.0000
  S   S26       1.0  0.02205  0.15677  0.31666  1.0000
  H   H36       1.0  0.10887  0.12774  0.32791  1.0000
  H   H37       1.0  0.03986  0.20897  0.27586  1.0000
  H   H38       1.0  0.26612  0.12068  0.46751  1.0000
  H   H39       1.0  0.25008  0.12564  0.40099  1.0000
  H   H40       1.0  0.11427  0.15051  0.35194  1.0000
  H   H41       1.0  0.20167  0.20617  0.27176  1.0000
  H   H42       1.0  0.00216  0.26081  0.33942  1.0000
  H   H43       1.0  0.99964  0.29975  0.30046  1.0000
  H   H44       1.0  0.22945  0.11693  0.38689  1.0000
  C   C22       1.0  0.05497  0.18351  0.30077  1.0000
  C   C23       1.0  0.04065  0.03515  0.36524  1.0000
  C   C24       1.0  0.04792  0.04318  0.34765  1.0000
  C   C25       1.0  0.03938  0.04453  0.33343  1.0000
  C   C26       1.0  0.02353  0.03782  0.33664  1.0000
  C   C27       1.0  0.01640  0.02948  0.35420  1.0000
  C   C28       1.0  0.02497  0.02812  0.36845  1.0000
  H   H45       1.0  0.06018  0.04834  0.34496  1.0000
  H   H46       1.0  0.04508  0.05083  0.31986  1.0000
  H   H47       1.0  0.06277  0.19135  0.30483  1.0000
  H   H48       1.0  0.01932  0.02178  0.38202  1.0000
  C   C29       1.0  0.11602  0.04092  0.43556  1.0000
  C   C30       1.0  0.10126  0.05213  0.44442  1.0000
  C   C31       1.0  0.09845  0.05043  0.46326  1.0000
  H   H49       1.0  0.15691  0.13052  0.32296  1.0000
  C   C32       1.0  0.12771  0.02798  0.44555  1.0000
  H   H50       1.0  0.09221  0.06224  0.43678  1.0000
  H   H51       1.0  0.11945  0.15552  0.32765  1.0000
  H   H52       1.0  0.13895  0.01907  0.43881  1.0000
  C   C33       1.0  0.04763  0.12961  0.36554  1.0000
  C   C34       1.0  0.03220  0.14349  0.36713  1.0000
  C   C35       1.0  0.02465  0.15261  0.35195  1.0000
  C   C36       1.0  0.03249  0.14769  0.33526  1.0000
  C   C37       1.0  0.04844  0.13451  0.33350  1.0000
  C   C38       1.0  0.05608  0.12560  0.34859  1.0000
  H   H53       1.0  0.09120  0.01492  0.45134  1.0000
  H   H54       1.0  0.03147  0.09525  0.37339  1.0000
  H   H55       1.0  0.05468  0.13085  0.32054  1.0000
  H   H56       1.0  0.06841  0.11547  0.34711  1.0000
  C   C39       1.0  0.30840  0.06590  0.29403  1.0000
  C   C40       1.0  0.29294  0.06289  0.30731  1.0000
  C   C41       1.0  0.28005  0.07740  0.31334  1.0000
  C   C42       1.0  0.28267  0.09508  0.30638  1.0000
  C   C43       1.0  0.29842  0.09807  0.29351  1.0000
  C   C44       1.0  0.31121  0.08354  0.28723  1.0000
  H   H57       1.0  0.29084  0.04924  0.31280  1.0000
  H   H58       1.0  0.26818  0.07481  0.32341  1.0000
  H   H59       1.0  0.30063  0.11170  0.28816  1.0000
  H   H60       1.0  0.06222  0.21218  0.27439  1.0000
  C   C45       1.0  0.17572  0.17465  0.32361  1.0000
  C   C46       1.0  0.19176  0.18108  0.31975  1.0000
  C   C47       1.0  0.19181  0.19941  0.31191  1.0000
  C   C48       1.0  0.17591  0.21128  0.30764  1.0000
  C   C49       1.0  0.16002  0.20473  0.31116  1.0000
  C   C50       1.0  0.15990  0.18654  0.31923  1.0000
  H   H61       1.0  0.20398  0.17203  0.32318  1.0000
  H   H62       1.0  0.20414  0.20442  0.30926  1.0000
  H   H63       1.0  0.08722  0.18622  0.27879  1.0000
  H   H64       1.0  0.14742  0.18174  0.32221  1.0000
  C   C51       1.0  0.17842  0.07380  0.32018  1.0000
  C   C52       1.0  0.17125  0.07432  0.30537  1.0000
  C   C53       1.0  0.15272  0.07492  0.30750  1.0000
  C   C54       1.0  0.14132  0.07441  0.32456  1.0000
  C   C55       1.0  0.14851  0.07352  0.33952  1.0000
  C   C56       1.0  0.16702  0.07354  0.33727  1.0000
  H   H65       1.0  0.17998  0.07442  0.29216  1.0000
  H   H66       1.0  0.14724  0.07555  0.29592  1.0000
  H   H67       1.0  0.13984  0.07281  0.35279  1.0000
  H   H68       1.0  0.17258  0.07279  0.34883  1.0000
  C   C57       1.0  0.22967  0.09090  0.40463  1.0000
  C   C58       1.0  0.23613  0.07921  0.41953  1.0000
  C   C59       1.0  0.24793  0.08408  0.42750  1.0000
  C   C60       1.0  0.25309  0.10078  0.42072  1.0000
  C   C61       1.0  0.24627  0.11263  0.40615  1.0000
  C   C62       1.0  0.23467  0.10767  0.39807  1.0000
  H   H69       1.0  0.23226  0.06622  0.42471  1.0000
  H   H70       1.0  0.25315  0.07486  0.43875  1.0000
  N   N3        1.0  0.25025  0.06727  0.27909  1.0000
  C   C63       1.0  0.25095  0.07745  0.26029  1.0000
  C   C64       1.0  0.26822  0.05572  0.28080  1.0000
  C   C65       1.0  0.23656  0.05586  0.28387  1.0000
  C   C66       1.0  0.24522  0.08009  0.29139  1.0000
  H   H71       1.0  0.23759  0.08633  0.25857  1.0000
  H   H72       1.0  0.25470  0.06821  0.25062  1.0000
  H   H73       1.0  0.26116  0.08621  0.25630  1.0000
  H   H74       1.0  0.26823  0.04798  0.29487  1.0000
  H   H75       1.0  0.27244  0.04577  0.27181  1.0000
  H   H76       1.0  0.27893  0.06388  0.27713  1.0000
  H   H77       1.0  0.23527  0.04841  0.29819  1.0000
  H   H78       1.0  0.24002  0.04575  0.27515  1.0000
  H   H79       1.0  0.22286  0.06414  0.28250  1.0000
  H   H80       1.0  0.24436  0.07287  0.30572  1.0000
  H   H81       1.0  0.23169  0.08897  0.29044  1.0000
  H   H82       1.0  0.25523  0.08893  0.28830  1.0000
  N   N4        1.0  0.19905  0.22346  0.24590  1.0000
  H   H83       1.0  0.05748  0.20455  0.25669  1.0000
  N   N5        1.0  0.26688  0.14867  0.45768  1.0000
  S   S27       1.0  0.17618  0.23415  0.29751  1.0000
  H   H84       1.0  0.09094  0.30054  0.33852  1.0000
  C   C67       1.0  0.04964  0.17311  0.27646  1.0000
  H   H85       1.0  0.99678  0.08531  0.34414  1.0000
  S   S28       1.0  0.14252  0.23527  0.26945  1.0000
  C   C68       1.0  0.02265  0.08633  0.37274  1.0000
  C   C69       1.0  0.19709  0.24013  0.25240  1.0000
  C   C70       1.0  0.30177  0.08458  0.35017  1.0000
  C   C71       1.0  0.21821  0.21742  0.23747  1.0000
  H   H86       1.0  0.14915  0.11089  0.32289  1.0000
  S   S29       1.0  0.10774  0.31224  0.27897  1.0000
  H   H87       1.0  0.28858  0.15883  0.46148  1.0000
  H   H88       1.0  0.24708  0.16848  0.47078  1.0000
  H   H89       1.0  0.06348  0.21696  0.31907  1.0000
  C   C72       1.0  0.11048  0.03771  0.47320  1.0000
  H   H90       1.0  0.18270  0.24534  0.25832  1.0000
  H   H91       1.0  0.19769  0.05001  0.41353  1.0000
  H   H92       1.0  0.03826  0.10224  0.33996  1.0000
  H   H93       1.0  0.02576  0.14681  0.38020  1.0000
  H   H94       1.0  0.17902  0.21340  0.26820  1.0000
  H   H95       1.0  0.29157  0.11571  0.36229  1.0000
  S   S30       1.0  0.19290  0.03083  0.47943  1.0000
  H   H96       1.0  0.13390  0.01616  0.47168  1.0000
  H   H97       1.0  0.01108  0.27706  0.29854  1.0000
  H   H98       1.0  0.03115  0.07251  0.37282  1.0000
  N   N6        1.0  0.13068  0.12835  0.33980  1.0000
  C   C73       1.0  0.27589  0.14622  0.43913  1.0000
  H   H99       1.0  0.01239  0.16289  0.35336  1.0000
  H   H100      1.0  0.05293  0.17330  0.26172  1.0000
  N   N7        1.0  0.28567  0.08985  0.36402  1.0000
  C   C74       1.0  0.04119  0.22964  0.30560  1.0000
  C   C75       1.0  0.05922  0.22637  0.30740  1.0000
  H   H101      1.0  0.13951  0.13255  0.31091  1.0000
  H   H102      1.0  0.17972  0.07832  0.43596  1.0000
  Fe  Fe11      1.0  0.31355  0.06648  0.46616  1.0000
  H   H103      1.0  0.14311  0.10422  0.35626  1.0000
  H   H104      1.0  0.05969  0.02691  0.41974  1.0000
  C   C76       1.0  0.11485  0.12111  0.34001  1.0000
  H   H105      1.0  0.29395  0.06744  0.38478  1.0000
  H   H106      1.0  0.04030  0.18897  0.30541  1.0000
  N   N8        1.0  0.05963  0.18445  0.28106  1.0000
  N   N9        1.0  0.17270  0.05453  0.43292  1.0000
  C   C77       1.0  0.18300  0.05590  0.41408  1.0000
  C   C78       1.0  0.15343  0.06303  0.43298  1.0000
  C   C79       1.0  0.18022  0.06387  0.44262  1.0000
  C   C80       1.0  0.17416  0.03531  0.44197  1.0000
  H   H107      1.0  0.17792  0.04874  0.40639  1.0000
  C   C81       1.0  0.03567  0.24126  0.29033  1.0000
  H   H108      1.0  0.18194  0.07023  0.40678  1.0000
  H   H109      1.0  0.13846  0.30721  0.29603  1.0000
  H   H110      1.0  0.14758  0.05675  0.42512  1.0000
  H   H111      1.0  0.14508  0.06154  0.44697  1.0000
  H   H112      1.0  0.17269  0.06320  0.45688  1.0000
  C   C82       1.0  0.05458  0.20335  0.27157  1.0000
  H   H113      1.0  0.08361  0.16364  0.28243  1.0000
  H   H114      1.0  0.16884  0.02778  0.43489  1.0000
  H   H115      1.0  0.16637  0.03381  0.45619  1.0000
  H   H116      1.0  0.18849  0.02854  0.44254  1.0000
  Fe  Fe12      1.0  0.99807  0.22204  0.30360  1.0000
  N   N10       1.0  0.01448  0.09307  0.35656  1.0000
  C   C83       1.0  0.06256  0.01233  0.42620  1.0000
  H   H117      1.0  0.09290  0.02505  0.41070  1.0000
  S   S31       1.0  0.09490  0.22744  0.29525  1.0000
  C   C84       1.0  0.07935  0.17786  0.27548  1.0000
  H   H118      1.0  0.19467  0.05753  0.44309  1.0000
  H   H119      1.0  0.22720  0.21473  0.24726  1.0000
  H   H120      1.0  0.14767  0.21376  0.30803  1.0000
  H   H121      1.0  0.03172  0.22291  0.31596  1.0000
  S   S32       1.0  0.01270  0.04105  0.31848  1.0000
  C   C85       1.0  0.28069  0.14800  0.46786  1.0000
  H   H122      1.0  0.15171  0.07769  0.42688  1.0000
  Fe  Fe13      1.0  0.00100  0.18229  0.31845  1.0000
  C   C86       1.0  0.14465  0.12547  0.32341  1.0000
  H   H123      1.0  0.31361  0.08957  0.35103  1.0000
  H   H124      1.0  0.00423  0.02420  0.35681  1.0000
  H   H125      1.0  0.25810  0.08614  0.37293  1.0000
  H   H126      1.0  0.06313  0.00467  0.41579  1.0000
  H   H127      1.0  0.07350  0.31030  0.36698  1.0000
  H   H128      1.0  0.02337  0.09876  0.32765  1.0000
  H   H129      1.0  0.05077  0.00975  0.43731  1.0000
  H   H130      1.0  0.05280  0.15881  0.28370  1.0000
  H   H131      1.0  0.15009  0.12436  0.35634  1.0000
  C   C87       1.0  0.04810  0.25050  0.27736  1.0000
  C   C88       1.0  0.12496  0.02640  0.46423  1.0000
  H   H132      1.0  0.24999  0.13527  0.48091  1.0000
  H   H133      1.0  0.32311  0.08600  0.27701  1.0000
  C   C89       1.0  0.25411  0.16629  0.45697  1.0000
  C   C90       1.0  0.13830  0.11894  0.35599  1.0000
  H   H134      1.0  0.22018  0.05187  0.46248  1.0000
  H   H135      1.0  0.27737  0.11575  0.34742  1.0000
  H   H136      1.0  0.12805  0.12053  0.36863  1.0000
  C   C91       1.0  0.27045  0.08265  0.36255  1.0000
  H   H137      1.0  0.07598  0.25378  0.26876  1.0000
  C   C92       1.0  0.22419  0.04276  0.47439  1.0000
  H   H138      1.0  0.05793  0.16936  0.30840  1.0000
  H   H139      1.0  0.06713  0.01625  0.45785  1.0000
  H   H140      1.0  0.00439  0.24036  0.37595  1.0000
  S   S33       1.0  0.00428  0.20460  0.32978  1.0000
  H   H141      1.0  0.28565  0.13303  0.43921  1.0000
  H   H142      1.0  0.01211  0.08563  0.38540  1.0000
  H   H143      1.0  0.19443  0.19642  0.25699  1.0000
  C   C93       1.0  0.02899  0.09352  0.34014  1.0000
  C   C94       1.0  0.24024  0.04321  0.47909  1.0000
  H   H144      1.0  0.28354  0.15703  0.43174  1.0000
  S   S34       1.0  0.99617  0.19951  0.29169  1.0000
  H   H145      1.0  0.29911  0.09024  0.33629  1.0000
  H   H146      1.0  0.01200  0.12080  0.35740  1.0000
  Fe  Fe14      1.0  0.11426  0.24643  0.28297  1.0000
  C   C95       1.0  0.28051  0.10976  0.36109  1.0000
  H   H147      1.0  0.26124  0.17764  0.45020  1.0000
  H   H148      1.0  0.29052  0.13484  0.46866  1.0000
  H   H149      1.0  0.07029  0.30651  0.33021  1.0000
  H   H150      1.0  0.27790  0.08595  0.39295  1.0000
  C   C96       1.0  0.06624  0.24727  0.27919  1.0000
  H   H151      1.0  0.24644  0.13392  0.45939  1.0000
  C   C97       1.0  0.07848  0.01831  0.44607  1.0000
  H   H152      1.0  0.03741  0.07986  0.33930  1.0000
  H   H153      1.0  0.30583  0.06965  0.35165  1.0000
  H   H154      1.0  0.99759  0.11725  0.34467  1.0000
  C   C98       1.0  0.19333  0.20920  0.26131  1.0000
  S   S35       1.0  0.01374  0.24344  0.28668  1.0000
  H   H155      1.0  0.30107  0.08781  0.38397  1.0000
  H   H156      1.0  0.24853  0.05268  0.47085  1.0000
  Fe  Fe15      1.0  0.15120  0.24924  0.28643  1.0000
  C   C99       1.0  0.28986  0.08243  0.38220  1.0000
  S   S36       1.0  0.12296  0.25886  0.30144  1.0000
  Fe  Fe16      1.0  0.14095  0.26177  0.24986  1.0000
  S   S37       1.0  0.15160  0.27522  0.26575  1.0000
  Fe  Fe17      1.0  0.12244  0.28339  0.27886  1.0000
  H   H157      1.0  0.04391  0.25962  0.26553  1.0000
  S   S38       1.0  0.11166  0.27150  0.26149  1.0000
  H   H158      1.0  0.03472  0.17787  0.28041  1.0000
  H   H159      1.0  0.00123  0.25133  0.32121  1.0000
  H   H160      1.0  0.12838  0.30555  0.24354  1.0000
  C   C100      1.0  0.07190  0.23479  0.29402  1.0000
  C   C101      1.0  0.00353  0.28588  0.30834  1.0000
  H   H161      1.0  0.08715  0.05920  0.47011  1.0000
  H   H162      1.0  0.27438  0.14956  0.48201  1.0000
  C   C102      1.0  0.08185  0.31183  0.33123  1.0000
  H   H163      1.0  0.08338  0.17841  0.26067  1.0000
  H   H164      1.0  0.09618  0.00262  0.40717  1.0000
  H   H165      1.0  0.26822  0.11421  0.37110  1.0000
  C   C103      1.0  0.00356  0.11149  0.35692  1.0000
  H   H166      1.0  0.01314  0.28627  0.31653  1.0000
  N   N11       1.0  0.07966  0.00728  0.43287  1.0000
  H   H167      1.0  0.01060  0.06691  0.35648  1.0000
  C   C104      1.0  0.09487  0.01059  0.41753  1.0000
  H   H168      1.0  0.07625  0.03298  0.43983  1.0000
  H   H169      1.0  0.26590  0.14627  0.43116  1.0000
  H   H170      1.0  0.26676  0.08834  0.34913  1.0000
  H   H171      1.0  0.05280  0.31711  0.35858  1.0000
  C   C105      1.0  0.08278  0.98795  0.44163  1.0000
  H   H172      1.0  0.08959  0.31575  0.31725  1.0000
  H   H173      1.0  0.27388  0.06769  0.36429  1.0000
  S   S39       1.0  0.26183  0.08423  0.48070  1.0000
  S   S40       1.0  0.32319  0.04732  0.28573  1.0000
  H   H174      1.0  0.32618  0.05176  0.43362  1.0000
  H   H175      1.0  0.14260  0.98946  0.57929  1.0000
  Fe  Fe18      1.0  0.31286  0.14304  0.58094  1.0000
  H   H176      1.0  0.17541  0.23780  0.72030  1.0000
  S   S41       1.0  0.28456  0.14887  0.59731  1.0000
  C   C106      1.0  0.24547  0.03144  0.49446  1.0000
  C   C107      1.0  0.14716  0.05105  0.70274  1.0000
  H   H177      1.0  0.31150  0.08179  0.57726  1.0000
  C   C108      1.0  0.31499  0.07805  0.56378  1.0000
  H   H178      1.0  0.29775  0.18631  0.58754  1.0000
  H   H179      1.0  0.32122  0.16341  0.62569  1.0000
  Fe  Fe19      1.0  0.22119  0.08189  0.61795  1.0000
  S   S42       1.0  0.20145  0.10604  0.60725  1.0000
  S   S43       1.0  0.25156  0.07940  0.61061  1.0000
  Fe  Fe20      1.0  0.19119  0.06259  0.64143  1.0000
  S   S44       1.0  0.16908  0.08530  0.63256  1.0000
  S   S45       1.0  0.18214  0.04021  0.66387  1.0000
  Fe  Fe21      1.0  0.18671  0.08579  0.60491  1.0000
  S   S46       1.0  0.17556  0.08986  0.57995  1.0000
  Fe  Fe22      1.0  0.18584  0.10313  0.63591  1.0000
  S   S47       1.0  0.17425  0.12730  0.64897  1.0000
  S   S48       1.0  0.20773  0.06164  0.61341  1.0000
  S   S49       1.0  0.20678  0.08040  0.64684  1.0000
  Fe  Fe23      1.0  0.15025  0.02057  0.54036  1.0000
  S   S50       1.0  0.17489  0.00154  0.52918  1.0000
  S   S51       1.0  0.15044  0.02375  0.56824  1.0000
  Fe  Fe24      1.0  0.13170  0.02270  0.50936  1.0000
  H   H180      1.0  0.28323  0.10230  0.56918  1.0000
  H   H181      1.0  0.24245  0.09454  0.64755  1.0000
  N   N12       1.0  0.29859  0.08002  0.55667  1.0000
  C   C109      1.0  0.17650  0.05138  0.70726  1.0000
  Fe  Fe25      1.0  0.17205  0.01934  0.50221  1.0000
  H   H182      1.0  0.19851  0.99929  0.62131  1.0000
  S   S52       1.0  0.13039  0.00566  0.53744  1.0000
  S   S53       1.0  0.14891  0.03972  0.51368  1.0000
  S   S54       1.0  0.26457  0.03290  0.50151  1.0000
  C   C110      1.0  0.31863  0.16961  0.61189  1.0000
  H   H183      1.0  0.15731  0.07227  0.73070  1.0000
  H   H184      1.0  0.29414  0.20863  0.59173  1.0000
  C   C111      1.0  0.31813  0.13961  0.51086  1.0000
  H   H185      1.0  0.31526  0.19425  0.63196  1.0000
  C   C112      1.0  0.30399  0.07583  0.53842  1.0000
  H   H186      1.0  0.31209  0.06187  0.53856  1.0000
  H   H187      1.0  0.15240  0.03786  0.69837  1.0000
  H   H188      1.0  0.17850  0.06207  0.69486  1.0000
  H   H189      1.0  0.28973  0.17881  0.63741  1.0000
  C   C113      1.0  0.10488  0.99786  0.72557  1.0000
  S   S55       1.0  0.10412  0.99221  0.69262  1.0000
  H   H190      1.0  0.23882  0.00991  0.51683  1.0000
  H   H191      1.0  0.21024  0.00947  0.50874  1.0000
  C   C114      1.0  0.17349  0.12273  0.67230  1.0000
  C   C115      1.0  0.16965  0.13702  0.68137  1.0000
  C   C116      1.0  0.17083  0.13357  0.69962  1.0000
  C   C117      1.0  0.17616  0.11583  0.70867  1.0000
  C   C118      1.0  0.17955  0.10157  0.69971  1.0000
  C   C119      1.0  0.17788  0.10498  0.68168  1.0000
  H   H192      1.0  0.16607  0.15078  0.67419  1.0000
  H   H193      1.0  0.18383  0.08789  0.70668  1.0000
  H   H194      1.0  0.18037  0.09391  0.67493  1.0000
  C   C120      1.0  0.16900  0.07130  0.57656  1.0000
  C   C121      1.0  0.17187  0.05446  0.58818  1.0000
  C   C122      1.0  0.16668  0.03980  0.58509  1.0000
  C   C123      1.0  0.15856  0.04189  0.57043  1.0000
  C   C124      1.0  0.15609  0.05859  0.55855  1.0000
  C   C125      1.0  0.16127  0.07328  0.56166  1.0000
  H   H195      1.0  0.17803  0.05276  0.59958  1.0000
  H   H196      1.0  0.16900  0.02676  0.59404  1.0000
  H   H197      1.0  0.14973  0.06031  0.54728  1.0000
  H   H198      1.0  0.15907  0.08629  0.55260  1.0000
  C   C126      1.0  0.18289  0.02017  0.65722  1.0000
  C   C127      1.0  0.19180  0.01729  0.63992  1.0000
  H   H199      1.0  0.31231  0.08530  0.52886  1.0000
  H   H200      1.0  0.31305  0.15999  0.60763  1.0000
  H   H201      1.0  0.28223  0.17589  0.61866  1.0000
  C   C128      1.0  0.17379  0.00717  0.66924  1.0000
  H   H202      1.0  0.19895  0.02716  0.63061  1.0000
  H   H203      1.0  0.29670  0.10851  0.54726  1.0000
  H   H204      1.0  0.16688  0.00927  0.68264  1.0000
  H   H205      1.0  0.22849  0.14138  0.67077  1.0000
  H   H206      1.0  0.19000  0.20569  0.72887  1.0000
  H   H207      1.0  0.16819  0.14462  0.70650  1.0000
  C   C129      1.0  0.32280  0.12747  0.49918  1.0000
  H   H208      1.0  0.18445  0.05274  0.71662  1.0000
  H   H209      1.0  0.29445  0.05320  0.56962  1.0000
  C   C130      1.0  0.18217  0.98866  0.64660  1.0000
  S   S56       1.0  0.15487  0.00315  0.49667  1.0000
  H   H210      1.0  0.15037  0.08175  0.70950  1.0000
  C   C131      1.0  0.27511  0.12971  0.60124  1.0000
  C   C132      1.0  0.25647  0.13154  0.60266  1.0000
  C   C133      1.0  0.24905  0.11619  0.60541  1.0000
  C   C134      1.0  0.26023  0.09897  0.60709  1.0000
  C   C135      1.0  0.27880  0.09718  0.60602  1.0000
  C   C136      1.0  0.28625  0.11249  0.60289  1.0000
  H   H211      1.0  0.24782  0.14484  0.60120  1.0000
  H   H212      1.0  0.23473  0.11772  0.60611  1.0000
  H   H213      1.0  0.28748  0.08390  0.60758  1.0000
  H   H214      1.0  0.30064  0.11093  0.60198  1.0000
  H   H215      1.0  0.24749  0.13876  0.65221  1.0000
  H   H216      1.0  0.25627  0.09663  0.66178  1.0000
  C   C137      1.0  0.30352  0.19521  0.59267  1.0000
  H   H217      1.0  0.18251  0.03820  0.70300  1.0000
  N   N13       1.0  0.15709  0.05268  0.71581  1.0000
  H   H218      1.0  0.05646  0.98869  0.57004  1.0000
  H   H219      1.0  0.08731  0.99003  0.55152  1.0000
  C   C138      1.0  0.30045  0.14299  0.52093  1.0000
  C   C139      1.0  0.28747  0.13428  0.51936  1.0000
  C   C140      1.0  0.29228  0.12164  0.50824  1.0000
  H   H220      1.0  0.32419  0.08689  0.55467  1.0000
  H   H221      1.0  0.13242  0.05211  0.70863  1.0000
  H   H222      1.0  0.29679  0.15239  0.52993  1.0000
  H   H223      1.0  0.13526  0.07140  0.72856  1.0000
  S   S57       1.0  0.18039  0.11094  0.73052  1.0000
  C   C141      1.0  0.23470  0.01918  0.50505  1.0000
  Fe  Fe26      1.0  0.28459  0.09073  0.48878  1.0000
  H   H224      1.0  0.24879  0.12496  0.67428  1.0000
  C   C142      1.0  0.30993  0.11829  0.49805  1.0000
  H   H225      1.0  0.15780  0.21439  0.72427  1.0000
  S   S58       1.0  0.27597  0.11009  0.50764  1.0000
  C   C143      1.0  0.21319  0.03078  0.48524  1.0000
  H   H226      1.0  0.27852  0.19807  0.62320  1.0000
  H   H227      1.0  0.27381  0.13699  0.52719  1.0000
  H   H228      1.0  0.20838  0.13627  0.65316  1.0000
  S   S59       1.0  0.29907  0.06202  0.49524  1.0000
  H   H229      1.0  0.32297  0.06396  0.56533  1.0000
  H   H230      1.0  0.10196  0.01211  0.71966  1.0000
  H   H231      1.0  0.25625  0.11125  0.64006  1.0000
  H   H232      1.0  0.27616  0.10104  0.54952  1.0000
  N   N14       1.0  0.12744  0.03335  0.63307  1.0000
  C   C144      1.0  0.11334  0.02988  0.64953  1.0000
  C   C145      1.0  0.12684  0.05298  0.62710  1.0000
  C   C146      1.0  0.12424  0.02633  0.61856  1.0000
  C   C147      1.0  0.14543  0.02417  0.63714  1.0000
  H   H233      1.0  0.09952  0.03653  0.64707  1.0000
  H   H234      1.0  0.11542  0.03485  0.66082  1.0000
  H   H235      1.0  0.11354  0.01516  0.65445  1.0000
  H   H236      1.0  0.13725  0.05600  0.61461  1.0000
  H   H237      1.0  0.11341  0.06043  0.62407  1.0000
  H   H238      1.0  0.12954  0.05867  0.63760  1.0000
  H   H239      1.0  0.13464  0.02869  0.60597  1.0000
  H   H240      1.0  0.11079  0.03298  0.61513  1.0000
  H   H241      1.0  0.12474  0.01155  0.62251  1.0000
  H   H242      1.0  0.15652  0.02661  0.62521  1.0000
  H   H243      1.0  0.14654  0.00931  0.64149  1.0000
  H   H244      1.0  0.14815  0.02903  0.64817  1.0000
  N   N15       1.0  0.21874  0.05873  0.53806  1.0000
  C   C148      1.0  0.23280  0.04300  0.54357  1.0000
  C   C149      1.0  0.22601  0.06920  0.52025  1.0000
  C   C150      1.0  0.21331  0.07035  0.55154  1.0000
  C   C151      1.0  0.20282  0.05240  0.53691  1.0000
  H   H245      1.0  0.24527  0.04719  0.54397  1.0000
  H   H246      1.0  0.23691  0.03372  0.53394  1.0000
  H   H247      1.0  0.22786  0.03505  0.55715  1.0000
  H   H248      1.0  0.21582  0.08133  0.51586  1.0000
  H   H249      1.0  0.23832  0.07379  0.52046  1.0000
  H   H250      1.0  0.22990  0.06097  0.50967  1.0000
  H   H251      1.0  0.20791  0.06288  0.56522  1.0000
  H   H252      1.0  0.20248  0.08223  0.54800  1.0000
  H   H253      1.0  0.22491  0.07558  0.55261  1.0000
  H   H254      1.0  0.19695  0.04446  0.55013  1.0000
  H   H255      1.0  0.20645  0.04362  0.52681  1.0000
  H   H256      1.0  0.19191  0.06391  0.53282  1.0000
  N   N16       1.0  0.23235  0.11761  0.66018  1.0000
  C   C152      1.0  0.22196  0.10813  0.67687  1.0000
  C   C153      1.0  0.22029  0.12664  0.64728  1.0000
  C   C154      1.0  0.24748  0.10443  0.65206  1.0000
  C   C155      1.0  0.23963  0.13130  0.66456  1.0000
  H   H257      1.0  0.21045  0.11771  0.68334  1.0000
  H   H258      1.0  0.23053  0.10120  0.68702  1.0000
  H   H259      1.0  0.21623  0.09775  0.67403  1.0000
  H   H260      1.0  0.22749  0.13432  0.63467  1.0000
  H   H261      1.0  0.21480  0.11674  0.64333  1.0000
  C   C156      1.0  0.19160  0.00147  0.63469  1.0000
  C   C157      1.0  0.17324  0.99157  0.66387  1.0000
  H   H262      1.0  0.31374  0.10854  0.48942  1.0000
  H   H263      1.0  0.31660  0.19713  0.58331  1.0000
  N   N17       1.0  0.30604  0.18734  0.61138  1.0000
  C   C158      1.0  0.28834  0.18494  0.62322  1.0000
  C   C159      1.0  0.28818  0.09877  0.55563  1.0000
  Fe  Fe27      1.0  0.15501  0.98751  0.52497  1.0000
  C   C160      1.0  0.31362  0.19953  0.61773  1.0000
  S   S60       1.0  0.10715  0.03596  0.49673  1.0000
  H   H264      1.0  0.30484  0.21327  0.61692  1.0000
  H   H265      1.0  0.16072  0.02445  0.72830  1.0000
  C   C161      1.0  0.21848  0.01898  0.50055  1.0000
  H   H266      1.0  0.29193  0.07711  0.53268  1.0000
  H   H267      1.0  0.28328  0.07008  0.58279  1.0000
  S   S61       1.0  0.31862  0.12510  0.56122  1.0000
  H   H268      1.0  0.27442  0.06910  0.56419  1.0000
  C   C162      1.0  0.28721  0.06752  0.56882  1.0000
  C   C163      1.0  0.14968  0.07029  0.72135  1.0000
  Fe  Fe28      1.0  0.27764  0.05582  0.48473  1.0000
  H   H269      1.0  0.14873  0.06177  0.69029  1.0000
  C   C164      1.0  0.15502  0.03795  0.73187  1.0000
  S   S62       1.0  0.32694  0.16438  0.56170  1.0000
  H   H270      1.0  0.02185  0.15999  0.83759  1.0000
  N   N18       1.0  0.00662  0.06280  0.88374  1.0000
  H   H271      1.0  0.12524  0.01796  0.84868  1.0000
  H   H272      1.0  0.12269  0.04028  0.83481  1.0000
  C   C165      1.0  0.23594  0.31197  0.76348  1.0000
  C   C166      1.0  0.05656  0.01491  0.76546  1.0000
  S   S63       1.0  0.17564  0.12306  0.77543  1.0000
  Fe  Fe29      1.0  0.13960  0.16393  0.75921  1.0000
  S   S64       1.0  0.14519  0.15790  0.78705  1.0000
  H   H273      1.0  0.17063  0.22488  0.77016  1.0000
  Fe  Fe30      1.0  0.17437  0.15263  0.77277  1.0000
  S   S65       1.0  0.19671  0.16421  0.77637  1.0000
  Fe  Fe31      1.0  0.14576  0.12918  0.78673  1.0000
  S   S66       1.0  0.13023  0.11069  0.80862  1.0000
  H   H274      1.0  0.28124  0.19829  0.84962  1.0000
  S   S67       1.0  0.13763  0.13567  0.76004  1.0000
  S   S68       1.0  0.09441  0.01666  0.78232  1.0000
  S   S69       1.0  0.13173  0.04404  0.77597  1.0000
  S   S70       1.0  0.04898  0.02101  0.81695  1.0000
  H   H275      1.0  0.08543  0.21465  0.75497  1.0000
  H   H276      1.0  0.09266  0.19063  0.80839  1.0000
  H   H277      1.0  0.14761  0.23084  0.76699  1.0000
  S   S71       1.0  0.01425  0.10013  0.83085  1.0000
  H   H278      1.0  0.18201  0.28505  0.89713  1.0000
  C   C167      1.0  0.01074  0.18759  0.84035  1.0000
  H   H279      1.0  0.10019  0.14063  0.82216  1.0000
  C   C168      1.0  0.08011  0.18506  0.81257  1.0000
  H   H280      1.0  0.08303  0.17223  0.78304  1.0000
  H   H281      1.0  0.12379  0.26522  0.85224  1.0000
  Fe  Fe32      1.0  0.03327  0.22258  0.83116  1.0000
  S   S72       1.0  0.05513  0.22889  0.84106  1.0000
  Fe  Fe33      1.0  0.07955  0.01289  0.81119  1.0000
  H   H282      1.0  0.14016  0.22422  0.74096  1.0000
  H   H283      1.0  0.07058  0.19356  0.80379  1.0000
  S   S73       1.0  0.08166  0.31776  0.91462  1.0000
  S   S74       1.0  0.22223  0.31502  0.93419  1.0000
  S   S75       1.0  0.25991  0.31790  0.89239  1.0000
  C   C169      1.0  0.09350  0.21519  0.76412  1.0000
  N   N19       1.0  0.05251  0.99662  0.77216  1.0000
  H   H284      1.0  0.10680  0.00203  0.75110  1.0000
  H   H285      1.0  0.24396  0.31030  0.96065  1.0000
  H   H286      1.0  0.10510  0.16887  0.78764  1.0000
  H   H287      1.0  0.24788  0.24005  0.85829  1.0000
  C   C170      1.0  0.09780  0.22894  0.78682  1.0000
  H   H288      1.0  0.03531  0.05709  0.88281  1.0000
  H   H289      1.0  0.05680  0.16708  0.80892  1.0000
  C   C171      1.0  0.16065  0.22095  0.76472  1.0000
  C   C172      1.0  0.19060  0.18178  0.78843  1.0000
  C   C173      1.0  0.20274  0.19312  0.78607  1.0000
  C   C174      1.0  0.19788  0.20766  0.79503  1.0000
  C   C175      1.0  0.18090  0.21077  0.80652  1.0000
  C   C176      1.0  0.16885  0.19937  0.80896  1.0000
  C   C177      1.0  0.17368  0.18490  0.79997  1.0000
  H   H290      1.0  0.21591  0.19067  0.77726  1.0000
  H   H291      1.0  0.20726  0.21637  0.79314  1.0000
  H   H292      1.0  0.15573  0.20167  0.81791  1.0000
  H   H293      1.0  0.16437  0.17609  0.80212  1.0000
  C   C178      1.0  0.13049  0.09198  0.79990  1.0000
  C   C179      1.0  0.11821  0.08057  0.80846  1.0000
  C   C180      1.0  0.11826  0.06590  0.80111  1.0000
  C   C181      1.0  0.13078  0.06250  0.78535  1.0000
  C   C182      1.0  0.14310  0.07383  0.77694  1.0000
  C   C183      1.0  0.14294  0.08853  0.78415  1.0000
  H   H294      1.0  0.10841  0.08331  0.82053  1.0000
  H   H295      1.0  0.10842  0.05749  0.80743  1.0000
  H   H296      1.0  0.15286  0.07129  0.76479  1.0000
  H   H297      1.0  0.15254  0.09715  0.77748  1.0000
  C   C184      1.0  0.11015  0.20317  0.76482  1.0000
  C   C185      1.0  0.12051  0.20398  0.77666  1.0000
  C   C186      1.0  0.11451  0.21703  0.78743  1.0000
  C   C187      1.0  0.15115  0.01795  0.81875  1.0000
  H   H298      1.0  0.15476  0.30042  0.93894  1.0000
  C   C188      1.0  0.00304  0.07971  0.89037  1.0000
  H   H299      1.0  0.13330  0.19476  0.77731  1.0000
  H   H300      1.0  0.12265  0.21766  0.79648  1.0000
  C   C189      1.0  0.26795  0.23982  0.82459  1.0000
  H   H301      1.0  0.19888  0.30986  0.91016  1.0000
  C   C190      1.0  0.02358  0.07842  0.82606  1.0000
  C   C191      1.0  0.01261  0.06669  0.82636  1.0000
  C   C192      1.0  0.02053  0.04908  0.82354  1.0000
  C   C193      1.0  0.03944  0.04320  0.82023  1.0000
  C   C194      1.0  0.05040  0.05502  0.81970  1.0000
  C   C195      1.0  0.04248  0.07256  0.82262  1.0000
  Fe  Fe34      1.0  0.11369  0.99239  0.82525  1.0000
  H   H302      1.0  0.09514  0.14978  0.79089  1.0000
  H   H303      1.0  0.06499  0.05067  0.81702  1.0000
  H   H304      1.0  0.05105  0.08162  0.82228  1.0000
  C   C196      1.0  0.08722  0.22791  0.77528  1.0000
  H   H305      1.0  0.18660  0.30673  0.88519  1.0000
  H   H306      1.0  0.06053  0.16006  0.83149  1.0000
  H   H307      1.0  0.10982  0.15998  0.81890  1.0000
  S   S76       1.0  0.11787  0.18742  0.75067  1.0000
  H   H308      1.0  0.01160  0.07858  0.90014  1.0000
  C   C197      1.0  0.09681  0.15518  0.82297  1.0000
  S   S77       1.0  0.09982  0.02170  0.82124  1.0000
  H   H309      1.0  0.01199  0.04003  0.82387  1.0000
  N   N20       1.0  0.08398  0.16586  0.81129  1.0000
  H   H310      1.0  0.17555  0.00929  0.83977  1.0000
  H   H311      1.0  0.07090  0.01436  0.75811  1.0000
  Fe  Fe35      1.0  0.11571  0.02315  0.79273  1.0000
  Fe  Fe36      1.0  0.10850  0.98782  0.78966  1.0000
  S   S78       1.0  0.03218  0.19338  0.83414  1.0000
  H   H312      1.0  0.99804  0.07116  0.82874  1.0000
  H   H313      1.0  0.26907  0.20424  0.83159  1.0000
  H   H314      1.0  0.09111  0.15608  0.83736  1.0000
  C   C198      1.0  0.13123  0.03029  0.84377  1.0000
  H   H315      1.0  0.28514  0.31391  0.84692  1.0000
  H   H316      1.0  0.16443  0.28109  0.92857  1.0000
  H   H317      1.0  0.99838  0.21272  0.79051  1.0000
  S   S79       1.0  0.17396  0.22898  0.81774  1.0000
  H   H318      1.0  0.29822  0.31397  0.94931  1.0000
  C   C199      1.0  0.30733  0.31491  0.97266  1.0000
  H   H319      1.0  0.07368  0.18693  0.82661  1.0000
  H   H320      1.0  0.06926  0.14467  0.81623  1.0000
  C   C200      1.0  0.03326  0.99804  0.78135  1.0000
  H   H321      1.0  0.31491  0.29310  0.84621  1.0000
  H   H322      1.0  0.15129  0.20105  0.74615  1.0000
  C   C201      1.0  0.09211  0.16409  0.79240  1.0000
  C   C202      1.0  0.00961  0.16993  0.84060  1.0000
  C   C203      1.0  0.30481  0.30620  0.96019  1.0000
  C   C204      1.0  0.06693  0.15906  0.81722  1.0000
  H   H323      1.0  0.32552  0.26342  0.97651  1.0000
  N   N21       1.0  0.15028  0.02603  0.83414  1.0000
  N   N22       1.0  0.27116  0.22675  0.84138  1.0000
  H   H324      1.0  0.25576  0.21681  0.86753  1.0000
  S   S80       1.0  0.04037  0.23822  0.80286  1.0000
  C   C205      1.0  0.27863  0.20855  0.83728  1.0000
  H   H325      1.0  0.00569  0.03483  0.89460  1.0000
  H   H326      1.0  0.02330  0.30315  0.83624  1.0000
  H   H327      1.0  0.02409  0.00590  0.77200  1.0000
  C   C206      1.0  0.15753  0.04278  0.82742  1.0000
  H   H328      1.0  0.18583  0.30695  0.93278  1.0000
  H   H329      1.0  0.15834  0.20762  0.77302  1.0000
  S   S81       1.0  0.13117  0.99455  0.79753  1.0000
  H   H330      1.0  0.24361  0.22292  0.84948  1.0000
  H   H331      1.0  0.29164  0.20820  0.82718  1.0000
  H   H332      1.0  0.13006  0.03614  0.85566  1.0000
  S   S82       1.0  0.16874  0.16028  0.74473  1.0000
  N   N23       1.0  0.17192  0.30591  0.91269  1.0000
  C   C207      1.0  0.02564  0.05904  0.87388  1.0000
  H   H333      1.0  0.15674  0.04950  0.83861  1.0000
  H   H334      1.0  0.22955  0.30870  0.75385  1.0000
  C   C208      1.0  0.00329  0.04775  0.89919  1.0000
  C   C209      1.0  0.25387  0.22660  0.85473  1.0000
  H   H335      1.0  0.25832  0.23620  0.81843  1.0000
  H   H336      1.0  0.16198  0.03901  0.74223  1.0000
  C   C210      1.0  0.15354  0.21477  0.73889  1.0000
  S   S83       1.0  0.21715  0.24485  0.82527  1.0000
  C   C211      1.0  0.17634  0.29983  0.89537  1.0000
  H   H337      1.0  0.14245  0.25286  0.80723  1.0000
  S   S84       1.0  0.99906  0.28259  0.80153  1.0000
  H   H338      1.0  0.02869  0.04674  0.86807  1.0000
  N   N24       1.0  0.16723  0.22006  0.74544  1.0000
  Fe  Fe37      1.0  0.06085  0.24605  0.81342  1.0000
  C   C212      1.0  0.32040  0.27780  0.97543  1.0000
  S   S85       1.0  0.04214  0.27101  0.82107  1.0000
  S   S86       1.0  0.20392  0.27110  0.86507  1.0000
  Fe  Fe38      1.0  0.20283  0.26918  0.83722  1.0000
  Fe  Fe39      1.0  0.02085  0.26160  0.81347  1.0000
  S   S87       1.0  0.21240  0.28950  0.81306  1.0000
  C   C213      1.0  0.16114  0.01300  0.84663  1.0000
  Fe  Fe40      1.0  0.09821  0.30907  0.88910  1.0000
  S   S88       1.0  0.10163  0.28219  0.88187  1.0000
  S   S89       1.0  0.09028  0.24500  0.80053  1.0000
  H   H339      1.0  0.01227  0.04580  0.90881  1.0000
  Fe  Fe41      1.0  0.16747  0.13114  0.74853  1.0000
  S   S90       1.0  0.26877  0.28038  0.92232  1.0000
  Fe  Fe42      1.0  0.29030  0.29236  0.92667  1.0000
  Fe  Fe43      1.0  0.27876  0.29106  0.89290  1.0000
  S   S91       1.0  0.28123  0.27873  0.86928  1.0000
  C   C214      1.0  0.04889  0.28644  0.88094  1.0000
  C   C215      1.0  0.06485  0.28996  0.88327  1.0000
  C   C216      1.0  0.08133  0.27781  0.87975  1.0000
  H   H340      1.0  0.03614  0.29574  0.88392  1.0000
  H   H341      1.0  0.06437  0.30197  0.88795  1.0000
  H   H342      1.0  0.23299  0.30235  0.77651  1.0000
  H   H343      1.0  0.15383  0.30493  0.82839  1.0000
  C   C217      1.0  0.22489  0.27482  0.86596  1.0000
  C   C218      1.0  0.22840  0.27526  0.88248  1.0000
  C   C219      1.0  0.24557  0.27703  0.88343  1.0000
  C   C220      1.0  0.25930  0.27817  0.86789  1.0000
  C   C221      1.0  0.25562  0.27830  0.85128  1.0000
  C   C222      1.0  0.23842  0.27661  0.85035  1.0000
  H   H344      1.0  0.24830  0.27698  0.89630  1.0000
  H   H345      1.0  0.26611  0.27954  0.83918  1.0000
  H   H346      1.0  0.23575  0.27618  0.83767  1.0000
  C   C223      1.0  0.18863  0.30249  0.91973  1.0000
  C   C224      1.0  0.28229  0.27993  0.77052  1.0000
  H   H347      1.0  0.09519  0.27792  0.81741  1.0000
  H   H348      1.0  0.09570  0.27979  0.83971  1.0000
  Fe  Fe44      1.0  0.22529  0.26541  0.80041  1.0000
  Fe  Fe45      1.0  0.18762  0.28923  0.80390  1.0000
  H   H349      1.0  0.12338  0.29264  0.82857  1.0000
  H   H350      1.0  0.28706  0.22235  0.86149  1.0000
  C   C225      1.0  0.26130  0.28835  0.79708  1.0000
  H   H351      1.0  0.24979  0.28639  0.80785  1.0000
  C   C226      1.0  0.12762  0.28409  0.81820  1.0000
  H   H352      1.0  0.17195  0.04006  0.82025  1.0000
  H   H353      1.0  0.07441  0.23725  0.77458  1.0000
  H   H354      1.0  0.06642  0.24691  0.86640  1.0000
  C   C227      1.0  0.10100  0.27097  0.82958  1.0000
  H   H355      1.0  0.27894  0.24556  0.85233  1.0000
  H   H356      1.0  0.00592  0.09123  0.87904  1.0000
  H   H357      1.0  0.28676  0.27158  0.76048  1.0000
  C   C228      1.0  0.26685  0.27759  0.78412  1.0000
  C   C229      1.0  0.27039  0.30204  0.79590  1.0000
  C   C230      1.0  0.01351  0.31133  0.84562  1.0000
  H   H358      1.0  0.09439  0.25252  0.87163  1.0000
  S   S92       1.0  0.25401  0.26206  0.78402  1.0000
  H   H359      1.0  0.21800  0.27381  0.89462  1.0000
  S   S93       1.0  0.01195  0.24531  0.84095  1.0000
  C   C231      1.0  0.29146  0.29368  0.76932  1.0000
  H   H360      1.0  0.19509  0.28789  0.92208  1.0000
  C   C232      1.0  0.28518  0.30506  0.78176  1.0000
  H   H361      1.0  0.12321  0.24423  0.84730  1.0000
  H   H362      1.0  0.14260  0.02712  0.80937  1.0000
  C   C233      1.0  0.12811  0.25708  0.84152  1.0000
  H   H363      1.0  0.14320  0.25355  0.83856  1.0000
  H   H364      1.0  0.02854  0.07043  0.86239  1.0000
  H   H365      1.0  0.03016  0.00498  0.79294  1.0000
  N   N25       1.0  0.12104  0.26699  0.82513  1.0000
  C   C234      1.0  0.04946  0.27105  0.87460  1.0000
  H   H366      1.0  0.12303  0.24259  0.81629  1.0000
  H   H367      1.0  0.32183  0.30555  0.85870  1.0000
  H   H368      1.0  0.28068  0.24048  0.81420  1.0000
  H   H369      1.0  0.18066  0.24230  0.73960  1.0000
  S   S94       1.0  0.20122  0.26702  0.78871  1.0000
  H   H370      1.0  0.29733  0.23251  0.83908  1.0000
  C   C235      1.0  0.12741  0.25578  0.81124  1.0000
  H   H371      1.0  0.18222  0.19280  0.75067  1.0000
  S   S95       1.0  0.17676  0.27107  0.82923  1.0000
  H   H372      1.0  0.14049  0.03835  0.73849  1.0000
  H   H373      1.0  0.12229  0.29210  0.80603  1.0000
  H   H374      1.0  0.00077  0.31388  0.81615  1.0000
  C   C236      1.0  0.28422  0.23198  0.84887  1.0000
  H   H375      1.0  0.00998  0.25404  0.78149  1.0000
  Fe  Fe46      1.0  0.19183  0.24860  0.81476  1.0000
  S   S96       1.0  0.30194  0.30038  0.89712  1.0000
  H   H376      1.0  0.26213  0.25368  0.82707  1.0000
  S   S97       1.0  0.02950  0.26702  0.87126  1.0000
  C   C237      1.0  0.08177  0.26215  0.87396  1.0000
  Fe  Fe47      1.0  0.25182  0.30824  0.92216  1.0000
  S   S98       1.0  0.27241  0.31954  0.92883  1.0000
  H   H377      1.0  0.26562  0.31066  0.80570  1.0000
  H   H378      1.0  0.12185  0.26256  0.79889  1.0000
  S   S99       1.0  0.30896  0.27658  0.94558  1.0000
  C   C238      1.0  0.06595  0.25896  0.87100  1.0000
  H   H379      1.0  0.09556  0.25838  0.83521  1.0000
  H   H380      1.0  0.99731  0.05270  0.86532  1.0000
  C   C239      1.0  0.31131  0.28762  0.96153  1.0000
  H   H381      1.0  0.30287  0.29595  0.75834  1.0000
  H   H382      1.0  0.14269  0.28158  0.81436  1.0000
  H   H383      1.0  0.16086  0.01862  0.85843  1.0000
  H   H384      1.0  0.14629  0.00500  0.82341  1.0000
  H   H385      1.0  0.16522  0.01505  0.81078  1.0000
  Fe  Fe48      1.0  0.03456  0.25330  0.84796  1.0000
  H   H386      1.0  0.14981  0.05272  0.81768  1.0000
  C   C240      1.0  0.99555  0.25911  0.78261  1.0000
  H   H387      1.0  0.05439  0.02197  0.77679  1.0000
  H   H388      1.0  0.25090  0.30907  0.75846  1.0000
  H   H389      1.0  0.06126  0.99218  0.79713  1.0000
  H   H390      1.0  0.01617  0.30512  0.85941  1.0000
  H   H391      1.0  0.00715  0.18974  0.78774  1.0000
  H   H392      1.0  0.04779  0.02345  0.75598  1.0000
  H   H393      1.0  0.30439  0.30912  0.81751  1.0000
  H   H394      1.0  0.16412  0.30253  0.88945  1.0000
  C   C241      1.0  0.18435  0.20651  0.74327  1.0000
  H   H395      1.0  0.04798  0.99524  0.74657  1.0000
  H   H396      1.0  0.99634  0.19453  0.80960  1.0000
  C   C242      1.0  0.32124  0.30476  0.84490  1.0000
  H   H397      1.0  0.99583  0.07667  0.86023  1.0000
  H   H398      1.0  0.99556  0.21403  0.84398  1.0000
  C   C243      1.0  0.99482  0.20038  0.84419  1.0000
  H   H399      1.0  0.32508  0.31732  0.80938  1.0000
  H   H400      1.0  0.19483  0.20958  0.74874  1.0000
  C   C244      1.0  0.10752  0.99216  0.74342  1.0000
  S   S100      1.0  0.17148  0.31521  0.79092  1.0000
  H   H401      1.0  0.00032  0.28558  0.83904  1.0000
  C   C245      1.0  0.15878  0.29586  0.92584  1.0000
  C   C246      1.0  0.99578  0.19875  0.79506  1.0000
  H   H402      1.0  0.15585  0.00026  0.85194  1.0000
  N   N26       1.0  0.99459  0.31208  0.84485  1.0000
  C   C247      1.0  0.15091  0.31942  0.82444  1.0000
  S   S101      1.0  0.12253  0.31927  0.88939  1.0000
  H   H403      1.0  0.14610  0.29795  0.92082  1.0000
  C   C248      1.0  0.05622  0.98751  0.75680  1.0000
  H   H404      1.0  0.15770  0.24844  0.73634  1.0000
  C   C249      1.0  0.17040  0.23795  0.73493  1.0000
  C   C250      1.0  0.99440  0.06478  0.87143  1.0000
  H   H405      1.0  0.13352  0.42130  0.03667  1.0000
  H   H406      1.0  0.10593  0.48181  0.13062  1.0000
  H   H407      1.0  0.13517  0.44202  0.16728  1.0000
  C   C251      1.0  0.13380  0.46919  0.04217  1.0000
  H   H408      1.0  0.17676  0.53786  0.17988  1.0000
  H   H409      1.0  0.23938  0.34033  0.03277  1.0000
  Fe  Fe49      1.0  0.20620  0.35145  0.11564  1.0000
  H   H410      1.0  0.14352  0.54336  0.21035  1.0000
  S   S102      1.0  0.22906  0.35274  0.09119  1.0000
  Fe  Fe50      1.0  0.18031  0.37723  0.13882  1.0000
  S   S103      1.0  0.16568  0.35574  0.15653  1.0000
  S   S104      1.0  0.17287  0.40695  0.13927  1.0000
  Fe  Fe51      1.0  0.19337  0.33800  0.15564  1.0000
  Fe  Fe52      1.0  0.16726  0.34730  0.13071  1.0000
  S   S105      1.0  0.14251  0.34078  0.12641  1.0000
  S   S106      1.0  0.20802  0.36031  0.14008  1.0000
  S   S107      1.0  0.17954  0.37020  0.11310  1.0000
  Fe  Fe53      1.0  0.14553  0.37426  0.02434  1.0000
  H   H411      1.0  0.15460  0.57722  0.21311  1.0000
  S   S108      1.0  0.12571  0.36216  0.04770  1.0000
  Fe  Fe54      1.0  0.21156  0.60626  0.21863  1.0000
  Fe  Fe55      1.0  0.16119  0.45856  0.21170  1.0000
  S   S109      1.0  0.17429  0.42944  0.21100  1.0000
  H   H412      1.0  0.20993  0.63789  0.15014  1.0000
  H   H413      1.0  0.19442  0.49443  0.22696  1.0000
  C   C252      1.0  0.13854  0.34703  0.10426  1.0000
  C   C253      1.0  0.15147  0.35330  0.08940  1.0000
  C   C254      1.0  0.14774  0.35805  0.07189  1.0000
  C   C255      1.0  0.13109  0.35654  0.06927  1.0000
  C   C256      1.0  0.11829  0.35026  0.08414  1.0000
  C   C257      1.0  0.12200  0.34551  0.10153  1.0000
  H   H414      1.0  0.16443  0.35411  0.09134  1.0000
  H   H415      1.0  0.15785  0.36251  0.06046  1.0000
  H   H416      1.0  0.10544  0.34900  0.08223  1.0000
  H   H417      1.0  0.01836  0.62737  0.06119  1.0000
  C   C258      1.0  0.17447  0.41272  0.15902  1.0000
  C   C259      1.0  0.17661  0.39962  0.17469  1.0000
  C   C260      1.0  0.17691  0.40480  0.19053  1.0000
  C   C261      1.0  0.17482  0.42309  0.19081  1.0000
  C   C262      1.0  0.17303  0.43611  0.17503  1.0000
  C   C263      1.0  0.17305  0.43089  0.15915  1.0000
  H   H418      1.0  0.17791  0.38553  0.17462  1.0000
  H   H419      1.0  0.17862  0.39463  0.20260  1.0000
  H   H420      1.0  0.17203  0.45017  0.17496  1.0000
  H   H421      1.0  0.17216  0.44091  0.14686  1.0000
  C   C264      1.0  0.26387  0.33606  0.07925  1.0000
  C   C265      1.0  0.24689  0.33379  0.08997  1.0000
  H   H422      1.0  0.26579  0.34937  0.07178  1.0000
  H   H423      1.0  0.26608  0.32454  0.11988  1.0000
  S   S110      1.0  0.15991  0.35950  0.00193  1.0000
  S   S111      1.0  0.21163  0.35527  0.99759  1.0000
  H   H424      1.0  0.20513  0.39726  0.05929  1.0000
  H   H425      1.0  0.08527  0.38668  0.98940  1.0000
  N   N27       1.0  0.12336  0.46206  0.14671  1.0000
  S   S112      1.0  0.14045  0.47288  0.19491  1.0000
  H   H426      1.0  0.10157  0.51151  0.01977  1.0000
  H   H427      1.0  0.05113  0.49400  0.03428  1.0000
  S   S113      1.0  0.17517  0.48195  0.20565  1.0000
  H   H428      1.0  0.14466  0.44262  0.13438  1.0000
  H   H429      1.0  0.13424  0.48236  0.04379  1.0000
  H   H430      1.0  0.01338  0.61606  0.01982  1.0000
  H   H431      1.0  0.16312  0.58423  0.18945  1.0000
  C   C266      1.0  0.08996  0.37455  0.02352  1.0000
  H   H432      1.0  0.00185  0.59388  0.06789  1.0000
  H   H433      1.0  0.15568  0.54449  0.22654  1.0000
  N   N28       1.0  0.09527  0.36401  0.00909  1.0000
  S   S114      1.0  0.13405  0.39931  0.00599  1.0000
  S   S115      1.0  0.10990  0.46620  0.07499  1.0000
  H   H434      1.0  0.09205  0.49368  0.05029  1.0000
  H   H435      1.0  0.09911  0.48138  0.15435  1.0000
  C   C267      1.0  0.07796  0.49749  0.04803  1.0000
  S   S116      1.0  0.12827  0.64689  0.09060  1.0000
  H   H436      1.0  0.05137  0.51744  0.03103  1.0000
  H   H437      1.0  0.12335  0.35808  0.01022  1.0000
  H   H438      1.0  0.22950  0.64775  0.14486  1.0000
  H   H439      1.0  0.02238  0.57931  0.05945  1.0000
  H   H440      1.0  0.09383  0.33846  0.21995  1.0000
  H   H441      1.0  0.16482  0.52821  0.21238  1.0000
  H   H442      1.0  0.99702  0.60542  0.03698  1.0000
  H   H443      1.0  0.11984  0.34067  0.19347  1.0000
  N   N29       1.0  0.16687  0.55547  0.19894  1.0000
  H   H444      1.0  0.11443  0.43303  0.06358  1.0000
  C   C268      1.0  0.12174  0.45020  0.16485  1.0000
  H   H445      1.0  0.17511  0.41811  0.03834  1.0000
  H   H446      1.0  0.08473  0.34597  0.99983  1.0000
  H   H447      1.0  0.16624  0.43530  0.05152  1.0000
  C   C269      1.0  0.12301  0.45852  0.05547  1.0000
  S   S117      1.0  0.16962  0.38434  0.02537  1.0000
  C   C270      1.0  0.13103  0.45095  0.13277  1.0000
  H   H448      1.0  0.04302  0.61584  0.02689  1.0000
  C   C271      1.0  0.11244  0.35099  0.01106  1.0000
  H   H449      1.0  0.13668  0.48389  0.13172  1.0000
  C   C272      1.0  0.12280  0.44132  0.05334  1.0000
  H   H450      1.0  0.11277  0.44063  0.16655  1.0000
  H   H451      1.0  0.09571  0.46382  0.14533  1.0000
  H   H452      1.0  0.17879  0.40667  0.09387  1.0000
  C   C273      1.0  0.13541  0.47447  0.14510  1.0000
  H   H453      1.0  0.14925  0.46704  0.14677  1.0000
  C   C274      1.0  0.10524  0.47268  0.14416  1.0000
  H   H454      1.0  0.15846  0.39267  0.08407  1.0000
  H   H455      1.0  0.14257  0.57580  0.19687  1.0000
  C   C275      1.0  0.17713  0.42318  0.04960  1.0000
  H   H456      1.0  0.11600  0.45820  0.17568  1.0000
  H   H457      1.0  0.13251  0.45951  0.11892  1.0000
  C   C276      1.0  0.10394  0.33278  0.22877  1.0000
  C   C277      1.0  0.01218  0.62520  0.05077  1.0000
  H   H458      1.0  0.14769  0.41495  0.07434  1.0000
  H   H459      1.0  0.16835  0.42868  0.08344  1.0000
  C   C278      1.0  0.05940  0.63834  0.11104  1.0000
  C   C279      1.0  0.17922  0.41669  0.08090  1.0000
  H   H460      1.0  0.19028  0.42772  0.04504  1.0000
  Fe  Fe56      1.0  0.15926  0.40836  0.00523  1.0000
  C   C280      1.0  0.14451  0.44528  0.02491  1.0000
  Fe  Fe57      1.0  0.18320  0.37179  0.00122  1.0000
  C   C281      1.0  0.14450  0.46258  0.02692  1.0000
  C   C282      1.0  0.15915  0.40346  0.07164  1.0000
  H   H461      1.0  0.15310  0.47075  0.01682  1.0000
  N   N30       1.0  0.17679  0.40917  0.06635  1.0000
  H   H462      1.0  0.19180  0.38252  0.07540  1.0000
  C   C283      1.0  0.19162  0.39348  0.06316  1.0000
  H   H463      1.0  0.19021  0.38761  0.05217  1.0000
  H   H464      1.0  0.19248  0.42095  0.07747  1.0000
  S   S118      1.0  0.15931  0.43678  0.00653  1.0000
  H   H465      1.0  0.15666  0.39807  0.06083  1.0000
  C   C284      1.0  0.13354  0.43468  0.03810  1.0000
  H   H466      1.0  0.13016  0.48277  0.15563  1.0000
  H   H467      1.0  0.24180  0.64423  0.22798  1.0000
  H   H468      1.0  0.22123  0.50866  0.21794  1.0000
  H   H469      1.0  0.12223  0.44149  0.13352  1.0000
  H   H470      1.0  0.19260  0.56343  0.19277  1.0000
  H   H471      1.0  0.05800  0.50674  0.01196  1.0000
  H   H472      1.0  0.01627  0.55996  0.02392  1.0000
  H   H473      1.0  0.13234  0.34638  0.20688  1.0000
  H   H474      1.0  0.17306  0.58078  0.09193  1.0000
  C   C285      1.0  0.05875  0.50470  0.02638  1.0000
  H   H475      1.0  0.08040  0.47153  0.03040  1.0000
  C   C286      1.0  0.08723  0.51461  0.01816  1.0000
  H   H476      1.0  0.08737  0.51687  0.00351  1.0000
  H   H477      1.0  0.08674  0.63196  0.06336  1.0000
  S   S119      1.0  0.23821  0.58738  0.21236  1.0000
  H   H478      1.0  0.23484  0.33857  0.16114  1.0000
  H   H479      1.0  0.18303  0.58548  0.10798  1.0000
  C   C287      1.0  0.16324  0.55968  0.12391  1.0000
  H   H480      1.0  0.08854  0.36559  0.03718  1.0000
  S   S120      1.0  0.10178  0.54439  0.08218  1.0000
  Fe  Fe58      1.0  0.09695  0.51967  0.10313  1.0000
  S   S121      1.0  0.08818  0.52058  0.13254  1.0000
  S   S122      1.0  0.12333  0.50194  0.09349  1.0000
  Fe  Fe59      1.0  0.11847  0.62946  0.11703  1.0000
  H   H481      1.0  0.06786  0.36354  0.00899  1.0000
  S   S123      1.0  0.08916  0.62795  0.12629  1.0000
  Fe  Fe60      1.0  0.15603  0.61573  0.12577  1.0000
  S   S124      1.0  0.16903  0.63204  0.10000  1.0000
  S   S125      1.0  0.17379  0.59563  0.14357  1.0000
  C   C288      1.0  0.08707  0.48295  0.02252  1.0000
  Fe  Fe61      1.0  0.15098  0.62296  0.08737  1.0000
  S   S126      1.0  0.16200  0.61277  0.06163  1.0000
  S   S127      1.0  0.13337  0.63865  0.13287  1.0000
  S   S128      1.0  0.13981  0.60491  0.11263  1.0000
  S   S129      1.0  0.08130  0.51070  0.08787  1.0000
  H   H482      1.0  0.04755  0.53044  0.07487  1.0000
  C   C289      1.0  0.01180  0.60512  0.03206  1.0000
  H   H483      1.0  0.15227  0.56361  0.11607  1.0000
  H   H484      1.0  0.15557  0.55298  0.17752  1.0000
  S   S130      1.0  0.15666  0.51555  0.16385  1.0000
  S   S131      1.0  0.19818  0.62753  0.19791  1.0000
  C   C290      1.0  0.15728  0.54234  0.21265  1.0000
  H   H485      1.0  0.25723  0.33581  0.16494  1.0000
  C   C291      1.0  0.18494  0.55373  0.20271  1.0000
  H   H486      1.0  0.04652  0.59202  0.03638  1.0000
  C   C292      1.0  0.04090  0.53672  0.06364  1.0000
  H   H487      1.0  0.10145  0.47903  0.02415  1.0000
  H   H488      1.0  0.10041  0.38232  0.02264  1.0000
  S   S132      1.0  0.09372  0.48296  0.22622  1.0000
  H   H489      1.0  0.08717  0.48421  0.00801  1.0000
  H   H490      1.0  0.01720  0.52511  0.07596  1.0000
  C   C293      1.0  0.02367  0.53379  0.06428  1.0000
  H   H491      1.0  0.05171  0.64003  0.12436  1.0000
  S   S133      1.0  0.07048  0.55254  0.04746  1.0000
  H   H492      1.0  0.15076  0.40183  0.22809  1.0000
  H   H493      1.0  0.22124  0.64377  0.12705  1.0000
  C   C294      1.0  0.07826  0.63279  0.10812  1.0000
  H   H494      1.0  0.26881  0.33975  0.13215  1.0000
  S   S134      1.0  0.22827  0.53890  0.22707  1.0000
  H   H495      1.0  0.17620  0.56143  0.17015  1.0000
  C   C295      1.0  0.07910  0.63385  0.07663  1.0000
  C   C296      1.0  0.08812  0.63049  0.09090  1.0000
  S   S135      1.0  0.19386  0.32764  0.13123  1.0000
  H   H496      1.0  0.17005  0.64159  0.17755  1.0000
  H   H497      1.0  0.24704  0.34119  0.12748  1.0000
  H   H498      1.0  0.10266  0.62571  0.08865  1.0000
  C   C297      1.0  0.15527  0.55619  0.06244  1.0000
  C   C298      1.0  0.14227  0.56671  0.07372  1.0000
  C   C299      1.0  0.14404  0.58424  0.07352  1.0000
  C   C300      1.0  0.15869  0.59129  0.06188  1.0000
  C   C301      1.0  0.17152  0.58077  0.05062  1.0000
  C   C302      1.0  0.16995  0.56323  0.05108  1.0000
  H   H499      1.0  0.13399  0.59238  0.08213  1.0000
  H   H500      1.0  0.18287  0.58612  0.04165  1.0000
  H   H501      1.0  0.18009  0.55513  0.04244  1.0000
  C   C303      1.0  0.10694  0.52019  0.14118  1.0000
  C   C304      1.0  0.27561  0.33054  0.03022  1.0000
  C   C305      1.0  0.12083  0.51574  0.16682  1.0000
  C   C306      1.0  0.13732  0.51820  0.15513  1.0000
  C   C307      1.0  0.13848  0.52202  0.13645  1.0000
  C   C308      1.0  0.12329  0.52310  0.12948  1.0000
  C   C309      1.0  0.17717  0.62860  0.17441  1.0000
  H   H502      1.0  0.15124  0.52356  0.12731  1.0000
  H   H503      1.0  0.12431  0.52616  0.11504  1.0000
  C   C310      1.0  0.20963  0.51354  0.22777  1.0000
  H   H504      1.0  0.09298  0.51468  0.16896  1.0000
  S   S136      1.0  0.13405  0.50677  0.21492  1.0000
  C   C311      1.0  0.03992  0.60562  0.03944  1.0000
  Fe  Fe62      1.0  0.10837  0.49510  0.07610  1.0000
  Fe  Fe63      1.0  0.08864  0.53384  0.06572  1.0000
  N   N31       1.0  0.07774  0.49993  0.02875  1.0000
  C   C312      1.0  0.17195  0.62185  0.16196  1.0000
  C   C313      1.0  0.18088  0.60494  0.15811  1.0000
  C   C314      1.0  0.19514  0.59487  0.16660  1.0000
  C   C315      1.0  0.20024  0.60153  0.17920  1.0000
  H   H505      1.0  0.07082  0.48663  0.05657  1.0000
  H   H506      1.0  0.16081  0.62961  0.15561  1.0000
  H   H507      1.0  0.20229  0.58191  0.16341  1.0000
  C   C316      1.0  0.21701  0.64815  0.14024  1.0000
  C   C317      1.0  0.10563  0.51682  0.15984  1.0000
  H   H508      1.0  0.16141  0.54692  0.13376  1.0000
  N   N32       1.0  0.18136  0.55764  0.11190  1.0000
  C   C318      1.0  0.12910  0.33492  0.20318  1.0000
  H   H509      1.0  0.18389  0.55640  0.21628  1.0000
  Fe  Fe64      1.0  0.12371  0.48135  0.22031  1.0000
  C   C319      1.0  0.19540  0.55120  0.12297  1.0000
  H   H510      1.0  0.19392  0.53796  0.13216  1.0000
  H   H511      1.0  0.08058  0.52761  0.02258  1.0000
  H   H512      1.0  0.09417  0.59514  0.11124  1.0000
  C   C320      1.0  0.08100  0.35412  0.01052  1.0000
  H   H513      1.0  0.05302  0.60052  0.12630  1.0000
  C   C321      1.0  0.27856  0.32130  0.07856  1.0000
  H   H514      1.0  0.23998  0.32655  0.98527  1.0000
  H   H515      1.0  0.07672  0.59639  0.09946  1.0000
  H   H516      1.0  0.11706  0.34287  0.00032  1.0000
  H   H517      1.0  0.13109  0.56123  0.08278  1.0000
  Fe  Fe65      1.0  0.12722  0.52614  0.07137  1.0000
  H   H518      1.0  0.18134  0.53094  0.10922  1.0000
  H   H519      1.0  0.16118  0.57018  0.13190  1.0000
  H   H520      1.0  0.21130  0.59372  0.18569  1.0000
  C   C322      1.0  0.08583  0.58707  0.10826  1.0000
  H   H521      1.0  0.06958  0.59986  0.13875  1.0000
  C   C323      1.0  0.06245  0.59128  0.13481  1.0000
  H   H522      1.0  0.11200  0.34062  0.11292  1.0000
  S   S137      1.0  0.15448  0.53378  0.06305  1.0000
  H   H523      1.0  0.11977  0.51282  0.18127  1.0000
  H   H524      1.0  0.07472  0.55620  0.11312  1.0000
  H   H525      1.0  0.09530  0.57730  0.10027  1.0000
  C   C324      1.0  0.01665  0.59304  0.06245  1.0000
  C   C325      1.0  0.04921  0.54803  0.04864  1.0000
  N   N33       1.0  0.07542  0.57779  0.12508  1.0000
  H   H526      1.0  0.07135  0.51012  0.05311  1.0000
  S   S138      1.0  0.11474  0.51767  0.05278  1.0000
  C   C326      1.0  0.01459  0.54232  0.05006  1.0000
  C   C327      1.0  0.04029  0.55630  0.03429  1.0000
  N   N34       1.0  0.02014  0.60724  0.04617  1.0000
  Fe  Fe66      1.0  0.15272  0.49691  0.19099  1.0000
  H   H527      1.0  0.05417  0.58469  0.14740  1.0000
  C   C328      1.0  0.02301  0.55352  0.03503  1.0000
  C   C329      1.0  0.24742  0.32848  0.16337  1.0000
  C   C330      1.0  0.06537  0.56641  0.12061  1.0000
  H   H528      1.0  0.04674  0.56492  0.02255  1.0000
  H   H529      1.0  0.05773  0.55880  0.13300  1.0000
  H   H530      1.0  0.09517  0.57469  0.14102  1.0000
  C   C331      1.0  0.08810  0.56639  0.13661  1.0000
  H   H531      1.0  0.05557  0.57464  0.11204  1.0000
  H   H532      1.0  0.08099  0.55816  0.14891  1.0000
  H   H533      1.0  0.02284  0.59416  0.07334  1.0000
  H   H534      1.0  0.09869  0.55687  0.12919  1.0000
  C   C332      1.0  0.15630  0.57397  0.19965  1.0000
  H   H535      1.0  0.19447  0.56096  0.13152  1.0000
  H   H536      1.0  0.20927  0.54950  0.11436  1.0000
  C   C333      1.0  0.16896  0.55179  0.18082  1.0000
  H   H537      1.0  0.19641  0.54268  0.09130  1.0000
  H   H538      1.0  0.19332  0.53996  0.20223  1.0000
  C   C334      1.0  0.18300  0.54443  0.10072  1.0000
  H   H539      1.0  0.23732  0.32297  0.02269  1.0000
  C   C335      1.0  0.06031  0.64018  0.07941  1.0000
  H   H540      1.0  0.17249  0.54885  0.09230  1.0000
  H   H541      1.0  0.19704  0.57418  0.09038  1.0000
  C   C336      1.0  0.19131  0.61846  0.18305  1.0000
  C   C337      1.0  0.18376  0.57526  0.10005  1.0000
  H   H542      1.0  0.25043  0.33945  0.00979  1.0000
  Fe  Fe67      1.0  0.15060  0.38545  0.98349  1.0000
  H   H543      1.0  0.01440  0.63625  0.03875  1.0000
  H   H544      1.0  0.28037  0.33849  0.01657  1.0000
  H   H545      1.0  0.11116  0.34152  0.02442  1.0000
  H   H546      1.0  0.01797  0.59207  0.02768  1.0000
  H   H547      1.0  0.07877  0.34469  0.02383  1.0000
  C   C338      1.0  0.24692  0.33099  0.02348  1.0000
  Fe  Fe68      1.0  0.15538  0.49000  0.23020  1.0000
  C   C339      1.0  0.05046  0.64220  0.09668  1.0000
  S   S139      1.0  0.04940  0.64730  0.06105  1.0000
  H   H548      1.0  0.04655  0.60771  0.04957  1.0000
  C   C340      1.0  0.09780  0.37637  0.99127  1.0000
  H   H549      1.0  0.07691  0.38435  0.02273  1.0000
  H   H550      1.0  0.29169  0.32335  0.07070  1.0000
  H   H551      1.0  0.26891  0.34017  0.03939  1.0000
  N   N35       1.0  0.12094  0.32274  0.21929  1.0000
  H   H552      1.0  0.03592  0.64687  0.09903  1.0000
  H   H553      1.0  0.14197  0.32764  0.19578  1.0000
  H   H554      1.0  0.10883  0.38371  0.98954  1.0000
  C   C341      1.0  0.25939  0.33160  0.13127  1.0000
  H   H555      1.0  0.99729  0.62685  0.05606  1.0000
  H   H556      1.0  0.28796  0.32211  0.03510  1.0000
  C   C342      1.0  0.19441  0.50556  0.23277  1.0000
  H   H557      1.0  0.03826  0.47805  0.33365  1.0000
  H   H558      1.0  0.08701  0.34544  0.34859  1.0000
  S   S140      1.0  0.15013  0.46351  0.37682  1.0000
  H   H559      1.0  0.00250  0.34650  0.38571  1.0000
  H   H560      1.0  0.11313  0.49601  0.44772  1.0000
  Fe  Fe69      1.0  0.10936  0.38619  0.32019  1.0000
  S   S141      1.0  0.10148  0.39108  0.34860  1.0000
  S   S142      1.0  0.13396  0.36643  0.30946  1.0000
  Fe  Fe70      1.0  0.07586  0.41124  0.30926  1.0000
  S   S143      1.0  0.06445  0.41768  0.33671  1.0000
  S   S144      1.0  0.06038  0.42333  0.28706  1.0000
  Fe  Fe71      1.0  0.09276  0.42032  0.33576  1.0000
  S   S145      1.0  0.09332  0.44746  0.34066  1.0000
  Fe  Fe72      1.0  0.07386  0.38825  0.34722  1.0000
  S   S146      1.0  0.05816  0.37017  0.36946  1.0000
  S   S147      1.0  0.10351  0.41563  0.30753  1.0000
  S   S148      1.0  0.08234  0.38154  0.31983  1.0000
  H   H561      1.0  0.10669  0.47816  0.41059  1.0000
  H   H562      1.0  0.04500  0.45226  0.26141  1.0000
  H   H563      1.0  0.25667  0.56651  0.37896  1.0000
  H   H564      1.0  0.09863  0.49616  0.42309  1.0000
  C   C343      1.0  0.13726  0.33345  0.30116  1.0000
  H   H565      1.0  0.03196  0.34899  0.39041  1.0000
  H   H566      1.0  0.06201  0.47822  0.32991  1.0000
  N   N36       1.0  0.14999  0.39807  0.25646  1.0000
  H   H567      1.0  0.24500  0.62411  0.25709  1.0000
  C   C344      1.0  0.12481  0.48577  0.44247  1.0000
  C   C345      1.0  0.12790  0.35147  0.29971  1.0000
  N   N37       1.0  0.07552  0.32729  0.34045  1.0000
  C   C346      1.0  0.15277  0.37820  0.25954  1.0000
  C   C347      1.0  0.10758  0.34523  0.28430  1.0000
  C   C348      1.0  0.11335  0.35740  0.29086  1.0000
  H   H568      1.0  0.17723  0.39882  0.24161  1.0000
  H   H569      1.0  0.09602  0.34988  0.27784  1.0000
  H   H570      1.0  0.10652  0.37141  0.28900  1.0000
  C   C349      1.0  0.08917  0.43776  0.26503  1.0000
  C   C350      1.0  0.07048  0.43837  0.26886  1.0000
  C   C351      1.0  0.05940  0.45190  0.25872  1.0000
  H   H571      1.0  0.09785  0.42699  0.27234  1.0000
  H   H572      1.0  0.16539  0.46953  0.31391  1.0000
  C   C352      1.0  0.13392  0.45864  0.36757  1.0000
  C   C353      1.0  0.10646  0.46801  0.35549  1.0000
  C   C354      1.0  0.10885  0.45092  0.35167  1.0000
  C   C355      1.0  0.12367  0.43749  0.35612  1.0000
  C   C356      1.0  0.13614  0.44135  0.36413  1.0000
  C   C357      1.0  0.03686  0.36930  0.36628  1.0000
  N   N38       1.0  0.05395  0.47244  0.30800  1.0000
  H   H573      1.0  0.12559  0.42423  0.35328  1.0000
  H   H574      1.0  0.14766  0.43098  0.36744  1.0000
  C   C358      1.0  0.03012  0.37995  0.35120  1.0000
  H   H575      1.0  0.22692  0.63813  0.26950  1.0000
  H   H576      1.0  0.03777  0.38929  0.34153  1.0000
  H   H577      1.0  0.26586  0.55609  0.35971  1.0000
  S   S149      1.0  0.30184  0.65005  0.35830  1.0000
  H   H578      1.0  0.09765  0.32387  0.24109  1.0000
  C   C359      1.0  0.28474  0.58256  0.37482  1.0000
  H   H579      1.0  0.12042  0.49404  0.40851  1.0000
  C   C360      1.0  0.13510  0.46147  0.42602  1.0000
  Fe  Fe73      1.0  0.15037  0.49280  0.37490  1.0000
  C   C361      1.0  0.06676  0.46538  0.24550  1.0000
  H   H580      1.0  0.18826  0.54819  0.47130  1.0000
  H   H581      1.0  0.13135  0.45295  0.41868  1.0000
  H   H582      1.0  0.28549  0.54318  0.47149  1.0000
  C   C362      1.0  0.01340  0.37853  0.34858  1.0000
  C   C363      1.0  0.14188  0.40640  0.24038  1.0000
  H   H583      1.0  0.11684  0.48509  0.36614  1.0000
  H   H584      1.0  0.30105  0.61193  0.24156  1.0000
  H   H585      1.0  0.05889  0.35390  0.33664  1.0000
  H   H586      1.0  0.15844  0.37155  0.27189  1.0000
  C   C364      1.0  0.11894  0.47187  0.36334  1.0000
  H   H587      1.0  0.06059  0.33289  0.36629  1.0000
  C   C365      1.0  0.02684  0.35722  0.37868  1.0000
  S   S150      1.0  0.19724  0.58495  0.23731  1.0000
  H   H588      1.0  0.12453  0.40001  0.27535  1.0000
  H   H589      1.0  0.15070  0.48043  0.28725  1.0000
  H   H590      1.0  0.30517  0.55761  0.35557  1.0000
  S   S151      1.0  0.14339  0.46519  0.23772  1.0000
  C   C366      1.0  0.01017  0.35573  0.37601  1.0000
  H   H591      1.0  0.11165  0.45555  0.45771  1.0000
  C   C367      1.0  0.09660  0.45116  0.25161  1.0000
  N   N39       1.0  0.11913  0.47447  0.43324  1.0000
  H   H592      1.0  0.00820  0.38685  0.33693  1.0000
  H   H593      1.0  0.17408  0.39725  0.26551  1.0000
  H   H594      1.0  0.31685  0.59433  0.40290  1.0000
  C   C368      1.0  0.04076  0.46312  0.30550  1.0000
  C   C369      1.0  0.11077  0.48616  0.41822  1.0000
  H   H595      1.0  0.05478  0.45729  0.33498  1.0000
  H   H596      1.0  0.09491  0.47838  0.35229  1.0000
  H   H597      1.0  0.11096  0.45077  0.24881  1.0000
  H   H598      1.0  0.04313  0.44862  0.31232  1.0000
  H   H599      1.0  0.08294  0.46938  0.30324  1.0000
  C   C370      1.0  0.15289  0.47689  0.32167  1.0000
  C   C371      1.0  0.07254  0.46358  0.30048  1.0000
  C   C372      1.0  0.13767  0.40442  0.27238  1.0000
  H   H600      1.0  0.14545  0.46849  0.41616  1.0000
  H   H601      1.0  0.14178  0.45234  0.43693  1.0000
  H   H602      1.0  0.07477  0.46499  0.28561  1.0000
  H   H603      1.0  0.13490  0.49345  0.43310  1.0000
  C   C373      1.0  0.10579  0.46454  0.44619  1.0000
  C   C374      1.0  0.05210  0.47153  0.32747  1.0000
  C   C375      1.0  0.16760  0.40329  0.25362  1.0000
  H   H604      1.0  0.13474  0.41941  0.27030  1.0000
  H   H605      1.0  0.07523  0.44891  0.30649  1.0000
  H   H606      1.0  0.03654  0.49867  0.30379  1.0000
  H   H607      1.0  0.15671  0.48032  0.33298  1.0000
  H   H608      1.0  0.16229  0.37289  0.24793  1.0000
  H   H609      1.0  0.12885  0.47890  0.30156  1.0000
  H   H610      1.0  0.10118  0.45595  0.43961  1.0000
  H   H611      1.0  0.14352  0.46734  0.32779  1.0000
  Fe  Fe74      1.0  0.24467  0.59368  0.23623  1.0000
  H   H612      1.0  0.07107  0.34658  0.31611  1.0000
  H   H613      1.0  0.09357  0.47398  0.45187  1.0000
  H   H614      1.0  0.02657  0.46935  0.31106  1.0000
  H   H615      1.0  0.04181  0.46348  0.29097  1.0000
  H   H616      1.0  0.09933  0.33844  0.32794  1.0000
  C   C376      1.0  0.15745  0.50522  0.30161  1.0000
  N   N40       1.0  0.14437  0.49321  0.31000  1.0000
  C   C377      1.0  0.29313  0.60668  0.25450  1.0000
  Fe  Fe75      1.0  0.20728  0.59133  0.25895  1.0000
  H   H617      1.0  0.24419  0.53642  0.29631  1.0000
  S   S152      1.0  0.19226  0.59481  0.28681  1.0000
  Fe  Fe76      1.0  0.13399  0.52456  0.39324  1.0000
  S   S153      1.0  0.11305  0.53194  0.41744  1.0000
  Fe  Fe77      1.0  0.14360  0.53053  0.35220  1.0000
  S   S154      1.0  0.13775  0.54283  0.32459  1.0000
  S   S155      1.0  0.12535  0.51430  0.37313  1.0000
  S   S156      1.0  0.14958  0.54340  0.37201  1.0000
  Fe  Fe78      1.0  0.24135  0.59071  0.42008  1.0000
  S   S157      1.0  0.25761  0.56297  0.41803  1.0000
  S   S158      1.0  0.23677  0.60984  0.39404  1.0000
  Fe  Fe79      1.0  0.23270  0.58135  0.46121  1.0000
  S   S159      1.0  0.24891  0.55311  0.46233  1.0000
  Fe  Fe80      1.0  0.26944  0.56593  0.44020  1.0000
  S   S160      1.0  0.29998  0.56127  0.43520  1.0000
  Fe  Fe81      1.0  0.23551  0.55318  0.44012  1.0000
  S   S161      1.0  0.21986  0.53185  0.44265  1.0000
  S   S162      1.0  0.25423  0.59436  0.44110  1.0000
  S   S163      1.0  0.21824  0.58072  0.44024  1.0000
  Fe  Fe82      1.0  0.17316  0.52000  0.37367  1.0000
  C   C378      1.0  0.20561  0.52823  0.39068  1.0000
  C   C379      1.0  0.19595  0.52099  0.40753  1.0000
  C   C380      1.0  0.20058  0.52195  0.42341  1.0000
  C   C381      1.0  0.21460  0.53055  0.42252  1.0000
  C   C382      1.0  0.22395  0.53824  0.40568  1.0000
  C   C383      1.0  0.21963  0.53686  0.38978  1.0000
  H   H618      1.0  0.18517  0.51428  0.40836  1.0000
  H   H619      1.0  0.19332  0.51599  0.43641  1.0000
  H   H620      1.0  0.23474  0.54490  0.40491  1.0000
  H   H621      1.0  0.22711  0.54253  0.37677  1.0000
  C   C384      1.0  0.17546  0.58197  0.29646  1.0000
  C   C385      1.0  0.17078  0.57196  0.28650  1.0000
  C   C386      1.0  0.15860  0.56041  0.29502  1.0000
  C   C387      1.0  0.15140  0.55863  0.31356  1.0000
  C   C388      1.0  0.15584  0.56887  0.32342  1.0000
  C   C389      1.0  0.16766  0.58070  0.31483  1.0000
  H   H622      1.0  0.17670  0.57291  0.27232  1.0000
  H   H623      1.0  0.15512  0.55257  0.28733  1.0000
  H   H624      1.0  0.14998  0.56787  0.33763  1.0000
  H   H625      1.0  0.17112  0.58855  0.32254  1.0000
  C   C390      1.0  0.28303  0.64003  0.36836  1.0000
  C   C391      1.0  0.27159  0.63856  0.35788  1.0000
  C   C392      1.0  0.25672  0.63023  0.36604  1.0000
  C   C393      1.0  0.25383  0.62251  0.38452  1.0000
  C   C394      1.0  0.26538  0.62390  0.39491  1.0000
  C   C395      1.0  0.27978  0.63290  0.38692  1.0000
  H   H626      1.0  0.24771  0.62945  0.35794  1.0000
  H   H627      1.0  0.26314  0.61828  0.40916  1.0000
  H   H628      1.0  0.19536  0.59108  0.40363  1.0000
  S   S164      1.0  0.29336  0.60060  0.30762  1.0000
  H   H629      1.0  0.16803  0.53108  0.26280  1.0000
  C   C396      1.0  0.23578  0.54558  0.30549  1.0000
  C   C397      1.0  0.26812  0.59122  0.35081  1.0000
  C   C398      1.0  0.12174  0.53754  0.43346  1.0000
  C   C399      1.0  0.14029  0.53273  0.43333  1.0000
  H   H630      1.0  0.19481  0.56458  0.42854  1.0000
  H   H631      1.0  0.16601  0.41822  0.25119  1.0000
  H   H632      1.0  0.06026  0.49889  0.30000  1.0000
  H   H633      1.0  0.14943  0.52550  0.42339  1.0000
  H   H634      1.0  0.25516  0.59626  0.35972  1.0000
  C   C400      1.0  0.17939  0.51184  0.24540  1.0000
  H   H635      1.0  0.28855  0.63408  0.39507  1.0000
  H   H636      1.0  0.19338  0.55051  0.33171  1.0000
  C   C401      1.0  0.14709  0.53720  0.44618  1.0000
  S   S165      1.0  0.16821  0.50833  0.35240  1.0000
  H   H637      1.0  0.14490  0.57604  0.43167  1.0000
  C   C402      1.0  0.26796  0.59279  0.27194  1.0000
  H   H638      1.0  0.26475  0.58715  0.33963  1.0000
  H   H639      1.0  0.17398  0.55802  0.44042  1.0000
  H   H640      1.0  0.19479  0.54550  0.25358  1.0000
  H   H641      1.0  0.25629  0.58741  0.27259  1.0000
  Fe  Fe83      1.0  0.31509  0.64123  0.33219  1.0000
  H   H642      1.0  0.17459  0.60412  0.39715  1.0000
  C   C403      1.0  0.27805  0.59966  0.25516  1.0000
  C   C404      1.0  0.31004  0.54989  0.45385  1.0000
  H   H643      1.0  0.05174  0.49259  0.28374  1.0000
  C   C405      1.0  0.17342  0.56884  0.40518  1.0000
  H   H644      1.0  0.09562  0.55044  0.44675  1.0000
  S   S166      1.0  0.32118  0.61137  0.33476  1.0000
  H   H645      1.0  0.17875  0.57806  0.44344  1.0000
  H   H646      1.0  0.27257  0.58741  0.38472  1.0000
  N   N41       1.0  0.17155  0.58047  0.41804  1.0000
  H   H647      1.0  0.13994  0.42140  0.23749  1.0000
  C   C406      1.0  0.09131  0.33383  0.34158  1.0000
  H   H648      1.0  0.16207  0.50934  0.31200  1.0000
  H   H649      1.0  0.29373  0.57165  0.38261  1.0000
  C   C407      1.0  0.11648  0.32709  0.28627  1.0000
  C   C408      1.0  0.29624  0.56922  0.34845  1.0000
  H   H650      1.0  0.13174  0.50618  0.33253  1.0000
  C   C409      1.0  0.18060  0.59581  0.40883  1.0000
  H   H651      1.0  0.29292  0.56475  0.33747  1.0000
  C   C410      1.0  0.11000  0.54675  0.44658  1.0000
  H   H652      1.0  0.24913  0.63208  0.27488  1.0000
  C   C411      1.0  0.11690  0.55166  0.45918  1.0000
  S   S167      1.0  0.14509  0.55451  0.47296  1.0000
  C   C412      1.0  0.17967  0.52607  0.25312  1.0000
  N   N42       1.0  0.21791  0.54074  0.31381  1.0000
  C   C413      1.0  0.22038  0.52227  0.32494  1.0000
  C   C414      1.0  0.20707  0.55360  0.32537  1.0000
  C   C415      1.0  0.20839  0.54156  0.29945  1.0000
  H   H653      1.0  0.23427  0.55961  0.29729  1.0000
  H   H654      1.0  0.13262  0.49987  0.28650  1.0000
  H   H655      1.0  0.22848  0.51214  0.31671  1.0000
  H   H656      1.0  0.20708  0.51836  0.33153  1.0000
  H   H657      1.0  0.21367  0.55309  0.33658  1.0000
  H   H658      1.0  0.16957  0.49861  0.29273  1.0000
  H   H659      1.0  0.15123  0.51784  0.29308  1.0000
  H   H660      1.0  0.20696  0.55513  0.29041  1.0000
  H   H661      1.0  0.19451  0.53881  0.30519  1.0000
  C   C416      1.0  0.06374  0.34198  0.33012  1.0000
  H   H662      1.0  0.11761  0.49468  0.32662  1.0000
  H   H663      1.0  0.05803  0.47607  0.23798  1.0000
  C   C417      1.0  0.12823  0.50287  0.32099  1.0000
  S   S168      1.0  0.15806  0.50195  0.39643  1.0000
  C   C418      1.0  0.08531  0.46518  0.24207  1.0000
  H   H664      1.0  0.22742  0.52120  0.33600  1.0000
  S   S169      1.0  0.20036  0.52680  0.37059  1.0000
  S   S170      1.0  0.23345  0.57101  0.25614  1.0000
  H   H665      1.0  0.10788  0.55924  0.46892  1.0000
  H   H666      1.0  0.24348  0.54484  0.31591  1.0000
  H   H667      1.0  0.26506  0.58772  0.30084  1.0000
  H   H668      1.0  0.32227  0.61532  0.37327  1.0000
  H   H669      1.0  0.29174  0.59410  0.36867  1.0000
  H   H670      1.0  0.27505  0.60280  0.34456  1.0000
  C   C419      1.0  0.05045  0.49151  0.29848  1.0000
  C   C420      1.0  0.29788  0.60724  0.27049  1.0000
  H   H671      1.0  0.30947  0.61277  0.26984  1.0000
  H   H672      1.0  0.16716  0.55687  0.41182  1.0000
  H   H673      1.0  0.12840  0.40304  0.24220  1.0000
  C   C421      1.0  0.00338  0.36641  0.36096  1.0000
  C   C422      1.0  0.26952  0.56153  0.36982  1.0000
  H   H674      1.0  0.18791  0.56368  0.39953  1.0000
  H   H675      1.0  0.17947  0.60484  0.41818  1.0000
  S   S171      1.0  0.21908  0.61442  0.24075  1.0000
  H   H676      1.0  0.16142  0.53310  0.44618  1.0000
  C   C423      1.0  0.28779  0.60038  0.28724  1.0000
  H   H677      1.0  0.14523  0.59568  0.41386  1.0000
  H   H678      1.0  0.20288  0.56005  0.47606  1.0000
  H   H679      1.0  0.27757  0.55011  0.37813  1.0000
  H   H680      1.0  0.16678  0.57626  0.39364  1.0000
  N   N43       1.0  0.27967  0.57611  0.36098  1.0000
  C   C424      1.0  0.18015  0.56986  0.43327  1.0000
  C   C425      1.0  0.29982  0.54221  0.47016  1.0000
  H   H681      1.0  0.27402  0.64416  0.34353  1.0000
  H   H682      1.0  0.14359  0.39887  0.28468  1.0000
  C   C426      1.0  0.13551  0.54702  0.45887  1.0000
  H   H683      1.0  0.15020  0.59569  0.43511  1.0000
  C   C427      1.0  0.13885  0.48785  0.29574  1.0000
  H   H684      1.0  0.12215  0.51588  0.31288  1.0000
  H   H685      1.0  0.13106  0.47750  0.45401  1.0000
  H   H686      1.0  0.13978  0.37380  0.26155  1.0000
  H   H687      1.0  0.20512  0.56773  0.31749  1.0000
  H   H688      1.0  0.21589  0.53164  0.29076  1.0000
  S   S172      1.0  0.15994  0.50246  0.25135  1.0000
  C   C428      1.0  0.15213  0.58732  0.42493  1.0000
  H   H689      1.0  0.30424  0.57989  0.34168  1.0000
  C   C429      1.0  0.19477  0.53431  0.24785  1.0000
  Fe  Fe84      1.0  0.31314  0.61726  0.30798  1.0000
  C   C430      1.0  0.27290  0.59305  0.28792  1.0000
  C   C431      1.0  0.24171  0.63594  0.26360  1.0000
  S   S173      1.0  0.30485  0.64724  0.30656  1.0000
  S   S174      1.0  0.27132  0.60101  0.23489  1.0000
  N   N44       1.0  0.24674  0.65203  0.25042  1.0000
  H   H690      1.0  0.05150  0.33768  0.32924  1.0000
  H   H691      1.0  0.13638  0.32624  0.23691  1.0000
  H   H692      1.0  0.14861  0.32882  0.30790  1.0000
  C   C432      1.0  0.26659  0.64871  0.24361  1.0000
  H   H693      1.0  0.27408  0.64495  0.25483  1.0000
  H   H694      1.0  0.25185  0.59281  0.48093  1.0000
  C   C433      1.0  0.19037  0.55445  0.48169  1.0000
  H   H695      1.0  0.27115  0.63748  0.23613  1.0000
  H   H696      1.0  0.32583  0.58280  0.37437  1.0000
  C   C434      1.0  0.20972  0.52813  0.23502  1.0000
  C   C435      1.0  0.13151  0.32121  0.29448  1.0000
  H   H697      1.0  0.10059  0.32309  0.34918  1.0000
  H   H698      1.0  0.10639  0.34416  0.23331  1.0000
  C   C436      1.0  0.06516  0.32159  0.35887  1.0000
  Fe  Fe85      1.0  0.22449  0.56650  0.23285  1.0000
  Fe  Fe86      1.0  0.09509  0.57384  0.52652  1.0000
  S   S175      1.0  0.10205  0.58950  0.49798  1.0000
  S   S176      1.0  0.06584  0.57354  0.54064  1.0000
  Fe  Fe87      1.0  0.13353  0.56748  0.53270  1.0000
  S   S177      1.0  0.14295  0.58259  0.50500  1.0000
  S   S178      1.0  0.15626  0.55644  0.54787  1.0000
  Fe  Fe88      1.0  0.11725  0.60275  0.50994  1.0000
  S   S179      1.0  0.12005  0.63154  0.50515  1.0000
  Fe  Fe89      1.0  0.12728  0.56756  0.49586  1.0000
  H   H699      1.0  0.06479  0.59804  0.58901  1.0000
  S   S180      1.0  0.10874  0.58877  0.53842  1.0000
  S   S181      1.0  0.11929  0.55090  0.52353  1.0000
  Fe  Fe90      1.0  0.19896  0.61519  0.58274  1.0000
  S   S182      1.0  0.21252  0.63331  0.55893  1.0000
  S   S183      1.0  0.17009  0.61521  0.58265  1.0000
  Fe  Fe91      1.0  0.23019  0.60733  0.60218  1.0000
  S   S184      1.0  0.24596  0.62499  0.57978  1.0000
  S   S185      1.0  0.24157  0.59540  0.62728  1.0000
  C   C437      1.0  0.16888  0.61118  0.51813  1.0000
  Fe  Fe92      1.0  0.23753  0.61193  0.56185  1.0000
  S   S186      1.0  0.25771  0.60311  0.53804  1.0000
  S   S187      1.0  0.20411  0.62781  0.60322  1.0000
  S   S188      1.0  0.22353  0.59268  0.58424  1.0000
  C   C438      1.0  0.29856  0.56898  0.65483  1.0000
  H   H700      1.0  0.18414  0.56211  0.51415  1.0000
  H   H701      1.0  0.19855  0.62576  0.51119  1.0000
  H   H702      1.0  0.32211  0.55710  0.54326  1.0000
  S   S189      1.0  0.31822  0.61546  0.61112  1.0000
  C   C439      1.0  0.05486  0.63167  0.57006  1.0000
  H   H703      1.0  0.31525  0.59580  0.52368  1.0000
  H   H704      1.0  0.02697  0.60146  0.58450  1.0000
  H   H705      1.0  0.20882  0.51576  0.50776  1.0000
  H   H706      1.0  0.00464  0.56147  0.53995  1.0000
  S   S190      1.0  0.21478  0.58901  0.48666  1.0000
  N   N45       1.0  0.00777  0.55718  0.51316  1.0000
  C   C440      1.0  0.26320  0.60011  0.62321  1.0000
  C   C441      1.0  0.27524  0.59832  0.60680  1.0000
  C   C442      1.0  0.29231  0.60274  0.60327  1.0000
  C   C443      1.0  0.29742  0.60879  0.61621  1.0000
  C   C444      1.0  0.28539  0.61061  0.63263  1.0000
  C   C445      1.0  0.26833  0.60608  0.63620  1.0000
  H   H707      1.0  0.27140  0.59351  0.59681  1.0000
  H   H708      1.0  0.30154  0.60152  0.59049  1.0000
  H   H709      1.0  0.28923  0.61558  0.64251  1.0000
  H   H710      1.0  0.25896  0.60761  0.64884  1.0000
  H   H711      1.0  0.17554  0.52412  0.51878  1.0000
  C   C446      1.0  0.24630  0.59782  0.52411  1.0000
  C   C447      1.0  0.25485  0.59656  0.50628  1.0000
  H   H712      1.0  0.32016  0.53642  0.65345  1.0000
  C   C448      1.0  0.21914  0.59171  0.51928  1.0000
  C   C449      1.0  0.22850  0.59522  0.53065  1.0000
  C   C450      1.0  0.24538  0.59328  0.49483  1.0000
  C   C451      1.0  0.00075  0.55288  0.53282  1.0000
  H   H713      1.0  0.22194  0.59590  0.54449  1.0000
  H   H714      1.0  0.08022  0.53913  0.52918  1.0000
  C   C452      1.0  0.16013  0.57243  0.55795  1.0000
  C   C453      1.0  0.14593  0.58620  0.56346  1.0000
  C   C454      1.0  0.14911  0.59901  0.57133  1.0000
  C   C455      1.0  0.16660  0.59841  0.57339  1.0000
  C   C456      1.0  0.18090  0.58478  0.56770  1.0000
  C   C457      1.0  0.17762  0.57167  0.56019  1.0000
  H   H715      1.0  0.13238  0.58674  0.56205  1.0000
  H   H716      1.0  0.13798  0.60945  0.57579  1.0000
  H   H717      1.0  0.19444  0.58420  0.56923  1.0000
  H   H718      1.0  0.18869  0.56108  0.55593  1.0000
  H   H719      1.0  0.29398  0.59676  0.51817  1.0000
  H   H720      1.0  0.17984  0.60540  0.50766  1.0000
  H   H721      1.0  0.03357  0.55790  0.49487  1.0000
  S   S191      1.0  0.03141  0.50522  0.55230  1.0000
  C   C458      1.0  0.00268  0.54505  0.50445  1.0000
  H   H722      1.0  0.30308  0.54739  0.51832  1.0000
  C   C459      1.0  0.03942  0.55368  0.55520  1.0000
  C   C460      1.0  0.05694  0.55399  0.54469  1.0000
  C   C461      1.0  0.06669  0.53904  0.53724  1.0000
  H   H723      1.0  0.15336  0.64034  0.60862  1.0000
  H   H724      1.0  0.03188  0.56515  0.56114  1.0000
  C   C462      1.0  0.17489  0.53428  0.50597  1.0000
  H   H725      1.0  0.15377  0.65168  0.53092  1.0000
  H   H726      1.0  0.26584  0.56572  0.65258  1.0000
  H   H727      1.0  0.18884  0.62177  0.53497  1.0000
  C   C463      1.0  0.03137  0.61424  0.58333  1.0000
  H   H728      1.0  0.05850  0.58647  0.57512  1.0000
  C   C464      1.0  0.02774  0.55460  0.50957  1.0000
  C   C465      1.0  0.30457  0.58799  0.52556  1.0000
  C   C466      1.0  0.29774  0.56043  0.52299  1.0000
  H   H729      1.0  0.07576  0.59942  0.56566  1.0000
  C   C467      1.0  0.32682  0.53166  0.48318  1.0000
  N   N46       1.0  0.31213  0.57090  0.51909  1.0000
  C   C468      1.0  0.30837  0.53974  0.64677  1.0000
  N   N47       1.0  0.16946  0.63002  0.51769  1.0000
  H   H730      1.0  0.28636  0.56804  0.51614  1.0000
  H   H731      1.0  0.15478  0.64099  0.49622  1.0000
  C   C469      1.0  0.16782  0.64104  0.49956  1.0000
  C   C470      1.0  0.18685  0.63054  0.52165  1.0000
  H   H732      1.0  0.20812  0.55446  0.50748  1.0000
  H   H733      1.0  0.17186  0.52798  0.49612  1.0000
  N   N48       1.0  0.19185  0.54119  0.49874  1.0000
  H   H734      1.0  0.02023  0.62546  0.57925  1.0000
  H   H735      1.0  0.03633  0.62834  0.54730  1.0000
  H   H736      1.0  0.03407  0.54034  0.51477  1.0000
  N   N49       1.0  0.29295  0.55207  0.65571  1.0000
  Fe  Fe93      1.0  0.21942  0.64440  0.57946  1.0000
  H   H737      1.0  0.29858  0.54023  0.68219  1.0000
  H   H738      1.0  0.29806  0.58555  0.54017  1.0000
  C   C471      1.0  0.05885  0.52398  0.54010  1.0000
  H   H739      1.0  0.15571  0.61029  0.51571  1.0000
  H   H740      1.0  0.06640  0.51251  0.53415  1.0000
  H   H741      1.0  0.00887  0.53067  0.50931  1.0000
  H   H742      1.0  0.30973  0.56655  0.66210  1.0000
  H   H743      1.0  0.03211  0.56322  0.51632  1.0000
  H   H744      1.0  0.17895  0.63574  0.48891  1.0000
  Fe  Fe94      1.0  0.00123  0.50589  0.56093  1.0000
  H   H745      1.0  0.28718  0.57879  0.66108  1.0000
  H   H746      1.0  0.27574  0.55245  0.68197  1.0000
  H   H747      1.0  0.04061  0.60412  0.55176  1.0000
  C   C472      1.0  0.04604  0.61590  0.55197  1.0000
  H   H748      1.0  0.08223  0.63033  0.51181  1.0000
  H   H749      1.0  0.03246  0.61494  0.59703  1.0000
  C   C473      1.0  0.27765  0.55619  0.64640  1.0000
  H   H750      1.0  0.29365  0.64606  0.59509  1.0000
  H   H751      1.0  0.28154  0.56264  0.63192  1.0000
  C   C474      1.0  0.08335  0.64160  0.51680  1.0000
  H   H752      1.0  0.26856  0.59868  0.50114  1.0000
  H   H753      1.0  0.20543  0.58958  0.52444  1.0000
  H   H754      1.0  0.31307  0.54593  0.63235  1.0000
  H   H755      1.0  0.05656  0.63193  0.58368  1.0000
  C   C475      1.0  0.19494  0.54996  0.51202  1.0000
  H   H756      1.0  0.15561  0.62967  0.54527  1.0000
  C   C476      1.0  0.04122  0.52378  0.55034  1.0000
  H   H757      1.0  0.30352  0.57550  0.64063  1.0000
  C   C477      1.0  0.03164  0.53856  0.55815  1.0000
  C   C478      1.0  0.15436  0.65149  0.61457  1.0000
  H   H758      1.0  0.06812  0.63254  0.56057  1.0000
  H   H759      1.0  0.19497  0.54071  0.52544  1.0000
  H   H760      1.0  0.26421  0.63626  0.60394  1.0000
  H   H761      1.0  0.29191  0.55728  0.53771  1.0000
  N   N50       1.0  0.04868  0.61525  0.57017  1.0000
  C   C479      1.0  0.06252  0.59910  0.57528  1.0000
  C   C480      1.0  0.28729  0.54344  0.67482  1.0000
  H   H762      1.0  0.30029  0.52694  0.49729  1.0000
  H   H763      1.0  0.16310  0.54532  0.50904  1.0000
  C   C481      1.0  0.10042  0.64520  0.51521  1.0000
  H   H764      1.0  0.27289  0.54380  0.64689  1.0000
  H   H765      1.0  0.05906  0.61558  0.54186  1.0000
  C   C482      1.0  0.22740  0.59123  0.50124  1.0000
  H   H766      1.0  0.18752  0.64445  0.52206  1.0000
  H   H767      1.0  0.01823  0.53833  0.56644  1.0000
  H   H768      1.0  0.00603  0.53851  0.53860  1.0000
  H   H769      1.0  0.16689  0.64697  0.62021  1.0000
  C   C483      1.0  0.32696  0.56023  0.52836  1.0000
  H   H770      1.0  0.28300  0.53059  0.67605  1.0000
  H   H771      1.0  0.30467  0.52680  0.64717  1.0000
  C   C484      1.0  0.31923  0.57494  0.49941  1.0000
  H   H772      1.0  0.20534  0.51926  0.48511  1.0000
  C   C485      1.0  0.20721  0.52606  0.49521  1.0000
  H   H773      1.0  0.17053  0.60238  0.53143  1.0000
  H   H774      1.0  0.00727  0.54821  0.48953  1.0000
  H   H775      1.0  0.04507  0.64419  0.56571  1.0000
  H   H776      1.0  0.22020  0.53086  0.48960  1.0000
  C   C486      1.0  0.15430  0.63724  0.53140  1.0000
  H   H777      1.0  0.30828  0.58246  0.49194  1.0000
  H   H778      1.0  0.14101  0.63620  0.52934  1.0000
  C   C487      1.0  0.99980  0.57613  0.50595  1.0000
  C   C488      1.0  0.30823  0.53299  0.48475  1.0000
  H   H779      1.0  0.00476  0.57990  0.49111  1.0000
  C   C489      1.0  0.25723  0.65022  0.60547  1.0000
  H   H780      1.0  0.05449  0.65064  0.52477  1.0000
  H   H781      1.0  0.25539  0.65076  0.61992  1.0000
  H   H782      1.0  0.00331  0.58560  0.51236  1.0000
  C   C490      1.0  0.06770  0.65306  0.52415  1.0000
  H   H783      1.0  0.32542  0.56234  0.49418  1.0000
  H   H784      1.0  0.17880  0.56598  0.48372  1.0000
  H   H785      1.0  0.27640  0.64863  0.57200  1.0000
  H   H786      1.0  0.24357  0.65253  0.60241  1.0000
  H   H787      1.0  0.14259  0.65309  0.62604  1.0000
  H   H788      1.0  0.22086  0.39366  0.93694  1.0000
  H   H789      1.0  0.03736  0.34062  0.84613  1.0000
  H   H790      1.0  0.99677  0.38543  0.86207  1.0000
  S   S192      1.0  0.09395  0.35699  0.89718  1.0000
  N   N51       1.0  0.31091  0.32174  0.83581  1.0000
  S   S193      1.0  0.08681  0.33395  0.87076  1.0000
  Fe  Fe95      1.0  0.10956  0.34504  0.87315  1.0000
  S   S194      1.0  0.12328  0.36170  0.84797  1.0000
  Fe  Fe96      1.0  0.07191  0.34371  0.89617  1.0000
  S   S195      1.0  0.04293  0.35957  0.89907  1.0000
  H   H791      1.0  0.31956  0.35323  0.93066  1.0000
  H   H792      1.0  0.20354  0.34813  0.77437  1.0000
  S   S196      1.0  0.17507  0.39675  0.98101  1.0000
  H   H793      1.0  0.18956  0.35835  0.97215  1.0000
  C   C491      1.0  0.30652  0.35261  0.90969  1.0000
  H   H794      1.0  0.01100  0.38283  0.88811  1.0000
  C   C492      1.0  0.15347  0.34674  0.80182  1.0000
  C   C493      1.0  0.14298  0.35708  0.81454  1.0000
  C   C494      1.0  0.13630  0.34858  0.83219  1.0000
  Fe  Fe97      1.0  0.10512  0.33021  0.91350  1.0000
  H   H795      1.0  0.14007  0.37165  0.81072  1.0000
  C   C495      1.0  0.14004  0.32972  0.83704  1.0000
  C   C496      1.0  0.01642  0.37339  0.87916  1.0000
  C   C497      1.0  0.03191  0.36004  0.88190  1.0000
  C   C498      1.0  0.03902  0.34793  0.87024  1.0000
  H   H796      1.0  0.05040  0.33712  0.87269  1.0000
  N   N52       1.0  0.23980  0.37447  0.92221  1.0000
  C   C499      1.0  0.13395  0.37096  0.95283  1.0000
  C   C500      1.0  0.13781  0.35325  0.96255  1.0000
  C   C501      1.0  0.13274  0.33931  0.95786  1.0000
  C   C502      1.0  0.12393  0.34298  0.94337  1.0000
  C   C503      1.0  0.12035  0.36063  0.93349  1.0000
  C   C504      1.0  0.12530  0.37457  0.93825  1.0000
  H   H797      1.0  0.14468  0.35030  0.97366  1.0000
  H   H798      1.0  0.11364  0.36361  0.92228  1.0000
  H   H799      1.0  0.12229  0.38826  0.93068  1.0000
  C   C505      1.0  0.03133  0.34970  0.85540  1.0000
  C   C506      1.0  0.29202  0.32504  0.84606  1.0000
  H   H800      1.0  0.15859  0.35337  0.78820  1.0000
  S   S197      1.0  0.13895  0.38909  0.95886  1.0000
  H   H801      1.0  0.13568  0.32564  0.96546  1.0000
  H   H802      1.0  0.25323  0.35407  0.90661  1.0000
  H   H803      1.0  0.23325  0.34873  0.78043  1.0000
  H   H804      1.0  0.19322  0.34181  0.94807  1.0000
  H   H805      1.0  0.20197  0.33066  0.76407  1.0000
  H   H806      1.0  0.25079  0.39829  0.91706  1.0000
  C   C507      1.0  0.20341  0.33838  0.95622  1.0000
  S   S198      1.0  0.11774  0.32519  0.93790  1.0000
  H   H807      1.0  0.01661  0.32506  0.84190  1.0000
  C   C508      1.0  0.20127  0.34767  0.96996  1.0000
  C   C509      1.0  0.32176  0.36314  0.87908  1.0000
  H   H808      1.0  0.04915  0.40590  0.83661  1.0000
  S   S199      1.0  0.00744  0.36574  0.83317  1.0000
  C   C510      1.0  0.23932  0.36098  0.91222  1.0000
  H   H809      1.0  0.21307  0.37360  0.93839  1.0000
  C   C511      1.0  0.21439  0.34343  0.98051  1.0000
  C   C512      1.0  0.25000  0.38796  0.90996  1.0000
  N   N53       1.0  0.07262  0.38427  0.83658  1.0000
  C   C513      1.0  0.08520  0.39603  0.82541  1.0000
  C   C514      1.0  0.07254  0.38250  0.85586  1.0000
  C   C515      1.0  0.07864  0.36627  0.83180  1.0000
  C   C516      1.0  0.05411  0.39224  0.83331  1.0000
  H   H810      1.0  0.09931  0.39022  0.82758  1.0000
  H   H811      1.0  0.08123  0.40966  0.82882  1.0000
  H   H812      1.0  0.08560  0.39774  0.81077  1.0000
  H   H813      1.0  0.08634  0.37692  0.85881  1.0000
  H   H814      1.0  0.06760  0.39571  0.86014  1.0000
  H   H815      1.0  0.06368  0.37326  0.86467  1.0000
  H   H816      1.0  0.09254  0.35979  0.83422  1.0000
  H   H817      1.0  0.07896  0.36710  0.81732  1.0000
  H   H818      1.0  0.06943  0.35703  0.83995  1.0000
  H   H819      1.0  0.04432  0.38374  0.84179  1.0000
  H   H820      1.0  0.05351  0.39347  0.81897  1.0000
  H   H821      1.0  0.30238  0.32932  0.97145  1.0000
  C   C517      1.0  0.20934  0.33390  0.77290  1.0000
  H   H822      1.0  0.24354  0.39511  0.89824  1.0000
  H   H823      1.0  0.23236  0.36730  0.90070  1.0000
  H   H824      1.0  0.26417  0.38146  0.90442  1.0000
  C   C518      1.0  0.00838  0.37486  0.86454  1.0000
  H   H825      1.0  0.30365  0.33288  0.80987  1.0000
  H   H826      1.0  0.23582  0.32546  0.79175  1.0000
  C   C519      1.0  0.24887  0.36537  0.93752  1.0000
  C   C520      1.0  0.22107  0.38350  0.92915  1.0000
  C   C521      1.0  0.01599  0.36314  0.85253  1.0000
  H   H827      1.0  0.24177  0.35482  0.94678  1.0000
  H   H828      1.0  0.29534  0.34739  0.91903  1.0000
  S   S200      1.0  0.29014  0.35230  0.88282  1.0000
  H   H829      1.0  0.26313  0.35869  0.93280  1.0000
  H   H830      1.0  0.25318  0.33273  0.77315  1.0000
  C   C522      1.0  0.30720  0.35641  0.89110  1.0000
  H   H831      1.0  0.21375  0.39054  0.91801  1.0000
  C   C523      1.0  0.15769  0.32790  0.80683  1.0000
  H   H832      1.0  0.24907  0.37506  0.94567  1.0000
  C   C524      1.0  0.23292  0.34312  0.74791  1.0000
  C   C525      1.0  0.31939  0.33691  0.83492  1.0000
  H   H833      1.0  0.13478  0.32304  0.85055  1.0000
  H   H834      1.0  0.23200  0.35039  0.92109  1.0000
  H   H835      1.0  0.31210  0.34990  0.82788  1.0000
  C   C526      1.0  0.32026  0.35586  0.91625  1.0000
  H   H836      1.0  0.29150  0.32608  0.86011  1.0000
  H   H837      1.0  0.15098  0.32847  0.90500  1.0000
  H   H838      1.0  0.22805  0.35754  0.74905  1.0000
  Fe  Fe98      1.0  0.28218  0.32649  0.89893  1.0000
  H   H839      1.0  0.20604  0.32522  0.78650  1.0000
  H   H840      1.0  0.22616  0.34073  0.73807  1.0000
  C   C527      1.0  0.23823  0.33463  0.77829  1.0000
  H   H841      1.0  0.32237  0.36600  0.86468  1.0000
  H   H842      1.0  0.31930  0.33858  0.84866  1.0000
  N   N54       1.0  0.22910  0.33091  0.76565  1.0000
  Fe  Fe99      1.0  0.32319  0.32474  0.76611  1.0000
  H   H843      1.0  0.17327  0.33346  0.89976  1.0000
  H   H844      1.0  0.10154  0.36891  0.98004  1.0000
  S   S201      1.0  0.29374  0.32456  0.77885  1.0000
  H   H845      1.0  0.28390  0.33783  0.83965  1.0000
  C   C528      1.0  0.21890  0.32508  0.95267  1.0000
  C   C529      1.0  0.22981  0.32992  0.97715  1.0000
  C   C530      1.0  0.16389  0.32545  0.90985  1.0000
  H   H846      1.0  0.24775  0.34110  0.74209  1.0000
  H   H847      1.0  0.16061  0.33048  0.92265  1.0000
  C   C531      1.0  0.23210  0.32080  0.96316  1.0000
  C   C532      1.0  0.31100  0.32021  0.81735  1.0000
  H   H848      1.0  0.06119  0.67600  0.07374  1.0000
  S   S202      1.0  0.14467  0.68366  0.10384  1.0000
  H   H849      1.0  0.02817  0.72085  0.08240  1.0000
  S   S203      1.0  0.21983  0.70836  0.08010  1.0000
  H   H850      1.0  0.22759  0.68016  0.12941  1.0000
  H   H851      1.0  0.07787  0.67472  0.08632  1.0000
  H   H852      1.0  0.10300  0.69143  0.07204  1.0000
  H   H853      1.0  0.06367  0.69212  0.04237  1.0000
  C   C533      1.0  0.00214  0.85400  0.08385  1.0000
  Fe  Fe100     1.0  0.02292  0.66573  0.06938  1.0000
  S   S204      1.0  0.00674  0.68504  0.04985  1.0000
  H   H854      1.0  0.06211  0.69558  0.08100  1.0000
  S   S205      1.0  0.02104  0.68581  0.08606  1.0000
  H   H855      1.0  0.00223  0.88297  0.03566  1.0000
  N   N55       1.0  0.08329  0.68874  0.05857  1.0000
  C   C534      1.0  0.16563  0.69037  0.09683  1.0000
  C   C535      1.0  0.16708  0.70638  0.10074  1.0000
  C   C536      1.0  0.18362  0.71212  0.09533  1.0000
  C   C537      1.0  0.19884  0.70178  0.08607  1.0000
  C   C538      1.0  0.19744  0.68572  0.08221  1.0000
  C   C539      1.0  0.18081  0.68006  0.08750  1.0000
  H   H856      1.0  0.15549  0.71419  0.10832  1.0000
  H   H857      1.0  0.20921  0.67771  0.07503  1.0000
  H   H858      1.0  0.17974  0.66780  0.08426  1.0000
  H   H859      1.0  0.18467  0.72439  0.09860  1.0000
  H   H860      1.0  0.14450  0.74744  0.09494  1.0000
  H   H861      1.0  0.30490  0.76886  0.22660  1.0000
  H   H862      1.0  0.18072  0.65670  0.14266  1.0000
  H   H863      1.0  0.17769  0.83605  0.02880  1.0000
  H   H864      1.0  0.05657  0.72932  0.08287  1.0000
  H   H865      1.0  0.14164  0.83477  0.00643  1.0000
  H   H866      1.0  0.02132  0.91196  0.10500  1.0000
  C   C540      1.0  0.00735  0.80509  0.05739  1.0000
  N   N56       1.0  0.17002  0.83156  0.00600  1.0000
  H   H867      1.0  0.10470  0.67560  0.03980  1.0000
  H   H868      1.0  0.15372  0.83879  0.03079  1.0000
  S   S206      1.0  0.00396  0.73386  0.05703  1.0000
  H   H869      1.0  0.18378  0.80676  0.02057  1.0000
  H   H870      1.0  0.10204  0.66328  0.06277  1.0000
  C   C541      1.0  0.09453  0.67228  0.05237  1.0000
  C   C542      1.0  0.07059  0.68356  0.07567  1.0000
  H   H871      1.0  0.08207  0.70368  0.03154  1.0000
  C   C543      1.0  0.03349  0.73103  0.07161  1.0000
  H   H872      1.0  0.14108  0.74696  0.04827  1.0000
  C   C544      1.0  0.09509  0.69934  0.06154  1.0000
  C   C545      1.0  0.21513  0.67949  0.12538  1.0000
  H   H873      1.0  0.08702  0.71195  0.06606  1.0000
  C   C546      1.0  0.07292  0.69969  0.04469  1.0000
  H   H874      1.0  0.19862  0.83107  0.99948  1.0000
  H   H875      1.0  0.19089  0.68516  0.15592  1.0000
  H   H876      1.0  0.10492  0.70341  0.04893  1.0000
  H   H877      1.0  0.06439  0.71231  0.04875  1.0000
  H   H878      1.0  0.14604  0.76523  0.07535  1.0000
  C   C547      1.0  0.16657  0.84096  0.02109  1.0000
  H   H879      1.0  0.21210  0.67205  0.16134  1.0000
  C   C548      1.0  0.02417  0.73967  0.05765  1.0000
  H   H880      1.0  0.15750  0.74261  0.07358  1.0000
  C   C549      1.0  0.04953  0.73592  0.07193  1.0000
  C   C550      1.0  0.14483  0.75085  0.08015  1.0000
  Fe  Fe101     1.0  0.14507  0.65431  0.10588  1.0000
  Fe  Fe102     1.0  0.19058  0.76725  0.09926  1.0000
  S   S207      1.0  0.16106  0.77498  0.11182  1.0000
  Fe  Fe103     1.0  0.21728  0.77559  0.06429  1.0000
  S   S208      1.0  0.21922  0.79576  0.03777  1.0000
  Fe  Fe104     1.0  0.23067  0.76100  0.09963  1.0000
  S   S209      1.0  0.25372  0.75801  0.11359  1.0000
  S   S210      1.0  0.21055  0.78568  0.09015  1.0000
  Fe  Fe105     1.0  0.07788  0.78431  0.04710  1.0000
  S   S211      1.0  0.07891  0.80052  0.06647  1.0000
  S   S212      1.0  0.07682  0.75488  0.05858  1.0000
  Fe  Fe106     1.0  0.07864  0.81665  0.01566  1.0000
  S   S213      1.0  0.07857  0.83578  0.03278  1.0000
  H   H881      1.0  0.17555  0.80432  0.00196  1.0000
  Fe  Fe107     1.0  0.09925  0.81309  0.04437  1.0000
  S   S214      1.0  0.12587  0.81854  0.04547  1.0000
  Fe  Fe108     1.0  0.05798  0.82164  0.05342  1.0000
  S   S215      1.0  0.03415  0.83126  0.07462  1.0000
  S   S216      1.0  0.10048  0.79472  0.02615  1.0000
  S   S217      1.0  0.05584  0.80463  0.03519  1.0000
  C   C551      1.0  0.11204  0.75759  0.08634  1.0000
  C   C552      1.0  0.25754  0.79401  0.06743  1.0000
  H   H882      1.0  0.11167  0.75360  0.10112  1.0000
  C   C553      1.0  0.12883  0.75417  0.05649  1.0000
  C   C554      1.0  0.01955  0.78504  0.08241  1.0000
  C   C555      1.0  0.18877  0.66615  0.13278  1.0000
  Fe  Fe109     1.0  0.30791  0.81632  0.13660  1.0000
  S   S218      1.0  0.28157  0.82211  0.12692  1.0000
  H   H883      1.0  0.11130  0.77237  0.08235  1.0000
  H   H884      1.0  0.23754  0.81996  0.00930  1.0000
  H   H885      1.0  0.29744  0.79573  0.03725  1.0000
  H   H886      1.0  0.01478  0.89773  0.12655  1.0000
  H   H887      1.0  0.16003  0.80819  0.02244  1.0000
  H   H888      1.0  0.28410  0.78298  0.08709  1.0000
  H   H889      1.0  0.27535  0.79794  0.03315  1.0000
  C   C556      1.0  0.05636  0.74944  0.05826  1.0000
  H   H890      1.0  0.24987  0.79230  0.05799  1.0000
  S   S219      1.0  0.19590  0.75900  0.07269  1.0000
  C   C557      1.0  0.03075  0.75351  0.04425  1.0000
  S   S220      1.0  0.20997  0.74335  0.11121  1.0000
  H   H891      1.0  0.14082  0.72012  0.07393  1.0000
  Fe  Fe110     1.0  0.00284  0.70440  0.06813  1.0000
  C   C558      1.0  0.01662  0.84978  0.06970  1.0000
  C   C559      1.0  0.01660  0.86015  0.05227  1.0000
  C   C560      1.0  0.27518  0.78728  0.00110  1.0000
  H   H892      1.0  0.11646  0.72530  0.07781  1.0000
  N   N57       1.0  0.12854  0.74769  0.07602  1.0000
  H   H893      1.0  0.00212  0.84604  0.09737  1.0000
  H   H894      1.0  0.02774  0.85698  0.04128  1.0000
  H   H895      1.0  0.10215  0.84522  0.99368  1.0000
  H   H896      1.0  0.16527  0.85580  0.01621  1.0000
  H   H897      1.0  0.21936  0.67591  0.11180  1.0000
  S   S221      1.0  0.31088  0.81331  0.16516  1.0000
  H   H898      1.0  0.11667  0.75212  0.05289  1.0000
  H   H899      1.0  0.31807  0.88932  0.00161  1.0000
  H   H900      1.0  0.26794  0.81552  0.98937  1.0000
  C   C561      1.0  0.26021  0.77596  0.11853  1.0000
  C   C562      1.0  0.27597  0.77223  0.12549  1.0000
  C   C563      1.0  0.28253  0.78624  0.12828  1.0000
  C   C564      1.0  0.27336  0.80414  0.12414  1.0000
  C   C565      1.0  0.25745  0.80788  0.11737  1.0000
  C   C566      1.0  0.25085  0.79385  0.11461  1.0000
  H   H901      1.0  0.28328  0.75843  0.12857  1.0000
  H   H902      1.0  0.29468  0.78316  0.13365  1.0000
  H   H903      1.0  0.25018  0.82169  0.11432  1.0000
  H   H904      1.0  0.23856  0.79688  0.10948  1.0000
  C   C567      1.0  0.15043  0.78934  0.09470  1.0000
  C   C568      1.0  0.13162  0.79229  0.09630  1.0000
  C   C569      1.0  0.12372  0.80180  0.08140  1.0000
  C   C570      1.0  0.13468  0.80828  0.06500  1.0000
  C   C571      1.0  0.15327  0.80611  0.06386  1.0000
  C   C572      1.0  0.16110  0.79669  0.07862  1.0000
  H   H905      1.0  0.12328  0.78682  0.10885  1.0000
  H   H906      1.0  0.10924  0.80403  0.08256  1.0000
  H   H907      1.0  0.16187  0.81130  0.05149  1.0000
  H   H908      1.0  0.17552  0.79494  0.07743  1.0000
  C   C573      1.0  0.24055  0.79221  0.02343  1.0000
  C   C574      1.0  0.25196  0.77515  0.02494  1.0000
  C   C575      1.0  0.26928  0.77270  0.01383  1.0000
  H   H909      1.0  0.17974  0.67976  0.13108  1.0000
  H   H910      1.0  0.02361  0.76028  0.03341  1.0000
  C   C576      1.0  0.24629  0.80671  0.01045  1.0000
  H   H911      1.0  0.24740  0.76378  0.03455  1.0000
  H   H912      1.0  0.27814  0.75949  0.01514  1.0000
  C   C577      1.0  0.28695  0.79188  0.07358  1.0000
  H   H913      1.0  0.02829  0.79445  0.08201  1.0000
  C   C578      1.0  0.15440  0.83773  0.99692  1.0000
  Fe  Fe111     1.0  0.21688  0.73660  0.08382  1.0000
  H   H914      1.0  0.02773  0.77529  0.07381  1.0000
  H   H915      1.0  0.08601  0.66435  0.04943  1.0000
  H   H916      1.0  0.05217  0.76856  0.03372  1.0000
  C   C579      1.0  0.17251  0.81184  0.01302  1.0000
  H   H917      1.0  0.02306  0.88829  0.10658  1.0000
  S   S222      1.0  0.23907  0.75232  0.07292  1.0000
  H   H918      1.0  0.25296  0.78555  0.08080  1.0000
  H   H919      1.0  0.00466  0.89577  0.08336  1.0000
  N   N58       1.0  0.27733  0.78875  0.06100  1.0000
  C   C580      1.0  0.12838  0.72819  0.08107  1.0000
  H   H920      1.0  0.20660  0.69337  0.12371  1.0000
  H   H921      1.0  0.01664  0.77731  0.09652  1.0000
  H   H922      1.0  0.29694  0.76488  0.05544  1.0000
  H   H923      1.0  0.12888  0.76890  0.05229  1.0000
  C   C581      1.0  0.00215  0.87482  0.04912  1.0000
  H   H924      1.0  0.28275  0.80605  0.07562  1.0000
  C   C582      1.0  0.28268  0.79968  0.04284  1.0000
  H   H925      1.0  0.12772  0.72299  0.09581  1.0000
  C   C583      1.0  0.01460  0.90036  0.11191  1.0000
  H   H926      1.0  0.27511  0.76652  0.05083  1.0000
  H   H927      1.0  0.27809  0.76081  0.07373  1.0000
  S   S223      1.0  0.99942  0.65432  0.08715  1.0000
  C   C584      1.0  0.04687  0.75830  0.04447  1.0000
  C   C585      1.0  0.26357  0.80424  0.99924  1.0000
  H   H928      1.0  0.27956  0.81433  0.04307  1.0000
  H   H929      1.0  0.09952  0.75505  0.08393  1.0000
  C   C586      1.0  0.28211  0.76939  0.06019  1.0000
  S   S224      1.0  0.32570  0.83689  0.12503  1.0000
  H   H930      1.0  0.15642  0.83099  0.98542  1.0000
  H   H931      1.0  0.25340  0.80834  0.06892  1.0000
  S   S225      1.0  0.08130  0.82365  0.98537  1.0000
  S   S226      1.0  0.29710  0.78409  0.98782  1.0000
  H   H932      1.0  0.00201  0.91954  0.08192  1.0000
  H   H933      1.0  0.30190  0.78899  0.06864  1.0000
  C   C587      1.0  0.20001  0.67159  0.15651  1.0000
  H   H934      1.0  0.31493  0.86359  0.06715  1.0000
  C   C588      1.0  0.31798  0.77159  0.22737  1.0000
  C   C589      1.0  0.18660  0.83571  0.99298  1.0000
  H   H935      1.0  0.01553  0.79599  0.04807  1.0000
  N   N59       1.0  0.20523  0.66635  0.13873  1.0000
  H   H936      1.0  0.19279  0.66178  0.16699  1.0000
  H   H937      1.0  0.32586  0.77440  0.21327  1.0000
  H   H938      1.0  0.01548  0.81518  0.05666  1.0000
  H   H939      1.0  0.15208  0.85255  0.99150  1.0000
  H   H940      1.0  0.31864  0.73613  0.23126  1.0000
  H   H941      1.0  0.99500  0.81265  0.05208  1.0000
  N   N60       1.0  0.99589  0.90407  0.10898  1.0000
  H   H942      1.0  0.31346  0.86958  0.08828  1.0000
  H   H943      1.0  0.32598  0.89126  0.05017  1.0000
  H   H944      1.0  0.18525  0.85050  0.98751  1.0000
  H   H945      1.0  0.19224  0.66183  0.11961  1.0000
  H   H946      1.0  0.32443  0.89785  0.07100  1.0000
  H   H947      1.0  0.24078  0.66796  0.22502  1.0000
  C   C590      1.0  0.32273  0.86267  0.07755  1.0000
  N   N61       1.0  0.00270  0.79487  0.07607  1.0000
  Fe  Fe112     1.0  0.99592  0.67613  0.10219  1.0000
  H   H948      1.0  0.32650  0.84811  0.08383  1.0000
  C   C591      1.0  0.99629  0.90744  0.08942  1.0000
  H   H949      1.0  0.00038  0.81716  0.08835  1.0000
  H   H950      1.0  0.99906  0.77231  0.06739  1.0000
  H   H951      1.0  0.99541  0.87589  0.11338  1.0000
  H   H952      1.0  0.31495  0.78416  0.23270  1.0000
  H   H953      1.0  0.24793  0.66520  0.27093  1.0000
  C   C592      1.0  0.24116  0.66768  0.25934  1.0000
  H   H954      1.0  0.32454  0.74143  0.26619  1.0000
  H   H955      1.0  0.22625  0.67058  0.26463  1.0000
  H   H956      1.0  0.31490  0.76505  0.26362  1.0000
  H   H957      1.0  0.09563  0.98373  0.44674  1.0000
  C   C593      1.0  0.31736  0.75313  0.25738  1.0000
  H   H958      1.0  0.08372  0.97926  0.43202  1.0000
  H   H959      1.0  0.07159  0.98496  0.45333  1.0000
  H   H960      1.0  0.24476  0.68009  0.24981  1.0000
  H   H961      1.0  0.30398  0.75026  0.25781  1.0000
  H   H962      1.0  0.99922  0.91211  0.39432  1.0000
  C   C594      1.0  0.23753  0.65575  0.23514  1.0000
  H   H963      1.0  0.22253  0.65787  0.23978  1.0000
  H   H964      1.0  0.27097  0.66080  0.23415  1.0000
  S   S227      1.0  0.21631  0.67444  0.57592  1.0000
  S   S228      1.0  0.19083  0.70947  0.64509  1.0000
  C   C595      1.0  0.18996  0.73328  0.68484  1.0000
  H   H965      1.0  0.19469  0.73569  0.71658  1.0000
  S   S229      1.0  0.02749  0.71934  0.56418  1.0000
  Fe  Fe113     1.0  0.07223  0.71030  0.58035  1.0000
  S   S230      1.0  0.07058  0.72003  0.55106  1.0000
  S   S231      1.0  0.09973  0.70690  0.58671  1.0000
  H   H966      1.0  0.20298  0.73709  0.68410  1.0000
  Fe  Fe114     1.0  0.05306  0.69965  0.55643  1.0000
  S   S232      1.0  0.04924  0.68146  0.54012  1.0000
  S   S233      1.0  0.04756  0.72994  0.59065  1.0000
  S   S234      1.0  0.05731  0.68797  0.58467  1.0000
  H   H967      1.0  0.19313  0.69579  0.71816  1.0000
  C   C596      1.0  0.10107  0.71846  0.60274  1.0000
  C   C597      1.0  0.11809  0.72054  0.60373  1.0000
  H   H968      1.0  0.02431  0.85221  0.54034  1.0000
  H   H969      1.0  0.13008  0.71499  0.59480  1.0000
  C   C598      1.0  0.20802  0.68381  0.59537  1.0000
  C   C599      1.0  0.20248  0.70258  0.59342  1.0000
  C   C600      1.0  0.19671  0.71052  0.60867  1.0000
  C   C601      1.0  0.19682  0.69974  0.62591  1.0000
  C   C602      1.0  0.20228  0.68093  0.62787  1.0000
  C   C603      1.0  0.20762  0.67295  0.61265  1.0000
  H   H970      1.0  0.20282  0.71106  0.58008  1.0000
  H   H971      1.0  0.20234  0.67253  0.64120  1.0000
  H   H972      1.0  0.03727  0.83285  0.53168  1.0000
  H   H973      1.0  0.13137  0.97102  0.58965  1.0000
  H   H974      1.0  0.09751  0.94069  0.56950  1.0000
  H   H975      1.0  0.06119  0.83298  0.54763  1.0000
  H   H976      1.0  0.27728  0.67220  0.56485  1.0000
  C   C604      1.0  0.00015  0.68465  0.60617  1.0000
  C   C605      1.0  0.01965  0.83596  0.57559  1.0000
  H   H977      1.0  0.08730  0.68231  0.53440  1.0000
  H   H978      1.0  0.05573  0.83180  0.57161  1.0000
  C   C606      1.0  0.08285  0.94677  0.57056  1.0000
  C   C607      1.0  0.10182  0.65997  0.52145  1.0000
  Fe  Fe115     1.0  0.13330  0.75481  0.64173  1.0000
  H   H979      1.0  0.17679  0.96689  0.55917  1.0000
  H   H980      1.0  0.25616  0.68314  0.61028  1.0000
  H   H981      1.0  0.14875  0.96298  0.61412  1.0000
  H   H982      1.0  0.04722  0.85196  0.55675  1.0000
  H   H983      1.0  0.11452  0.74582  0.57226  1.0000
  H   H984      1.0  0.13962  0.87373  0.72886  1.0000
  C   C608      1.0  0.19734  0.70483  0.70503  1.0000
  S   S235      1.0  0.99973  0.87767  0.50259  1.0000
  H   H985      1.0  0.00684  0.83153  0.57678  1.0000
  H   H986      1.0  0.01360  0.65609  0.57690  1.0000
  H   H987      1.0  0.01630  0.85092  0.57376  1.0000
  H   H988      1.0  0.13584  0.66338  0.58798  1.0000
  H   H989      1.0  0.04818  0.80518  0.55214  1.0000
  C   C609      1.0  0.16095  0.94461  0.58724  1.0000
  H   H990      1.0  0.07497  0.74241  0.63435  1.0000
  C   C610      1.0  0.08704  0.73634  0.62577  1.0000
  C   C611      1.0  0.10660  0.98512  0.71519  1.0000
  Fe  Fe116     1.0  0.03232  0.70858  0.59215  1.0000
  H   H991      1.0  0.06589  0.76784  0.57293  1.0000
  H   H992      1.0  0.19912  0.69735  0.69411  1.0000
  C   C612      1.0  0.11960  0.73048  0.61567  1.0000
  H   H993      1.0  0.19271  0.72505  0.60701  1.0000
  C   C613      1.0  0.16615  0.71796  0.70295  1.0000
  H   H994      1.0  0.07779  0.96246  0.59841  1.0000
  H   H995      1.0  0.07241  0.72429  0.61369  1.0000
  H   H996      1.0  0.19193  0.72628  0.67354  1.0000
  Fe  Fe117     1.0  0.04518  0.73864  0.56163  1.0000
  C   C614      1.0  0.17631  0.96936  0.57270  1.0000
  H   H997      1.0  0.14447  0.68606  0.62008  1.0000
  C   C615      1.0  0.01124  0.67539  0.59291  1.0000
  H   H998      1.0  0.29406  0.66965  0.58903  1.0000
  N   N62       1.0  0.18384  0.72190  0.70250  1.0000
  H   H999      1.0  0.07862  0.94379  0.55925  1.0000
  H   H1000     1.0  0.24437  0.68530  0.59270  1.0000
  C   C616      1.0  0.16062  0.96686  0.60382  1.0000
  H   H1001     1.0  0.18328  0.66205  0.59048  1.0000
  H   H1002     1.0  0.13767  0.68657  0.58345  1.0000
  C   C617      1.0  0.06909  0.66765  0.53064  1.0000
  S   S236      1.0  0.00762  0.70128  0.61222  1.0000
  C   C618      1.0  0.08555  0.72617  0.61399  1.0000
  H   H1003     1.0  0.02452  0.67816  0.58659  1.0000
  H   H1004     1.0  0.13276  0.73201  0.61627  1.0000
  H   H1005     1.0  0.14911  0.94010  0.59721  1.0000
  H   H1006     1.0  0.14316  0.97317  0.56661  1.0000
  Fe  Fe118     1.0  0.05129  0.88607  0.56957  1.0000
  S   S237      1.0  0.07358  0.88006  0.54605  1.0000
  Fe  Fe119     1.0  0.07792  0.88592  0.59243  1.0000
  S   S238      1.0  0.10242  0.87973  0.57082  1.0000
  S   S239      1.0  0.07973  0.88746  0.62023  1.0000
  Fe  Fe120     1.0  0.08579  0.90039  0.55235  1.0000
  S   S240      1.0  0.09446  0.92364  0.53069  1.0000
  Fe  Fe121     1.0  0.08790  0.86013  0.56669  1.0000
  S   S241      1.0  0.09797  0.83056  0.56604  1.0000
  S   S242      1.0  0.06221  0.90793  0.57444  1.0000
  S   S243      1.0  0.06474  0.86473  0.58982  1.0000
  Fe  Fe122     1.0  0.16239  0.77622  0.62355  1.0000
  S   S244      1.0  0.13707  0.78138  0.64439  1.0000
  S   S245      1.0  0.16724  0.79982  0.60093  1.0000
  C   C619      1.0  0.03810  0.81011  0.56366  1.0000
  S   S246      1.0  0.02172  0.88671  0.57161  1.0000
  S   S247      1.0  0.18022  0.76248  0.64370  1.0000
  S   S248      1.0  0.15762  0.75059  0.61947  1.0000
  H   H1007     1.0  0.16867  0.67853  0.61554  1.0000
  H   H1008     1.0  0.03023  0.88896  0.50675  1.0000
  Fe  Fe123     1.0  0.13625  0.93032  0.68042  1.0000
  S   S249      1.0  0.10884  0.94628  0.67569  1.0000
  S   S250      1.0  0.13661  0.90306  0.69891  1.0000
  Fe  Fe124     1.0  0.15605  0.95873  0.65503  1.0000
  H   H1009     1.0  0.15067  0.78423  0.72368  1.0000
  Fe  Fe125     1.0  0.11913  0.96973  0.67802  1.0000
  Fe  Fe126     1.0  0.12296  0.95151  0.64658  1.0000
  S   S251      1.0  0.11406  0.95187  0.62125  1.0000
  S   S252      1.0  0.14549  0.95341  0.68498  1.0000
  S   S253      1.0  0.14962  0.93385  0.65102  1.0000
  C   C620      1.0  0.17765  0.78811  0.72143  1.0000
  S   S254      1.0  0.14789  0.73951  0.66396  1.0000
  H   H1010     1.0  0.08108  0.74681  0.57852  1.0000
  H   H1011     1.0  0.19633  0.85474  0.71301  1.0000
  C   C621      1.0  0.15218  0.89589  0.71321  1.0000
  C   C622      1.0  0.16665  0.90446  0.71050  1.0000
  C   C623      1.0  0.18017  0.89695  0.72074  1.0000
  C   C624      1.0  0.08475  0.96966  0.58527  1.0000
  H   H1012     1.0  0.16776  0.91648  0.70008  1.0000
  H   H1013     1.0  0.19165  0.90327  0.71824  1.0000
  C   C625      1.0  0.16761  0.77991  0.69801  1.0000
  C   C626      1.0  0.18494  0.77976  0.68714  1.0000
  C   C627      1.0  0.19860  0.78358  0.69348  1.0000
  H   H1014     1.0  0.18784  0.77669  0.67385  1.0000
  H   H1015     1.0  0.99557  0.72753  0.53158  1.0000
  C   C628      1.0  0.11251  0.93254  0.53210  1.0000
  C   C629      1.0  0.11538  0.94910  0.52087  1.0000
  H   H1016     1.0  0.12161  0.91093  0.55313  1.0000
  H   H1017     1.0  0.10683  0.95592  0.51122  1.0000
  C   C630      1.0  0.11775  0.82172  0.57483  1.0000
  C   C631      1.0  0.13165  0.83140  0.57032  1.0000
  C   C632      1.0  0.14709  0.82442  0.57799  1.0000
  C   C633      1.0  0.14857  0.80787  0.59032  1.0000
  C   C634      1.0  0.13469  0.79820  0.59473  1.0000
  C   C635      1.0  0.11938  0.80504  0.58692  1.0000
  H   H1018     1.0  0.13051  0.84426  0.56092  1.0000
  H   H1019     1.0  0.15779  0.83196  0.57455  1.0000
  H   H1020     1.0  0.13564  0.78548  0.60429  1.0000
  H   H1021     1.0  0.10860  0.79762  0.59076  1.0000
  C   C636      1.0  0.09072  0.90428  0.62064  1.0000
  C   C637      1.0  0.08981  0.90879  0.63712  1.0000
  C   C638      1.0  0.09763  0.92294  0.63754  1.0000
  C   C639      1.0  0.10635  0.93259  0.62146  1.0000
  C   C640      1.0  0.10800  0.92750  0.60510  1.0000
  C   C641      1.0  0.10014  0.91340  0.60467  1.0000
  H   H1022     1.0  0.08263  0.90167  0.64952  1.0000
  H   H1023     1.0  0.09639  0.92675  0.65022  1.0000
  H   H1024     1.0  0.11539  0.93444  0.59274  1.0000
  H   H1025     1.0  0.10128  0.90963  0.59199  1.0000
  C   C642      1.0  0.02632  0.88904  0.53503  1.0000
  H   H1026     1.0  0.03919  0.89260  0.53361  1.0000
  N   N63       1.0  0.03379  0.83004  0.56043  1.0000
  C   C643      1.0  0.02395  0.77677  0.53704  1.0000
  H   H1027     1.0  0.25588  0.66533  0.57077  1.0000
  H   H1028     1.0  0.01711  0.75105  0.54022  1.0000
  C   C644      1.0  0.99602  0.79073  0.51752  1.0000
  S   S255      1.0  0.04104  0.76854  0.54978  1.0000
  H   H1029     1.0  0.17121  0.74412  0.71589  1.0000
  H   H1030     1.0  0.16601  0.98173  0.67318  1.0000
  H   H1031     1.0  0.18919  0.96169  0.57689  1.0000
  N   N64       1.0  0.09420  0.76896  0.56468  1.0000
  H   H1032     1.0  0.07739  0.76398  0.59124  1.0000
  H   H1033     1.0  0.09906  0.74986  0.54764  1.0000
  C   C645      1.0  0.11059  0.96670  0.72281  1.0000
  C   C646      1.0  0.18189  0.73158  0.71706  1.0000
  C   C647      1.0  0.07895  0.76164  0.57741  1.0000
  Fe  Fe127     1.0  0.17269  0.73715  0.64186  1.0000
  H   H1034     1.0  0.16066  0.94196  0.57399  1.0000
  C   C648      1.0  0.14364  0.97488  0.58012  1.0000
  H   H1035     1.0  0.01432  0.83307  0.54407  1.0000
  H   H1036     1.0  0.07542  0.93957  0.58339  1.0000
  C   C649      1.0  0.09612  0.76473  0.54683  1.0000
  H   H1037     1.0  0.21083  0.70738  0.70475  1.0000
  C   C650      1.0  0.00009  0.77224  0.52489  1.0000
  H   H1038     1.0  0.15562  0.73062  0.70128  1.0000
  C   C651      1.0  0.00154  0.71296  0.53181  1.0000
  H   H1039     1.0  0.13134  0.96973  0.51340  1.0000
  H   H1040     1.0  0.00462  0.71084  0.51772  1.0000
  C   C652      1.0  0.01401  0.76528  0.53467  1.0000
  H   H1041     1.0  0.20400  0.82067  0.68528  1.0000
  C   C653      1.0  0.20269  0.84646  0.70254  1.0000
  C   C654      1.0  0.10405  0.73861  0.62658  1.0000
  H   H1042     1.0  0.07878  0.79560  0.55671  1.0000
  H   H1043     1.0  0.08341  0.77042  0.54152  1.0000
  C   C655      1.0  0.19853  0.83467  0.67858  1.0000
  H   H1044     1.0  0.09958  0.96481  0.58462  1.0000
  H   H1045     1.0  0.12566  0.67667  0.60497  1.0000
  C   C656      1.0  0.14047  0.94807  0.53438  1.0000
  C   C657      1.0  0.00466  0.88211  0.52152  1.0000
  H   H1046     1.0  0.21011  0.83996  0.66893  1.0000
  H   H1047     1.0  0.10242  0.79460  0.55449  1.0000
  S   S256      1.0  0.10543  0.75209  0.64088  1.0000
  C   C658      1.0  0.99795  0.88212  0.55357  1.0000
  H   H1048     1.0  0.02584  0.80458  0.56517  1.0000
  N   N65       1.0  0.10981  0.83631  0.63200  1.0000
  C   C659      1.0  0.12911  0.83063  0.63328  1.0000
  C   C660      1.0  0.10833  0.84715  0.61379  1.0000
  C   C661      1.0  0.09984  0.84730  0.64564  1.0000
  C   C662      1.0  0.10192  0.82020  0.63520  1.0000
  H   H1049     1.0  0.13080  0.82237  0.64684  1.0000
  H   H1050     1.0  0.13549  0.84248  0.63075  1.0000
  H   H1051     1.0  0.13701  0.82230  0.62313  1.0000
  H   H1052     1.0  0.11593  0.83940  0.60320  1.0000
  H   H1053     1.0  0.09398  0.85137  0.61221  1.0000
  H   H1054     1.0  0.11377  0.85966  0.61097  1.0000
  H   H1055     1.0  0.10078  0.83965  0.65957  1.0000
  H   H1056     1.0  0.08520  0.85177  0.64503  1.0000
  H   H1057     1.0  0.10517  0.85980  0.64336  1.0000
  H   H1058     1.0  0.08740  0.82404  0.63415  1.0000
  H   H1059     1.0  0.10272  0.81168  0.64885  1.0000
  H   H1060     1.0  0.10916  0.81161  0.62513  1.0000
  C   C663      1.0  0.12367  0.92374  0.54449  1.0000
  C   C664      1.0  0.19500  0.78783  0.71061  1.0000
  Fe  Fe128     1.0  0.15434  0.76575  0.66440  1.0000
  S   S257      1.0  0.21238  0.79319  0.71776  1.0000
  C   C665      1.0  0.15652  0.68273  0.60931  1.0000
  C   C666      1.0  0.13776  0.67400  0.59405  1.0000
  H   H1061     1.0  0.14643  0.92449  0.55500  1.0000
  H   H1062     1.0  0.16116  0.70921  0.71599  1.0000
  H   H1063     1.0  0.19413  0.87072  0.67301  1.0000
  C   C667      1.0  0.02118  0.88707  0.51982  1.0000
  H   H1064     1.0  0.01126  0.67905  0.54936  1.0000
  H   H1065     1.0  0.10983  0.76294  0.58530  1.0000
  S   S258      1.0  0.15037  0.77388  0.69122  1.0000
  H   H1066     1.0  0.16703  0.71100  0.69188  1.0000
  H   H1067     1.0  0.10732  0.77028  0.53675  1.0000
  C   C668      1.0  0.16403  0.78413  0.71515  1.0000
  H   H1068     1.0  0.16405  0.83809  0.69676  1.0000
  C   C669      1.0  0.17411  0.83882  0.70425  1.0000
  C   C670      1.0  0.11109  0.76066  0.57150  1.0000
  H   H1069     1.0  0.02805  0.80405  0.53062  1.0000
  H   H1070     1.0  0.16687  0.84729  0.71440  1.0000
  C   C671      1.0  0.18291  0.86475  0.68257  1.0000
  C   C672      1.0  0.15090  0.88028  0.72662  1.0000
  C   C673      1.0  0.09063  0.78874  0.56300  1.0000
  H   H1071     1.0  0.18892  0.83376  0.67065  1.0000
  S   S259      1.0  0.18081  0.96961  0.63943  1.0000
  H   H1072     1.0  0.12281  0.76632  0.56260  1.0000
  H   H1073     1.0  0.17259  0.86517  0.67486  1.0000
  H   H1074     1.0  0.17982  0.74597  0.68227  1.0000
  C   C674      1.0  0.01482  0.88634  0.55199  1.0000
  N   N66       1.0  0.26766  0.66355  0.59336  1.0000
  H   H1075     1.0  0.21442  0.85218  0.69380  1.0000
  C   C675      1.0  0.13770  0.93145  0.54554  1.0000
  N   N67       1.0  0.16039  0.96392  0.58597  1.0000
  S   S260      1.0  0.15794  0.95759  0.53610  1.0000
  C   C676      1.0  0.08617  0.67100  0.52948  1.0000
  H   H1076     1.0  0.11499  0.66286  0.52013  1.0000
  H   H1077     1.0  0.15809  0.69539  0.59916  1.0000
  C   C677      1.0  0.02010  0.79519  0.52932  1.0000
  H   H1078     1.0  0.10463  0.96987  0.55178  1.0000
  H   H1079     1.0  0.17639  0.87381  0.69231  1.0000
  H   H1080     1.0  0.21198  0.78340  0.68501  1.0000
  N   N68       1.0  0.18956  0.84619  0.69197  1.0000
  H   H1081     1.0  0.11178  0.95678  0.71493  1.0000
  C   C678      1.0  0.25807  0.68189  0.59602  1.0000
  H   H1082     1.0  0.17871  0.82497  0.71179  1.0000
  C   C679      1.0  0.12922  0.95695  0.52212  1.0000
  C   C680      1.0  0.00614  0.80218  0.51963  1.0000
  H   H1083     1.0  0.02416  0.83060  0.58868  1.0000
  H   H1084     1.0  0.08788  0.79245  0.57640  1.0000
  H   H1085     1.0  0.20813  0.83262  0.70966  1.0000
  H   H1086     1.0  0.00345  0.81637  0.51346  1.0000
  H   H1087     1.0  0.01479  0.70995  0.53601  1.0000
  H   H1088     1.0  0.99764  0.70260  0.56772  1.0000
  H   H1089     1.0  0.21173  0.65846  0.61434  1.0000
  C   C681      1.0  0.05022  0.83691  0.55905  1.0000
  H   H1090     1.0  0.17792  0.72316  0.73063  1.0000
  C   C682      1.0  0.00503  0.66278  0.58743  1.0000
  H   H1091     1.0  0.16830  0.65534  0.49863  1.0000
  H   H1092     1.0  0.17301  0.95870  0.60875  1.0000
  N   N69       1.0  0.15472  0.66848  0.60095  1.0000
  H   H1093     1.0  0.17344  0.93593  0.59154  1.0000
  C   C683      1.0  0.26941  0.66239  0.57440  1.0000
  H   H1094     1.0  0.26562  0.69232  0.58722  1.0000
  H   H1095     1.0  0.17082  0.67808  0.57508  1.0000
  C   C684      1.0  0.02712  0.83728  0.54342  1.0000
  C   C685      1.0  0.28590  0.65960  0.59754  1.0000
  H   H1096     1.0  0.16032  0.98127  0.60337  1.0000
  N   N70       1.0  0.07928  0.96638  0.56983  1.0000
  C   C686      1.0  0.17029  0.66565  0.58583  1.0000
  H   H1097     1.0  0.04362  0.80413  0.57614  1.0000
  C   C687      1.0  0.99834  0.68217  0.54454  1.0000
  H   H1098     1.0  0.28516  0.65956  0.61195  1.0000
  H   H1099     1.0  0.05145  0.96747  0.58343  1.0000
  S   S261      1.0  0.13037  0.97670  0.64841  1.0000
  H   H1100     1.0  0.08628  0.97263  0.54080  1.0000
  H   H1101     1.0  0.00177  0.67883  0.53092  1.0000
  H   H1102     1.0  0.05519  0.97145  0.55926  1.0000
  C   C688      1.0  0.08980  0.97516  0.55275  1.0000
  C   C689      1.0  0.05972  0.97387  0.57069  1.0000
  H   H1103     1.0  0.16976  0.65456  0.57956  1.0000
  H   H1104     1.0  0.08159  0.98428  0.58557  1.0000
  H   H1105     1.0  0.17595  0.98402  0.57106  1.0000
  H   H1106     1.0  0.17471  0.79133  0.73467  1.0000
  C   C690      1.0  0.25395  0.78575  0.96618  1.0000
  C   C691      1.0  0.24747  0.80328  0.93741  1.0000
  Fe  Fe129     1.0  0.32136  0.84089  0.95397  1.0000
  C   C692      1.0  0.22701  0.76717  0.84014  1.0000
  C   C693      1.0  0.30331  0.78723  0.77679  1.0000
  S   S262      1.0  0.24153  0.79604  0.79377  1.0000
  C   C694      1.0  0.20070  0.77831  0.82656  1.0000
  H   H1107     1.0  0.26330  0.82695  0.86086  1.0000
  Fe  Fe130     1.0  0.19677  0.84829  0.88547  1.0000
  S   S263      1.0  0.17964  0.83000  0.90533  1.0000
  S   S264      1.0  0.22723  0.84071  0.88251  1.0000
  Fe  Fe131     1.0  0.16453  0.87291  0.87021  1.0000
  S   S265      1.0  0.14486  0.85652  0.88901  1.0000
  S   S266      1.0  0.15437  0.89473  0.84773  1.0000
  Fe  Fe132     1.0  0.15992  0.85553  0.91025  1.0000
  S   S267      1.0  0.14686  0.86042  0.93848  1.0000
  Fe  Fe133     1.0  0.16620  0.83261  0.88234  1.0000
  S   S268      1.0  0.15888  0.80854  0.87749  1.0000
  S   S269      1.0  0.17809  0.87401  0.89192  1.0000
  S   S270      1.0  0.18491  0.84880  0.86204  1.0000
  H   H1108     1.0  0.13139  0.89737  0.88731  1.0000
  S   S271      1.0  0.19826  0.82762  0.78376  1.0000
  H   H1109     1.0  0.26381  0.79934  0.84022  1.0000
  H   H1110     1.0  0.17051  0.88429  0.80027  1.0000
  H   H1111     1.0  0.28512  0.83768  0.81228  1.0000
  H   H1112     1.0  0.23788  0.81414  0.93025  1.0000
  C   C695      1.0  0.29275  0.79357  0.76351  1.0000
  Fe  Fe134     1.0  0.18164  0.81062  0.77893  1.0000
  S   S272      1.0  0.15666  0.80403  0.79890  1.0000
  S   S273      1.0  0.20529  0.78856  0.77165  1.0000
  H   H1113     1.0  0.19623  0.75737  0.86002  1.0000
  H   H1114     1.0  0.21778  0.80326  0.82814  1.0000
  H   H1115     1.0  0.19959  0.76445  0.82649  1.0000
  C   C696      1.0  0.10767  0.84334  0.97997  1.0000
  C   C697      1.0  0.23916  0.81717  0.96338  1.0000
  Fe  Fe135     1.0  0.22217  0.80669  0.77448  1.0000
  H   H1116     1.0  0.09973  0.91294  0.88614  1.0000
  H   H1117     1.0  0.13241  0.91251  0.90068  1.0000
  S   S274      1.0  0.11414  0.96617  0.77356  1.0000
  H   H1118     1.0  0.08314  0.91478  0.90671  1.0000
  S   S275      1.0  0.31097  0.84971  0.92818  1.0000
  H   H1119     1.0  0.22675  0.75298  0.84031  1.0000
  Fe  Fe136     1.0  0.28488  0.84270  0.94530  1.0000
  S   S276      1.0  0.29215  0.81410  0.94156  1.0000
  S   S277      1.0  0.25649  0.85783  0.94334  1.0000
  H   H1120     1.0  0.29929  0.79618  0.74940  1.0000
  N   N71       1.0  0.10955  0.89950  0.91043  1.0000
  C   C698      1.0  0.10516  0.88210  0.91080  1.0000
  C   C699      1.0  0.26523  0.79299  0.78667  1.0000
  H   H1121     1.0  0.22393  0.78257  0.95739  1.0000
  Fe  Fe137     1.0  0.30284  0.80859  0.96676  1.0000
  C   C700      1.0  0.22307  0.79522  0.96190  1.0000
  S   S278      1.0  0.29431  0.83691  0.97150  1.0000
  H   H1122     1.0  0.16534  0.90651  0.80505  1.0000
  H   H1123     1.0  0.13804  0.88862  0.90872  1.0000
  C   C701      1.0  0.19710  0.77158  0.85901  1.0000
  H   H1124     1.0  0.30569  0.79816  0.90890  1.0000
  C   C702      1.0  0.12867  0.89951  0.90138  1.0000
  C   C703      1.0  0.26548  0.83096  0.84588  1.0000
  H   H1125     1.0  0.31600  0.87288  0.97911  1.0000
  H   H1126     1.0  0.23376  0.81567  0.97815  1.0000
  H   H1127     1.0  0.26077  0.80748  0.93332  1.0000
  H   H1128     1.0  0.27610  0.79496  0.85800  1.0000
  H   H1129     1.0  0.11550  0.89081  0.93703  1.0000
  H   H1130     1.0  0.30569  0.75274  0.76661  1.0000
  H   H1131     1.0  0.29434  0.81462  0.81030  1.0000
  C   C704      1.0  0.32030  0.78100  0.87058  1.0000
  C   C705      1.0  0.10010  0.83315  0.97267  1.0000
  H   H1132     1.0  0.26750  0.78931  0.96332  1.0000
  N   N72       1.0  0.20860  0.77861  0.84173  1.0000
  H   H1133     1.0  0.14689  0.89755  0.76169  1.0000
  H   H1134     1.0  0.30273  0.77930  0.80532  1.0000
  H   H1135     1.0  0.10702  0.87978  0.89693  1.0000
  H   H1136     1.0  0.26932  0.78385  0.81397  1.0000
  C   C706      1.0  0.12917  0.84940  0.95147  1.0000
  C   C707      1.0  0.12190  0.83888  0.94427  1.0000
  C   C708      1.0  0.10720  0.83104  0.95475  1.0000
  H   H1137     1.0  0.12744  0.83691  0.93058  1.0000
  H   H1138     1.0  0.10142  0.82315  0.94904  1.0000
  C   C709      1.0  0.14707  0.91778  0.84867  1.0000
  C   C710      1.0  0.13813  0.92930  0.83530  1.0000
  C   C711      1.0  0.13205  0.94776  0.83538  1.0000
  C   C712      1.0  0.13470  0.95490  0.84893  1.0000
  C   C713      1.0  0.14370  0.94342  0.86234  1.0000
  C   C714      1.0  0.14999  0.92488  0.86214  1.0000
  H   H1139     1.0  0.13581  0.92393  0.82485  1.0000
  N   N73       1.0  0.28065  0.81824  0.83714  1.0000
  H   H1140     1.0  0.14599  0.94890  0.87273  1.0000
  H   H1141     1.0  0.15733  0.91617  0.87220  1.0000
  C   C715      1.0  0.15548  0.80977  0.85579  1.0000
  C   C716      1.0  0.16136  0.82285  0.84098  1.0000
  C   C717      1.0  0.16127  0.82157  0.82339  1.0000
  C   C718      1.0  0.15481  0.80752  0.82067  1.0000
  C   C719      1.0  0.14786  0.79519  0.83559  1.0000
  C   C720      1.0  0.14840  0.79618  0.85306  1.0000
  H   H1142     1.0  0.16659  0.83354  0.84298  1.0000
  H   H1143     1.0  0.16618  0.83143  0.81197  1.0000
  H   H1144     1.0  0.14273  0.78439  0.83358  1.0000
  H   H1145     1.0  0.14370  0.78612  0.86447  1.0000
  C   C721      1.0  0.23528  0.84589  0.89923  1.0000
  C   C722      1.0  0.25385  0.84099  0.89939  1.0000
  C   C723      1.0  0.26049  0.84482  0.91277  1.0000
  C   C724      1.0  0.24858  0.85364  0.92600  1.0000
  C   C725      1.0  0.23002  0.85858  0.92583  1.0000
  C   C726      1.0  0.22335  0.85459  0.91255  1.0000
  H   H1146     1.0  0.26317  0.83425  0.88917  1.0000
  H   H1147     1.0  0.27485  0.84116  0.91268  1.0000
  H   H1148     1.0  0.22077  0.86547  0.93601  1.0000
  H   H1149     1.0  0.20901  0.85840  0.91254  1.0000
  H   H1150     1.0  0.18302  0.77963  0.86045  1.0000
  H   H1151     1.0  0.10069  0.92774  0.89982  1.0000
  S   S279      1.0  0.12683  0.97812  0.84904  1.0000
  N   N74       1.0  0.24093  0.80034  0.95721  1.0000
  C   C727      1.0  0.31425  0.79517  0.89635  1.0000
  H   H1152     1.0  0.11007  0.91485  0.92945  1.0000
  H   H1153     1.0  0.29772  0.73422  0.78300  1.0000
  H   H1154     1.0  0.20895  0.78361  0.81329  1.0000
  C   C728      1.0  0.29476  0.78396  0.79499  1.0000
  H   H1155     1.0  0.16026  0.87918  0.77470  1.0000
  C   C729      1.0  0.27370  0.79650  0.76844  1.0000
  C   C730      1.0  0.09771  0.91441  0.90037  1.0000
  S   S280      1.0  0.32715  0.78256  0.77049  1.0000
  H   H1156     1.0  0.19589  0.80623  0.84274  1.0000
  H   H1157     1.0  0.31926  0.70588  0.79143  1.0000
  H   H1158     1.0  0.29639  0.78054  0.89177  1.0000
  H   H1159     1.0  0.12719  0.86014  0.97481  1.0000
  H   H1160     1.0  0.28774  0.79000  0.83639  1.0000
  C   C731      1.0  0.12192  0.85170  0.96929  1.0000
  Fe  Fe138     1.0  0.19985  0.84031  0.75449  1.0000
  H   H1161     1.0  0.21566  0.79816  0.85232  1.0000
  N   N75       1.0  0.15662  0.90498  0.78157  1.0000
  C   C732      1.0  0.14996  0.89197  0.77542  1.0000
  Fe  Fe139     1.0  0.31920  0.82039  0.92688  1.0000
  H   H1162     1.0  0.07863  0.98527  0.77883  1.0000
  C   C733      1.0  0.17355  0.90886  0.76904  1.0000
  H   H1163     1.0  0.14773  0.89408  0.80983  1.0000
  H   H1164     1.0  0.31124  0.71423  0.76081  1.0000
  S   S281      1.0  0.22542  0.82096  0.74536  1.0000
  H   H1165     1.0  0.18688  0.78687  0.82732  1.0000
  C   C734      1.0  0.11146  0.97372  0.75105  1.0000
  S   S282      1.0  0.31366  0.76880  0.85841  1.0000
  H   H1166     1.0  0.06192  0.97192  0.78999  1.0000
  S   S283      1.0  0.19719  0.87046  0.74486  1.0000
  H   H1167     1.0  0.12976  0.91951  0.79102  1.0000
  C   C735      1.0  0.16021  0.89713  0.79994  1.0000
  H   H1168     1.0  0.17143  0.91434  0.75495  1.0000
  H   H1169     1.0  0.11592  0.94675  0.74652  1.0000
  H   H1170     1.0  0.09245  0.90195  0.93644  1.0000
  H   H1171     1.0  0.30923  0.80851  0.83637  1.0000
  C   C736      1.0  0.27685  0.79984  0.84320  1.0000
  H   H1172     1.0  0.11405  0.87059  0.91811  1.0000
  C   C737      1.0  0.10673  0.90194  0.92915  1.0000
  C   C738      1.0  0.30905  0.78517  0.88669  1.0000
  C   C739      1.0  0.14280  0.92190  0.78184  1.0000
  H   H1173     1.0  0.21774  0.79285  0.97676  1.0000
  C   C740      1.0  0.11293  0.96103  0.74072  1.0000
  H   H1174     1.0  0.09091  0.88145  0.91781  1.0000
  H   H1175     1.0  0.13737  0.88842  0.78470  1.0000
  H   H1176     1.0  0.25250  0.82115  0.96057  1.0000
  H   H1177     1.0  0.23336  0.76707  0.85139  1.0000
  Fe  Fe140     1.0  0.20645  0.80447  0.74316  1.0000
  H   H1178     1.0  0.23605  0.77213  0.82726  1.0000
  C   C741      1.0  0.27581  0.78670  0.79989  1.0000
  H   H1179     1.0  0.26560  0.80139  0.75816  1.0000
  C   C742      1.0  0.20959  0.79736  0.84121  1.0000
  H   H1180     1.0  0.25248  0.83146  0.84215  1.0000
  H   H1181     1.0  0.12528  0.95645  0.82489  1.0000
  C   C743      1.0  0.28269  0.82368  0.81730  1.0000
  H   H1182     1.0  0.26802  0.84494  0.84205  1.0000
  C   C744      1.0  0.29760  0.81842  0.84223  1.0000
  H   H1183     1.0  0.18436  0.89640  0.76871  1.0000
  H   H1184     1.0  0.05323  0.97370  0.76134  1.0000
  H   H1185     1.0  0.30120  0.83197  0.83751  1.0000
  H   H1186     1.0  0.27035  0.82315  0.81291  1.0000
  C   C745      1.0  0.30951  0.74094  0.77737  1.0000
  H   H1187     1.0  0.29639  0.81476  0.85715  1.0000
  H   H1188     1.0  0.13986  0.92831  0.76816  1.0000
  N   N76       1.0  0.32599  0.72838  0.77034  1.0000
  S   S284      1.0  0.09200  0.98336  0.81785  1.0000
  H   H1189     1.0  0.17884  0.91887  0.77303  1.0000
  C   C746      1.0  0.32263  0.72156  0.75579  1.0000
  H   H1190     1.0  0.20226  0.77217  0.87080  1.0000
  H   H1191     1.0  0.23000  0.82869  0.95643  1.0000
  H   H1192     1.0  0.21294  0.80595  0.95532  1.0000
  H   H1193     1.0  0.14727  0.93202  0.78654  1.0000
  H   H1194     1.0  0.25596  0.77290  0.96162  1.0000
  H   H1195     1.0  0.16316  0.86085  0.74720  1.0000
  H   H1196     1.0  0.31914  0.73280  0.74444  1.0000
  S   S285      1.0  0.18122  0.82488  0.75022  1.0000
  H   H1197     1.0  0.24920  0.79083  0.93224  1.0000
  H   H1198     1.0  0.18947  0.82907  0.98128  1.0000
  C   C747      1.0  0.16437  0.87281  0.73681  1.0000
  H   H1199     1.0  0.31162  0.74645  0.78826  1.0000
  H   H1200     1.0  0.02977  0.98448  0.78680  1.0000
  C   C748      1.0  0.06406  0.98602  0.78511  1.0000
  H   H1201     1.0  0.07075  0.98600  0.74980  1.0000
  H   H1202     1.0  0.24926  0.78302  0.98113  1.0000
  C   C749      1.0  0.17926  0.88085  0.73358  1.0000
  H   H1203     1.0  0.37836  0.05192  0.17207  1.0000
  H   H1204     1.0  0.61736  0.25210  0.08258  1.0000
  S   S286      1.0  0.59707  0.06175  0.01588  1.0000
  N   N77       1.0  0.40800  0.10992  0.21312  1.0000
  Fe  Fe141     1.0  0.59667  0.11232  0.01316  1.0000
  S   S287      1.0  0.59283  0.09287  0.03954  1.0000
  S   S288      1.0  0.59754  0.14145  0.00982  1.0000
  Fe  Fe142     1.0  0.61543  0.07393  0.02534  1.0000
  S   S289      1.0  0.64162  0.06029  0.03439  1.0000
  Fe  Fe143     1.0  0.57478  0.08289  0.02771  1.0000
  S   S290      1.0  0.54580  0.08241  0.04210  1.0000
  S   S291      1.0  0.62039  0.09422  0.99967  1.0000
  S   S292      1.0  0.57691  0.10405  0.00223  1.0000
  H   H1205     1.0  0.44646  0.07681  0.10237  1.0000
  H   H1206     1.0  0.43018  0.23135  0.08378  1.0000
  H   H1207     1.0  0.54475  0.16791  0.03721  1.0000
  C   C750      1.0  0.41918  0.10262  0.22703  1.0000
  H   H1208     1.0  0.63464  0.21969  0.10895  1.0000
  H   H1209     1.0  0.62576  0.09368  0.08325  1.0000
  C   C751      1.0  0.38762  0.00677  0.17306  1.0000
  H   H1210     1.0  0.64733  0.12281  0.11154  1.0000
  H   H1211     1.0  0.53919  0.31262  0.07172  1.0000
  Fe  Fe144     1.0  0.45983  0.14449  0.09731  1.0000
  S   S293      1.0  0.44113  0.16081  0.07898  1.0000
  S   S294      1.0  0.48818  0.14805  0.09513  1.0000
  Fe  Fe145     1.0  0.43438  0.11872  0.11724  1.0000
  S   S295      1.0  0.41325  0.13281  0.10061  1.0000
  S   S296      1.0  0.43534  0.09249  0.13804  1.0000
  Fe  Fe146     1.0  0.43673  0.13422  0.07707  1.0000
  S   S297      1.0  0.43528  0.13255  0.04931  1.0000
  Fe  Fe147     1.0  0.41900  0.15850  0.10368  1.0000
  S   S298      1.0  0.45744  0.11797  0.09313  1.0000
  S   S299      1.0  0.43814  0.14428  0.12258  1.0000
  H   H1212     1.0  0.40099  0.20926  0.04452  1.0000
  H   H1213     1.0  0.43079  0.11200  0.19080  1.0000
  H   H1214     1.0  0.39401  0.18162  0.04036  1.0000
  Fe  Fe148     1.0  0.44773  0.03413  0.04555  1.0000
  S   S300      1.0  0.46539  0.03638  0.06294  1.0000
  S   S301      1.0  0.43179  0.05938  0.03124  1.0000
  Fe  Fe149     1.0  0.48582  0.01525  0.04986  1.0000
  H   H1215     1.0  0.47832  0.06205  0.07438  1.0000
  S   S302      1.0  0.47606  0.99227  0.07062  1.0000
  H   H1216     1.0  0.47678  0.03262  0.09619  1.0000
  S   S303      1.0  0.46912  0.01473  0.03057  1.0000
  S   S304      1.0  0.43470  0.01264  0.06570  1.0000
  S   S305      1.0  0.61591  0.22245  0.15110  1.0000
  H   H1217     1.0  0.37408  0.15817  0.03139  1.0000
  C   C752      1.0  0.36842  0.16349  0.04404  1.0000
  H   H1218     1.0  0.41120  0.18724  0.07064  1.0000
  Fe  Fe150     1.0  0.57009  0.20232  0.07280  1.0000
  S   S306      1.0  0.55017  0.21718  0.09317  1.0000
  S   S307      1.0  0.58472  0.17346  0.07938  1.0000
  C   C753      1.0  0.55958  0.06959  0.99106  1.0000
  H   H1219     1.0  0.64604  0.23888  0.05177  1.0000
  S   S308      1.0  0.36762  0.07853  0.20099  1.0000
  C   C754      1.0  0.64018  0.22888  0.06322  1.0000
  Fe  Fe151     1.0  0.53302  0.22649  0.07211  1.0000
  C   C755      1.0  0.58381  0.23173  0.11524  1.0000
  S   S309      1.0  0.58488  0.22486  0.05953  1.0000
  S   S310      1.0  0.55184  0.20975  0.05303  1.0000
  H   H1220     1.0  0.40808  0.16454  0.05383  1.0000
  H   H1221     1.0  0.64745  0.21514  0.06098  1.0000
  S   S311      1.0  0.49919  0.31683  0.01427  1.0000
  H   H1222     1.0  0.64027  0.13555  0.08095  1.0000
  H   H1223     1.0  0.36965  0.18133  0.06873  1.0000
  H   H1224     1.0  0.43172  0.06576  0.17058  1.0000
  C   C756      1.0  0.39881  0.19709  0.07280  1.0000
  H   H1225     1.0  0.35625  0.15768  0.05123  1.0000
  H   H1226     1.0  0.37583  0.04065  0.15578  1.0000
  C   C757      1.0  0.63430  0.14870  0.08524  1.0000
  H   H1227     1.0  0.64805  0.11286  0.04005  1.0000
  H   H1228     1.0  0.36214  0.16067  0.08010  1.0000
  C   C758      1.0  0.39296  0.20956  0.05800  1.0000
  C   C759      1.0  0.39104  0.02207  0.19477  1.0000
  H   H1229     1.0  0.43171  0.10821  0.22329  1.0000
  H   H1230     1.0  0.55507  0.31397  0.11235  1.0000
  S   S312      1.0  0.51589  0.01476  0.04148  1.0000
  C   C760      1.0  0.48105  0.06712  0.08524  1.0000
  C   C761      1.0  0.42581  0.24611  0.08359  1.0000
  H   H1231     1.0  0.39563  0.08687  0.21960  1.0000
  H   H1232     1.0  0.41150  0.03964  0.16583  1.0000
  C   C762      1.0  0.38664  0.08243  0.18376  1.0000
  C   C763      1.0  0.40375  0.07136  0.18438  1.0000
  C   C764      1.0  0.41853  0.07448  0.17014  1.0000
  C   C765      1.0  0.41641  0.08898  0.15546  1.0000
  C   C766      1.0  0.39937  0.10023  0.15497  1.0000
  C   C767      1.0  0.38448  0.09681  0.16899  1.0000
  C   C768      1.0  0.40859  0.02698  0.16428  1.0000
  H   H1233     1.0  0.39760  0.11140  0.14367  1.0000
  H   H1234     1.0  0.37125  0.10540  0.16840  1.0000
  C   C769      1.0  0.43424  0.11186  0.04518  1.0000
  C   C770      1.0  0.43138  0.11166  0.02831  1.0000
  C   C771      1.0  0.43042  0.09552  0.02435  1.0000
  C   C772      1.0  0.43259  0.07938  0.03710  1.0000
  C   C773      1.0  0.43518  0.07957  0.05415  1.0000
  C   C774      1.0  0.43596  0.09585  0.05823  1.0000
  H   H1235     1.0  0.43002  0.12400  0.01820  1.0000
  H   H1236     1.0  0.42831  0.09547  0.01122  1.0000
  H   H1237     1.0  0.43618  0.06726  0.06427  1.0000
  H   H1238     1.0  0.43792  0.09602  0.07136  1.0000
  C   C775      1.0  0.49162  0.17025  0.09073  1.0000
  C   C776      1.0  0.47798  0.18520  0.08640  1.0000
  C   C777      1.0  0.48148  0.20274  0.08218  1.0000
  C   C778      1.0  0.49864  0.20532  0.08218  1.0000
  C   C779      1.0  0.51219  0.19038  0.08662  1.0000
  C   C780      1.0  0.50862  0.17292  0.09103  1.0000
  H   H1239     1.0  0.46479  0.18324  0.08625  1.0000
  H   H1240     1.0  0.47094  0.21427  0.07883  1.0000
  H   H1241     1.0  0.52537  0.19226  0.08690  1.0000
  H   H1242     1.0  0.51910  0.16145  0.09473  1.0000
  H   H1243     1.0  0.65586  0.18854  0.11948  1.0000
  H   H1244     1.0  0.47088  0.08082  0.11517  1.0000
  C   C781      1.0  0.59351  0.22350  0.12904  1.0000
  C   C782      1.0  0.50515  0.26600  0.00495  1.0000
  H   H1245     1.0  0.62575  0.23034  0.06257  1.0000
  N   N78       1.0  0.65537  0.12237  0.01140  1.0000
  H   H1246     1.0  0.52034  0.23295  0.03848  1.0000
  S   S313      1.0  0.39566  0.18186  0.10906  1.0000
  H   H1247     1.0  0.40897  0.02827  0.14967  1.0000
  H   H1248     1.0  0.42164  0.99636  0.14284  1.0000
  C   C783      1.0  0.53748  0.06324  0.04313  1.0000
  C   C784      1.0  0.54926  0.04669  0.04150  1.0000
  C   C785      1.0  0.54235  0.03172  0.04169  1.0000
  C   C786      1.0  0.52373  0.03329  0.04320  1.0000
  C   C787      1.0  0.51194  0.04980  0.04504  1.0000
  C   C788      1.0  0.51879  0.06472  0.04515  1.0000
  H   H1249     1.0  0.56366  0.04538  0.04020  1.0000
  N   N79       1.0  0.55130  0.05786  0.98488  1.0000
  H   H1250     1.0  0.49764  0.05125  0.04577  1.0000
  H   H1251     1.0  0.50966  0.07756  0.04625  1.0000
  C   C789      1.0  0.59538  0.14976  0.02924  1.0000
  C   C790      1.0  0.59597  0.13826  0.04614  1.0000
  C   C791      1.0  0.59334  0.14549  0.06152  1.0000
  C   C792      1.0  0.58997  0.16423  0.06001  1.0000
  C   C793      1.0  0.59010  0.17561  0.04304  1.0000
  C   C794      1.0  0.59279  0.16840  0.02770  1.0000
  H   H1252     1.0  0.59837  0.12385  0.04744  1.0000
  H   H1253     1.0  0.59337  0.13660  0.07460  1.0000
  H   H1254     1.0  0.58810  0.19005  0.04165  1.0000
  H   H1255     1.0  0.59257  0.17736  0.01465  1.0000
  H   H1256     1.0  0.44904  0.05656  0.09421  1.0000
  C   C795      1.0  0.36687  0.22321  0.07802  1.0000
  H   H1257     1.0  0.53425  0.16590  0.06070  1.0000
  H   H1258     1.0  0.65904  0.30716  0.17921  1.0000
  H   H1259     1.0  0.60649  0.13296  0.12412  1.0000
  H   H1260     1.0  0.44527  0.05569  0.11793  1.0000
  H   H1261     1.0  0.63480  0.13433  0.03155  1.0000
  C   C796      1.0  0.63259  0.07922  0.06161  1.0000
  C   C797      1.0  0.64655  0.07078  0.04943  1.0000
  H   H1262     1.0  0.65232  0.14389  0.11163  1.0000
  H   H1263     1.0  0.46898  0.06008  0.13101  1.0000
  C   C798      1.0  0.63189  0.24993  0.08321  1.0000
  H   H1264     1.0  0.61870  0.07876  0.06231  1.0000
  H   H1265     1.0  0.64518  0.15664  0.08130  1.0000
  C   C799      1.0  0.40224  0.12972  0.21122  1.0000
  H   H1266     1.0  0.55150  0.01891  0.04044  1.0000
  H   H1267     1.0  0.43570  0.25301  0.07284  1.0000
  H   H1268     1.0  0.55921  0.31817  0.05599  1.0000
  H   H1269     1.0  0.55750  0.15549  0.05410  1.0000
  S   S314      1.0  0.44402  0.01440  0.11170  1.0000
  H   H1270     1.0  0.39801  0.13520  0.06905  1.0000
  H   H1271     1.0  0.49067  0.06323  0.11697  1.0000
  H   H1272     1.0  0.60121  0.14237  0.10221  1.0000
  H   H1273     1.0  0.40562  0.06031  0.19570  1.0000
  H   H1274     1.0  0.36379  0.17838  0.04011  1.0000
  S   S315      1.0  0.50315  0.22721  0.07631  1.0000
  N   N80       1.0  0.62672  0.14607  0.10487  1.0000
  C   C800      1.0  0.64121  0.13634  0.11490  1.0000
  C   C801      1.0  0.61247  0.13535  0.10941  1.0000
  C   C802      1.0  0.61893  0.16385  0.10991  1.0000
  C   C803      1.0  0.63662  0.08754  0.07357  1.0000
  H   H1275     1.0  0.53678  0.31012  0.10464  1.0000
  H   H1276     1.0  0.55190  0.27327  0.02298  1.0000
  H   H1277     1.0  0.59415  0.20933  0.13502  1.0000
  C   C804      1.0  0.41873  0.10561  0.19566  1.0000
  H   H1278     1.0  0.61799  0.12194  0.10552  1.0000
  C   C805      1.0  0.37634  0.03895  0.17021  1.0000
  C   C806      1.0  0.61181  0.30537  0.13225  1.0000
  H   H1279     1.0  0.61288  0.16243  0.12459  1.0000
  N   N81       1.0  0.53843  0.14186  0.05037  1.0000
  C   C807      1.0  0.55127  0.13301  0.03616  1.0000
  C   C808      1.0  0.53855  0.12940  0.06809  1.0000
  C   C809      1.0  0.51996  0.14643  0.04663  1.0000
  C   C810      1.0  0.54394  0.15852  0.05060  1.0000
  H   H1280     1.0  0.55194  0.14210  0.02260  1.0000
  H   H1281     1.0  0.54737  0.12054  0.03539  1.0000
  H   H1282     1.0  0.56524  0.12906  0.03880  1.0000
  H   H1283     1.0  0.55217  0.12596  0.07159  1.0000
  H   H1284     1.0  0.52860  0.13542  0.07909  1.0000
  H   H1285     1.0  0.53489  0.11650  0.06817  1.0000
  H   H1286     1.0  0.51536  0.13411  0.04652  1.0000
  H   H1287     1.0  0.51934  0.15575  0.03334  1.0000
  H   H1288     1.0  0.50994  0.15311  0.05716  1.0000
  H   H1289     1.0  0.49603  0.06447  0.08378  1.0000
  H   H1290     1.0  0.37612  0.13260  0.06800  1.0000
  H   H1291     1.0  0.39388  0.13562  0.20071  1.0000
  C   C811      1.0  0.38861  0.19744  0.09027  1.0000
  C   C812      1.0  0.38774  0.13909  0.06043  1.0000
  H   H1292     1.0  0.38411  0.16329  0.08087  1.0000
  N   N82       1.0  0.38205  0.15893  0.05545  1.0000
  C   C813      1.0  0.37411  0.16637  0.07200  1.0000
  C   C814      1.0  0.39795  0.16682  0.04529  1.0000
  H   H1293     1.0  0.38737  0.00746  0.15874  1.0000
  N   N83       1.0  0.39091  0.02368  0.17557  1.0000
  C   C815      1.0  0.37261  0.21055  0.09284  1.0000
  H   H1294     1.0  0.36462  0.21089  0.10633  1.0000
  H   H1295     1.0  0.52223  0.23201  0.01538  1.0000
  C   C816      1.0  0.62721  0.31289  0.12432  1.0000
  C   C817      1.0  0.63371  0.21808  0.09547  1.0000
  C   C818      1.0  0.64173  0.12083  0.02847  1.0000
  C   C819      1.0  0.37700  0.22264  0.06054  1.0000
  H   H1296     1.0  0.62947  0.17213  0.10672  1.0000
  H   H1297     1.0  0.47281  0.03178  0.11983  1.0000
  C   C820      1.0  0.47937  0.03876  0.10639  1.0000
  H   H1298     1.0  0.62367  0.15604  0.07731  1.0000
  H   H1299     1.0  0.47606  0.08201  0.08254  1.0000
  Fe  Fe152     1.0  0.60044  0.08381  0.99122  1.0000
  H   H1300     1.0  0.41991  0.01570  0.16793  1.0000
  H   H1301     1.0  0.41412  0.13635  0.20724  1.0000
  H   H1302     1.0  0.41569  0.25689  0.05154  1.0000
  C   C821      1.0  0.45238  0.06206  0.10447  1.0000
  H   H1303     1.0  0.49427  0.03549  0.10559  1.0000
  H   H1304     1.0  0.57703  0.22388  0.11060  1.0000
  H   H1305     1.0  0.65634  0.13492  0.98339  1.0000
  Fe  Fe153     1.0  0.45408  0.01347  0.08214  1.0000
  N   N84       1.0  0.47217  0.05846  0.10331  1.0000
  C   C822      1.0  0.47589  0.06593  0.11723  1.0000
  C   C823      1.0  0.39453  0.24348  0.09491  1.0000
  H   H1306     1.0  0.50322  0.26068  0.04986  1.0000
  H   H1307     1.0  0.39414  0.13304  0.04828  1.0000
  C   C824      1.0  0.64641  0.13314  0.99643  1.0000
  H   H1308     1.0  0.40206  0.01090  0.19926  1.0000
  H   H1309     1.0  0.60803  0.17167  0.10250  1.0000
  H   H1310     1.0  0.49315  0.27727  0.00388  1.0000
  H   H1311     1.0  0.51550  0.27455  0.03128  1.0000
  H   H1312     1.0  0.58529  0.30192  0.08165  1.0000
  C   C825      1.0  0.48814  0.24762  0.02985  1.0000
  H   H1313     1.0  0.42335  0.08762  0.22914  1.0000
  H   H1314     1.0  0.52854  0.05828  0.00724  1.0000
  H   H1315     1.0  0.52501  0.07553  0.98766  1.0000
  H   H1316     1.0  0.39834  0.99495  0.17702  1.0000
  H   H1317     1.0  0.64075  0.20410  0.09395  1.0000
  N   N85       1.0  0.64172  0.23161  0.08074  1.0000
  H   H1318     1.0  0.49115  0.27893  0.03553  1.0000
  H   H1319     1.0  0.53330  0.24681  0.02071  1.0000
  Fe  Fe154     1.0  0.56485  0.23374  0.04139  1.0000
  H   H1320     1.0  0.63607  0.12656  0.99469  1.0000
  H   H1321     1.0  0.50553  0.25724  0.99563  1.0000
  H   H1322     1.0  0.55789  0.29405  0.10366  1.0000
  S   S316      1.0  0.37018  0.23784  0.04153  1.0000
  H   H1323     1.0  0.55714  0.03525  0.00631  1.0000
  C   C826      1.0  0.39662  0.31058  0.04437  1.0000
  H   H1324     1.0  0.35444  0.23318  0.08008  1.0000
  C   C827      1.0  0.65462  0.08788  0.07308  1.0000
  H   H1325     1.0  0.42836  0.99074  0.03098  1.0000
  H   H1326     1.0  0.55310  0.02947  0.98720  1.0000
  H   H1327     1.0  0.42693  0.24825  0.09675  1.0000
  H   H1328     1.0  0.41161  0.28014  0.07013  1.0000
  H   H1329     1.0  0.38819  0.27851  0.07710  1.0000
  H   H1330     1.0  0.56026  0.29650  0.07100  1.0000
  H   H1331     1.0  0.63919  0.14679  0.99898  1.0000
  H   H1332     1.0  0.55727  0.06694  0.00604  1.0000
  H   H1333     1.0  0.38038  0.24801  0.09265  1.0000
  Fe  Fe155     1.0  0.65120  0.27176  0.14062  1.0000
  S   S317      1.0  0.63142  0.26189  0.16521  1.0000
  S   S318      1.0  0.64904  0.30090  0.12688  1.0000
  Fe  Fe156     1.0  0.35501  0.30060  0.05018  1.0000
  S   S319      1.0  0.36040  0.28899  0.02556  1.0000
  S   S320      1.0  0.65356  0.24898  0.12714  1.0000
  C   C828      1.0  0.58292  0.25006  0.10752  1.0000
  S   S321      1.0  0.65898  0.22217  0.16667  1.0000
  N   N86       1.0  0.40713  0.25305  0.08041  1.0000
  S   S322      1.0  0.65905  0.09836  0.08835  1.0000
  S   S323      1.0  0.45700  0.29474  0.02080  1.0000
  S   S324      1.0  0.37357  0.31641  0.05420  1.0000
  C   C829      1.0  0.54396  0.29093  0.99899  1.0000
  S   S325      1.0  0.65615  0.25020  0.20445  1.0000
  H   H1334     1.0  0.39841  0.22863  0.09563  1.0000
  H   H1335     1.0  0.53601  0.30150  0.00597  1.0000
  Fe  Fe157     1.0  0.47187  0.31766  0.00927  1.0000
  H   H1336     1.0  0.39303  0.03471  0.19730  1.0000
  H   H1337     1.0  0.40154  0.27544  0.09366  1.0000
  C   C830      1.0  0.43382  0.30111  0.02977  1.0000
  C   C831      1.0  0.42181  0.29098  0.02875  1.0000
  C   C832      1.0  0.40321  0.29580  0.03589  1.0000
  H   H1338     1.0  0.51744  0.27202  0.99984  1.0000
  H   H1339     1.0  0.42688  0.27947  0.02228  1.0000
  H   H1340     1.0  0.39405  0.28786  0.03514  1.0000
  Fe  Fe158     1.0  0.45764  0.99327  0.05235  1.0000
  S   S326      1.0  0.34833  0.27571  0.07003  1.0000
  H   H1341     1.0  0.63110  0.11396  0.02783  1.0000
  H   H1342     1.0  0.59103  0.27434  0.10782  1.0000
  H   H1343     1.0  0.41014  0.23531  0.06244  1.0000
  H   H1344     1.0  0.61322  0.29165  0.13988  1.0000
  Fe  Fe159     1.0  0.33078  0.29931  0.02583  1.0000
  Fe  Fe160     1.0  0.63603  0.23768  0.15292  1.0000
  Fe  Fe161     1.0  0.35190  0.26467  0.04530  1.0000
  H   H1345     1.0  0.37799  0.01929  0.20366  1.0000
  C   C833      1.0  0.44732  0.99225  0.12431  1.0000
  C   C834      1.0  0.40188  0.27261  0.08034  1.0000
  H   H1346     1.0  0.41052  0.11038  0.18497  1.0000
  H   H1347     1.0  0.61913  0.21938  0.09563  1.0000
  N   N87       1.0  0.50441  0.25573  0.02373  1.0000
  H   H1348     1.0  0.39444  0.24579  0.10838  1.0000
  C   C835      1.0  0.50354  0.26802  0.03561  1.0000
  H   H1349     1.0  0.39241  0.25499  0.05992  1.0000
  C   C836      1.0  0.53154  0.06121  0.99220  1.0000
  S   S327      1.0  0.57170  0.26032  0.08955  1.0000
  H   H1350     1.0  0.40506  0.16063  0.03336  1.0000
  C   C837      1.0  0.60178  0.25181  0.12720  1.0000
  H   H1351     1.0  0.58262  0.30986  0.13646  1.0000
  H   H1352     1.0  0.37442  0.00377  0.18144  1.0000
  H   H1353     1.0  0.48715  0.23992  0.04405  1.0000
  Fe  Fe162     1.0  0.56346  0.24064  0.07806  1.0000
  C   C838      1.0  0.55409  0.31113  0.06995  1.0000
  S   S328      1.0  0.57419  0.24063  0.01132  1.0000
  C   C839      1.0  0.55305  0.27497  0.00864  1.0000
  C   C840      1.0  0.60270  0.23346  0.13487  1.0000
  H   H1354     1.0  0.38275  0.10721  0.20867  1.0000
  C   C841      1.0  0.56371  0.26132  0.99962  1.0000
  S   S329      1.0  0.54444  0.25137  0.05873  1.0000
  C   C842      1.0  0.59170  0.26015  0.11370  1.0000
  H   H1355     1.0  0.52480  0.05248  0.98799  1.0000
  C   C843      1.0  0.55927  0.03872  0.99136  1.0000
  H   H1356     1.0  0.65393  0.09647  0.00765  1.0000
  H   H1357     1.0  0.42373  0.09079  0.19676  1.0000
  H   H1358     1.0  0.47553  0.25815  0.02933  1.0000
  H   H1359     1.0  0.60877  0.25957  0.13175  1.0000
  C   C844      1.0  0.52078  0.24124  0.02459  1.0000
  C   C845      1.0  0.40632  0.24994  0.06281  1.0000
  H   H1360     1.0  0.36281  0.03691  0.17849  1.0000
  H   H1361     1.0  0.48839  0.23815  0.02129  1.0000
  H   H1362     1.0  0.63233  0.25222  0.09656  1.0000
  H   H1363     1.0  0.63781  0.26054  0.07262  1.0000
  H   H1364     1.0  0.63596  0.13424  0.12974  1.0000
  Fe  Fe163     1.0  0.65636  0.24759  0.17634  1.0000
  C   C846      1.0  0.55175  0.30875  0.10185  1.0000
  C   C847      1.0  0.39181  0.10173  0.21858  1.0000
  C   C848      1.0  0.42721  0.31603  0.03801  1.0000
  H   H1365     1.0  0.57411  0.03560  0.98602  1.0000
  Fe  Fe164     1.0  0.37103  0.06196  0.22862  1.0000
  H   H1366     1.0  0.32961  0.27880  0.99889  1.0000
  C   C849      1.0  0.59449  0.31569  0.13031  1.0000
  C   C850      1.0  0.57842  0.31639  0.08050  1.0000
  H   H1367     1.0  0.40944  0.31485  0.99626  1.0000
  H   H1368     1.0  0.39395  0.13341  0.22413  1.0000
  H   H1369     1.0  0.57447  0.06745  0.98580  1.0000
  H   H1370     1.0  0.55389  0.08414  0.98641  1.0000
  N   N88       1.0  0.55854  0.31854  0.08350  1.0000
  C   C851      1.0  0.43385  0.98676  0.13895  1.0000
  H   H1371     1.0  0.38371  0.10417  0.23202  1.0000
  N   N89       1.0  0.47730  0.04929  0.36812  1.0000
  C   C852      1.0  0.39465  0.06914  0.46397  1.0000
  S   S330      1.0  0.34404  0.05739  0.45940  1.0000
  H   H1372     1.0  0.37990  0.04046  0.44365  1.0000
  H   H1373     1.0  0.38593  0.08097  0.46951  1.0000
  S   S331      1.0  0.39791  0.04803  0.23554  1.0000
  H   H1374     1.0  0.52852  0.09835  0.45841  1.0000
  N   N90       1.0  0.39837  0.05329  0.47855  1.0000
  C   C853      1.0  0.48324  0.06274  0.35201  1.0000
  S   S332      1.0  0.44503  0.08140  0.44898  1.0000
  H   H1375     1.0  0.47832  0.06182  0.34014  1.0000
  H   H1376     1.0  0.41259  0.00830  0.27618  1.0000
  S   S333      1.0  0.35799  0.03808  0.24182  1.0000
  Fe  Fe165     1.0  0.38426  0.02510  0.25081  1.0000
  C   C854      1.0  0.40981  0.03787  0.47060  1.0000
  H   H1377     1.0  0.45128  0.06608  0.37611  1.0000
  S   S334      1.0  0.36104  0.07486  0.25291  1.0000
  Fe  Fe166     1.0  0.38716  0.05894  0.26090  1.0000
  S   S335      1.0  0.40579  0.07277  0.26758  1.0000
  S   S336      1.0  0.37583  0.03475  0.27694  1.0000
  H   H1378     1.0  0.64550  0.29717  0.44175  1.0000
  S   S337      1.0  0.41715  0.00167  0.36014  1.0000
  Fe  Fe167     1.0  0.43834  0.01063  0.39641  1.0000
  S   S338      1.0  0.42028  0.03276  0.38079  1.0000
  S   S339      1.0  0.45420  0.01263  0.41603  1.0000
  Fe  Fe168     1.0  0.40342  0.01205  0.38556  1.0000
  S   S340      1.0  0.37314  0.01824  0.39303  1.0000
  Fe  Fe169     1.0  0.43563  0.02049  0.35686  1.0000
  S   S341      1.0  0.44828  0.03737  0.33125  1.0000
  C   C855      1.0  0.35215  0.04691  0.44064  1.0000
  H   H1379     1.0  0.42960  0.01277  0.28519  1.0000
  C   C856      1.0  0.36531  0.02943  0.41120  1.0000
  C   C857      1.0  0.39222  0.98748  0.23512  1.0000
  C   C858      1.0  0.48450  0.03094  0.36434  1.0000
  H   H1380     1.0  0.41274  0.02565  0.48124  1.0000
  C   C859      1.0  0.37727  0.03081  0.42118  1.0000
  C   C860      1.0  0.48399  0.05080  0.38363  1.0000
  H   H1381     1.0  0.47789  0.07674  0.35437  1.0000
  H   H1382     1.0  0.39157  0.02511  0.41763  1.0000
  C   C861      1.0  0.41722  0.06194  0.28541  1.0000
  C   C862      1.0  0.41088  0.04851  0.29959  1.0000
  C   C863      1.0  0.42019  0.04081  0.31392  1.0000
  C   C864      1.0  0.43596  0.04639  0.31385  1.0000
  C   C865      1.0  0.44233  0.05956  0.29950  1.0000
  C   C866      1.0  0.43292  0.06742  0.28547  1.0000
  H   H1383     1.0  0.39855  0.04448  0.29979  1.0000
  H   H1384     1.0  0.41511  0.03074  0.32503  1.0000
  H   H1385     1.0  0.45449  0.06391  0.29933  1.0000
  H   H1386     1.0  0.43786  0.07780  0.27462  1.0000
  H   H1387     1.0  0.49956  0.02803  0.36052  1.0000
  C   C867      1.0  0.45731  0.05262  0.37254  1.0000
  C   C868      1.0  0.44762  0.06229  0.43981  1.0000
  C   C869      1.0  0.43713  0.06300  0.42738  1.0000
  C   C870      1.0  0.43850  0.04771  0.42039  1.0000
  C   C871      1.0  0.45082  0.03179  0.42538  1.0000
  C   C872      1.0  0.46140  0.03117  0.43765  1.0000
  C   C873      1.0  0.45973  0.04630  0.44493  1.0000
  H   H1388     1.0  0.42772  0.07535  0.42335  1.0000
  H   H1389     1.0  0.43007  0.04828  0.41116  1.0000
  H   H1390     1.0  0.47100  0.01892  0.44152  1.0000
  H   H1391     1.0  0.46805  0.04565  0.45429  1.0000
  H   H1392     1.0  0.47845  0.06433  0.38719  1.0000
  H   H1393     1.0  0.45249  0.04229  0.38423  1.0000
  H   H1394     1.0  0.48053  0.02047  0.37641  1.0000
  C   C874      1.0  0.34685  0.03689  0.41585  1.0000
  H   H1395     1.0  0.49829  0.06066  0.34822  1.0000
  H   H1396     1.0  0.36422  0.99960  0.24380  1.0000
  C   C875      1.0  0.62853  0.31396  0.46014  1.0000
  H   H1397     1.0  0.45172  0.05203  0.36099  1.0000
  S   S342      1.0  0.61969  0.29579  0.47525  1.0000
  H   H1398     1.0  0.47921  0.02916  0.35307  1.0000
  Fe  Fe170     1.0  0.35031  0.04971  0.26692  1.0000
  H   H1399     1.0  0.47984  0.04061  0.39590  1.0000
  H   H1400     1.0  0.49904  0.04854  0.38075  1.0000
  S   S343      1.0  0.45503  0.99981  0.37209  1.0000
  C   C876      1.0  0.37067  0.03951  0.43591  1.0000
  H   H1401     1.0  0.38753  0.06626  0.45468  1.0000
  H   H1402     1.0  0.51763  0.08410  0.47768  1.0000
  H   H1403     1.0  0.40823  0.00947  0.29957  1.0000
  C   C877      1.0  0.37372  0.99120  0.23507  1.0000
  H   H1404     1.0  0.55851  0.10175  0.47511  1.0000
  C   C878      1.0  0.64163  0.31060  0.44466  1.0000
  H   H1405     1.0  0.33758  0.03596  0.40810  1.0000
  C   C879      1.0  0.34033  0.04575  0.43042  1.0000
  S   S344      1.0  0.40036  0.99714  0.24855  1.0000
  Fe  Fe171     1.0  0.45479  0.07747  0.47490  1.0000
  H   H1406     1.0  0.45123  0.98677  0.27346  1.0000
  H   H1407     1.0  0.51108  0.12504  0.47204  1.0000
  C   C880      1.0  0.52950  0.09075  0.47235  1.0000
  H   H1408     1.0  0.40318  0.03432  0.46134  1.0000
  H   H1409     1.0  0.40740  0.07333  0.45578  1.0000
  C   C881      1.0  0.41885  0.00477  0.28826  1.0000
  S   S345      1.0  0.47707  0.08845  0.47919  1.0000
  H   H1410     1.0  0.54454  0.12010  0.46259  1.0000
  H   H1411     1.0  0.42307  0.04097  0.46267  1.0000
  H   H1412     1.0  0.44604  0.98852  0.30578  1.0000
  H   H1413     1.0  0.54181  0.07976  0.47150  1.0000
  C   C882      1.0  0.54544  0.11176  0.47629  1.0000
  H   H1414     1.0  0.41156  0.10578  0.24037  1.0000
  S   S346      1.0  0.42004  0.99080  0.40337  1.0000
  H   H1415     1.0  0.37348  0.04502  0.48067  1.0000
  H   H1416     1.0  0.35661  0.98746  0.40129  1.0000
  H   H1417     1.0  0.42111  0.06143  0.48264  1.0000
  Fe  Fe172     1.0  0.60212  0.01237  0.58450  1.0000
  H   H1418     1.0  0.63130  0.10316  0.60419  1.0000
  Fe  Fe173     1.0  0.57060  0.03476  0.56676  1.0000
  Fe  Fe174     1.0  0.60729  0.02254  0.54398  1.0000
  Fe  Fe175     1.0  0.60178  0.05148  0.56580  1.0000
  S   S347      1.0  0.58801  0.00747  0.56508  1.0000
  S   S348      1.0  0.58245  0.03816  0.58860  1.0000
  S   S349      1.0  0.61570  0.16297  0.61157  1.0000
  S   S350      1.0  0.42500  0.04465  0.53367  1.0000
  S   S351      1.0  0.46484  0.07063  0.52263  1.0000
  C   C883      1.0  0.63855  0.21504  0.56421  1.0000
  S   S352      1.0  0.35172  0.08209  0.57841  1.0000
  Fe  Fe176     1.0  0.34388  0.11225  0.57178  1.0000
  C   C884      1.0  0.65556  0.03850  0.64275  1.0000
  H   H1419     1.0  0.63778  0.07271  0.63399  1.0000
  H   H1420     1.0  0.64420  0.18148  0.58449  1.0000
  H   H1421     1.0  0.52379  0.11017  0.59810  1.0000
  C   C885      1.0  0.57712  0.20409  0.55259  1.0000
  H   H1422     1.0  0.37202  0.05986  0.49529  1.0000
  Fe  Fe177     1.0  0.51024  0.18604  0.56007  1.0000
  S   S353      1.0  0.52437  0.18019  0.53265  1.0000
  S   S354      1.0  0.48801  0.21083  0.56149  1.0000
  Fe  Fe178     1.0  0.53700  0.15668  0.57901  1.0000
  S   S355      1.0  0.55323  0.14898  0.55314  1.0000
  S   S356      1.0  0.54716  0.13910  0.60341  1.0000
  Fe  Fe179     1.0  0.54977  0.17862  0.54204  1.0000
  Fe  Fe180     1.0  0.52626  0.15106  0.54673  1.0000
  S   S357      1.0  0.52390  0.12644  0.53826  1.0000
  S   S358      1.0  0.53551  0.18639  0.56842  1.0000
  S   S359      1.0  0.51007  0.15697  0.57346  1.0000
  C   C886      1.0  0.54058  0.25654  0.53223  1.0000
  C   C887      1.0  0.44485  0.20976  0.61344  1.0000
  C   C888      1.0  0.45779  0.19406  0.61069  1.0000
  C   C889      1.0  0.47151  0.19436  0.59501  1.0000
  C   C890      1.0  0.47230  0.21038  0.58210  1.0000
  H   H1423     1.0  0.39573  0.22692  0.57191  1.0000
  C   C891      1.0  0.61585  0.20858  0.59115  1.0000
  H   H1424     1.0  0.45697  0.18157  0.62048  1.0000
  H   H1425     1.0  0.48121  0.18213  0.59280  1.0000
  C   C892      1.0  0.62343  0.98861  0.52126  1.0000
  C   C893      1.0  0.37526  0.18383  0.59745  1.0000
  C   C894      1.0  0.37133  0.20146  0.60063  1.0000
  H   H1426     1.0  0.55969  0.04214  0.53179  1.0000
  C   C895      1.0  0.40438  0.05552  0.54527  1.0000
  C   C896      1.0  0.39668  0.07359  0.53906  1.0000
  C   C897      1.0  0.38022  0.08184  0.54890  1.0000
  C   C898      1.0  0.37167  0.07208  0.56507  1.0000
  C   C899      1.0  0.37919  0.05393  0.57097  1.0000
  C   C900      1.0  0.39544  0.04566  0.56106  1.0000
  H   H1427     1.0  0.40328  0.08114  0.52663  1.0000
  H   H1428     1.0  0.37411  0.09564  0.54391  1.0000
  H   H1429     1.0  0.37256  0.04628  0.58337  1.0000
  H   H1430     1.0  0.40126  0.03164  0.56583  1.0000
  C   C901      1.0  0.47314  0.12417  0.52086  1.0000
  C   C902      1.0  0.47634  0.14095  0.52111  1.0000
  C   C903      1.0  0.49141  0.14189  0.52736  1.0000
  C   C904      1.0  0.50319  0.12600  0.53349  1.0000
  C   C905      1.0  0.49935  0.10927  0.53424  1.0000
  C   C906      1.0  0.48447  0.10835  0.52782  1.0000
  H   H1431     1.0  0.46758  0.15325  0.51579  1.0000
  H   H1432     1.0  0.49431  0.15486  0.52673  1.0000
  H   H1433     1.0  0.50822  0.09692  0.53932  1.0000
  C   C907      1.0  0.59632  0.15619  0.61039  1.0000
  C   C908      1.0  0.59335  0.13873  0.61830  1.0000
  C   C909      1.0  0.57790  0.13364  0.61665  1.0000
  C   C910      1.0  0.56558  0.14592  0.60686  1.0000
  C   C911      1.0  0.56854  0.16337  0.59911  1.0000
  C   C912      1.0  0.58381  0.16852  0.60092  1.0000
  H   H1434     1.0  0.60285  0.12918  0.62575  1.0000
  H   H1435     1.0  0.57569  0.12010  0.62269  1.0000
  H   H1436     1.0  0.55896  0.17303  0.59192  1.0000
  H   H1437     1.0  0.58591  0.18209  0.59493  1.0000
  S   S360      1.0  0.46303  0.05004  0.49157  1.0000
  H   H1438     1.0  0.60308  0.16961  0.55848  1.0000
  H   H1439     1.0  0.37735  0.20445  0.61026  1.0000
  C   C913      1.0  0.61140  0.00172  0.65937  1.0000
  C   C914      1.0  0.60117  0.01397  0.64746  1.0000
  C   C915      1.0  0.60168  0.01023  0.63071  1.0000
  H   H1440     1.0  0.62734  0.11518  0.55306  1.0000
  H   H1441     1.0  0.54670  0.06275  0.59477  1.0000
  H   H1442     1.0  0.52970  0.07671  0.60847  1.0000
  H   H1443     1.0  0.59381  0.01975  0.62158  1.0000
  C   C916      1.0  0.36729  0.17977  0.58519  1.0000
  H   H1444     1.0  0.46249  0.29636  0.61320  1.0000
  H   H1445     1.0  0.56916  0.07999  0.59507  1.0000
  H   H1446     1.0  0.56538  0.10394  0.58679  1.0000
  H   H1447     1.0  0.55226  0.09485  0.60799  1.0000
  H   H1448     1.0  0.54604  0.12086  0.48492  1.0000
  H   H1449     1.0  0.54050  0.00809  0.53572  1.0000
  Fe  Fe181     1.0  0.37034  0.24500  0.61111  1.0000
  H   H1450     1.0  0.44300  0.18917  0.55331  1.0000
  H   H1451     1.0  0.33649  0.12481  0.49142  1.0000
  H   H1452     1.0  0.34452  0.28764  0.72505  1.0000
  H   H1453     1.0  0.41897  0.22538  0.66404  1.0000
  C   C917      1.0  0.64682  0.19231  0.58975  1.0000
  H   H1454     1.0  0.54417  0.08111  0.50164  1.0000
  H   H1455     1.0  0.50080  0.11008  0.49105  1.0000
  H   H1456     1.0  0.33422  0.27436  0.70472  1.0000
  C   C918      1.0  0.38104  0.04846  0.48923  1.0000
  H   H1457     1.0  0.63006  0.22841  0.55955  1.0000
  S   S361      1.0  0.37250  0.15761  0.58144  1.0000
  N   N91       1.0  0.40249  0.22166  0.69085  1.0000
  H   H1458     1.0  0.51248  0.12554  0.49448  1.0000
  H   H1459     1.0  0.61871  0.15601  0.57236  1.0000
  H   H1460     1.0  0.39851  0.19511  0.70497  1.0000
  H   H1461     1.0  0.53252  0.10040  0.51129  1.0000
  C   C919      1.0  0.53056  0.10794  0.58425  1.0000
  C   C920      1.0  0.53642  0.07559  0.59433  1.0000
  H   H1462     1.0  0.57548  0.99861  0.70583  1.0000
  H   H1463     1.0  0.61908  0.15150  0.52604  1.0000
  H   H1464     1.0  0.63320  0.12484  0.56871  1.0000
  H   H1465     1.0  0.65626  0.07075  0.66446  1.0000
  H   H1466     1.0  0.38549  0.27463  0.66779  1.0000
  H   H1467     1.0  0.63876  0.05500  0.57056  1.0000
  S   S362      1.0  0.43428  0.08856  0.49750  1.0000
  H   H1468     1.0  0.55968  0.10089  0.55820  1.0000
  H   H1469     1.0  0.56822  0.01410  0.51154  1.0000
  S   S363      1.0  0.62261  0.02587  0.56324  1.0000
  H   H1470     1.0  0.42074  0.18484  0.55623  1.0000
  H   H1471     1.0  0.44660  0.21724  0.55909  1.0000
  C   C921      1.0  0.38533  0.22636  0.68440  1.0000
  C   C922      1.0  0.41754  0.21495  0.67675  1.0000
  H   H1472     1.0  0.43582  0.19353  0.58486  1.0000
  C   C923      1.0  0.42169  0.19985  0.58313  1.0000
  S   S364      1.0  0.33451  0.15001  0.51343  1.0000
  C   C924      1.0  0.61871  0.09156  0.58965  1.0000
  S   S365      1.0  0.60367  0.07881  0.56880  1.0000
  H   H1473     1.0  0.41610  0.20944  0.59250  1.0000
  H   H1474     1.0  0.41530  0.20291  0.67315  1.0000
  H   H1475     1.0  0.38228  0.21454  0.68115  1.0000
  S   S366      1.0  0.61989  0.01223  0.51823  1.0000
  H   H1476     1.0  0.65342  0.22522  0.58648  1.0000
  H   H1477     1.0  0.38329  0.03664  0.50045  1.0000
  S   S367      1.0  0.36068  0.13069  0.55201  1.0000
  H   H1478     1.0  0.49437  0.04733  0.53474  1.0000
  H   H1479     1.0  0.58473  0.14618  0.56874  1.0000
  N   N92       1.0  0.41535  0.11213  0.55654  1.0000
  C   C925      1.0  0.40038  0.10812  0.57195  1.0000
  C   C926      1.0  0.40806  0.12048  0.53998  1.0000
  C   C927      1.0  0.42854  0.09522  0.55392  1.0000
  C   C928      1.0  0.42448  0.12478  0.56026  1.0000
  H   H1480     1.0  0.39310  0.09867  0.56959  1.0000
  H   H1481     1.0  0.39021  0.12061  0.57435  1.0000
  H   H1482     1.0  0.40541  0.10176  0.58465  1.0000
  H   H1483     1.0  0.41904  0.12312  0.52798  1.0000
  H   H1484     1.0  0.40059  0.11161  0.53700  1.0000
  H   H1485     1.0  0.39864  0.13366  0.54120  1.0000
  H   H1486     1.0  0.44011  0.09788  0.54257  1.0000
  H   H1487     1.0  0.42221  0.08545  0.55078  1.0000
  H   H1488     1.0  0.43421  0.08841  0.56619  1.0000
  H   H1489     1.0  0.41479  0.13758  0.56258  1.0000
  H   H1490     1.0  0.43566  0.12832  0.54872  1.0000
  H   H1491     1.0  0.43046  0.11884  0.57247  1.0000
  H   H1492     1.0  0.48209  0.09535  0.52794  1.0000
  S   S368      1.0  0.57286  0.19137  0.52451  1.0000
  C   C929      1.0  0.60809  0.14635  0.53679  1.0000
  H   H1493     1.0  0.60045  0.13250  0.58232  1.0000
  H   H1494     1.0  0.52610  0.07422  0.58747  1.0000
  S   S369      1.0  0.51319  0.04922  0.49731  1.0000
  C   C930      1.0  0.63899  0.22387  0.59142  1.0000
  S   S370      1.0  0.54044  0.04119  0.56908  1.0000
  C   C931      1.0  0.59746  0.13576  0.56858  1.0000
  H   H1495     1.0  0.53642  0.11998  0.57701  1.0000
  S   S371      1.0  0.58862  0.04969  0.54412  1.0000
  Fe  Fe182     1.0  0.44368  0.06167  0.51434  1.0000
  C   C932      1.0  0.54541  0.04354  0.53243  1.0000
  C   C933      1.0  0.53919  0.04510  0.51664  1.0000
  H   H1496     1.0  0.54870  0.04511  0.50385  1.0000
  C   C934      1.0  0.40610  0.31205  0.60294  1.0000
  C   C935      1.0  0.35558  0.19347  0.57590  1.0000
  H   H1497     1.0  0.65812  0.28437  0.50295  1.0000
  C   C936      1.0  0.53312  0.04362  0.54898  1.0000
  C   C937      1.0  0.55351  0.08914  0.56600  1.0000
  H   H1498     1.0  0.64090  0.13220  0.54489  1.0000
  H   H1499     1.0  0.57176  0.19280  0.56150  1.0000
  H   H1500     1.0  0.38989  0.21222  0.71834  1.0000
  H   H1501     1.0  0.56167  0.00038  0.72779  1.0000
  H   H1502     1.0  0.60238  0.99416  0.71839  1.0000
  C   C938      1.0  0.52070  0.04684  0.51733  1.0000
  C   C939      1.0  0.61545  0.15868  0.55873  1.0000
  H   H1503     1.0  0.59477  0.12337  0.56610  1.0000
  H   H1504     1.0  0.42720  0.23312  0.56767  1.0000
  C   C940      1.0  0.62924  0.12801  0.55536  1.0000
  Fe  Fe183     1.0  0.48351  0.06179  0.49807  1.0000
  S   S372      1.0  0.45545  0.12325  0.51114  1.0000
  H   H1505     1.0  0.63642  0.22053  0.60643  1.0000
  Fe  Fe184     1.0  0.35157  0.14820  0.57265  1.0000
  C   C941      1.0  0.40799  0.05768  0.49036  1.0000
  H   H1506     1.0  0.56450  0.07686  0.56586  1.0000
  H   H1507     1.0  0.39981  0.06921  0.49670  1.0000
  Fe  Fe185     1.0  0.45740  0.09667  0.50358  1.0000
  C   C942      1.0  0.50851  0.04675  0.53390  1.0000
  N   N93       1.0  0.61259  0.14221  0.55484  1.0000
  H   H1508     1.0  0.62677  0.16397  0.54863  1.0000
  S   S373      1.0  0.42661  0.20889  0.63204  1.0000
  C   C943      1.0  0.61206  0.99403  0.62603  1.0000
  Fe  Fe186     1.0  0.40376  0.23259  0.62744  1.0000
  H   H1509     1.0  0.57968  0.21493  0.57433  1.0000
  H   H1510     1.0  0.60590  0.13416  0.53346  1.0000
  Fe  Fe187     1.0  0.63777  0.14103  0.62193  1.0000
  H   H1511     1.0  0.52000  0.10755  0.57718  1.0000
  H   H1512     1.0  0.59546  0.15687  0.53605  1.0000
  H   H1513     1.0  0.38432  0.17326  0.60469  1.0000
  S   S374      1.0  0.65274  0.10154  0.68130  1.0000
  H   H1514     1.0  0.59294  0.02642  0.65110  1.0000
  C   C944      1.0  0.40220  0.21741  0.56255  1.0000
  C   C945      1.0  0.55846  0.09253  0.59407  1.0000
  C   C946      1.0  0.62086  0.07824  0.57982  1.0000
  S   S375      1.0  0.63683  0.11234  0.63599  1.0000
  N   N94       1.0  0.54475  0.09129  0.58467  1.0000
  C   C947      1.0  0.64933  0.08000  0.59483  1.0000
  C   C948      1.0  0.42868  0.19571  0.55240  1.0000
  S   S376      1.0  0.35418  0.23733  0.59502  1.0000
  C   C949      1.0  0.57955  0.20621  0.53389  1.0000
  S   S377      1.0  0.33677  0.12836  0.59340  1.0000
  C   C950      1.0  0.58178  0.21655  0.55984  1.0000
  C   C951      1.0  0.40590  0.23788  0.69476  1.0000
  C   C952      1.0  0.48724  0.31033  0.58621  1.0000
  H   H1515     1.0  0.54360  0.08789  0.55858  1.0000
  C   C953      1.0  0.63700  0.06534  0.57811  1.0000
  C   C954      1.0  0.43209  0.22317  0.55865  1.0000
  H   H1516     1.0  0.41389  0.20359  0.71273  1.0000
  C   C955      1.0  0.51468  0.04527  0.54965  1.0000
  S   S378      1.0  0.61062  0.00655  0.68025  1.0000
  H   H1517     1.0  0.39377  0.20704  0.56576  1.0000
  H   H1518     1.0  0.49810  0.24765  0.54580  1.0000
  N   N95       1.0  0.42115  0.20905  0.56419  1.0000
  C   C956      1.0  0.35956  0.21514  0.59136  1.0000
  H   H1519     1.0  0.43156  0.23079  0.54463  1.0000
  H   H1520     1.0  0.60597  0.10103  0.59168  1.0000
  C   C957      1.0  0.58703  0.22062  0.52246  1.0000
  C   C958      1.0  0.57621  0.00222  0.51934  1.0000
  C   C959      1.0  0.63297  0.09258  0.59698  1.0000
  C   C960      1.0  0.40115  0.20750  0.70747  1.0000
  C   C961      1.0  0.44608  0.22590  0.60082  1.0000
  C   C962      1.0  0.40427  0.30863  0.62170  1.0000
  H   H1521     1.0  0.42850  0.20218  0.53800  1.0000
  N   N96       1.0  0.63506  0.20994  0.58414  1.0000
  H   H1522     1.0  0.53857  0.26722  0.54004  1.0000
  H   H1523     1.0  0.58808  0.99645  0.50961  1.0000
  C   C963      1.0  0.45975  0.22620  0.58518  1.0000
  H   H1524     1.0  0.50514  0.04510  0.56244  1.0000
  Fe  Fe188     1.0  0.60148  0.31172  0.53647  1.0000
  H   H1525     1.0  0.40133  0.22515  0.54864  1.0000
  H   H1526     1.0  0.61288  0.20410  0.60611  1.0000
  C   C964      1.0  0.35179  0.21112  0.57892  1.0000
  S   S379      1.0  0.63988  0.00122  0.71390  1.0000
  H   H1527     1.0  0.33198  0.17077  0.60269  1.0000
  H   H1528     1.0  0.39444  0.24378  0.70481  1.0000
  S   S380      1.0  0.37492  0.22958  0.63847  1.0000
  H   H1529     1.0  0.52032  0.22204  0.53468  1.0000
  H   H1530     1.0  0.34971  0.19053  0.56613  1.0000
  H   H1531     1.0  0.45788  0.29530  0.59210  1.0000
  H   H1532     1.0  0.38587  0.23704  0.67194  1.0000
  C   C965      1.0  0.64046  0.04196  0.67310  1.0000
  H   H1533     1.0  0.62947  0.03531  0.67302  1.0000
  H   H1534     1.0  0.50571  0.26667  0.54807  1.0000
  C   C966      1.0  0.51284  0.11646  0.48545  1.0000
  Fe  Fe189     1.0  0.63540  0.99156  0.69121  1.0000
  H   H1535     1.0  0.65123  0.03129  0.67866  1.0000
  C   C967      1.0  0.65121  0.06621  0.58565  1.0000
  H   H1536     1.0  0.53991  0.26340  0.51801  1.0000
  S   S381      1.0  0.59347  0.24723  0.55788  1.0000
  H   H1537     1.0  0.64534  0.03113  0.64208  1.0000
  C   C968      1.0  0.37660  0.27726  0.68030  1.0000
  H   H1538     1.0  0.40109  0.29602  0.62982  1.0000
  H   H1539     1.0  0.41359  0.18909  0.58778  1.0000
  H   H1540     1.0  0.40754  0.24861  0.68234  1.0000
  Fe  Fe190     1.0  0.33478  0.14492  0.54288  1.0000
  H   H1541     1.0  0.63606  0.31246  0.49547  1.0000
  H   H1542     1.0  0.62646  0.07518  0.65654  1.0000
  H   H1543     1.0  0.60657  0.22177  0.58767  1.0000
  H   H1544     1.0  0.41844  0.23477  0.70021  1.0000
  H   H1545     1.0  0.61226  0.19860  0.58548  1.0000
  C   C969      1.0  0.38260  0.28424  0.69205  1.0000
  H   H1546     1.0  0.55478  0.00228  0.55189  1.0000
  S   S382      1.0  0.39950  0.24614  0.59957  1.0000
  N   N97       1.0  0.56510  0.98870  0.52948  1.0000
  C   C970      1.0  0.37109  0.28799  0.70823  1.0000
  S   S383      1.0  0.61250  0.98887  0.60532  1.0000
  S   S384      1.0  0.65345  0.14535  0.64034  1.0000
  H   H1547     1.0  0.65299  0.21595  0.55848  1.0000
  H   H1548     1.0  0.58166  0.00726  0.52851  1.0000
  H   H1549     1.0  0.49302  0.30272  0.59825  1.0000
  H   H1550     1.0  0.43651  0.23820  0.60312  1.0000
  N   N98       1.0  0.64766  0.05155  0.65481  1.0000
  C   C971      1.0  0.50861  0.25607  0.53998  1.0000
  H   H1551     1.0  0.52916  0.23731  0.51487  1.0000
  Fe  Fe191     1.0  0.65514  0.11580  0.65222  1.0000
  H   H1552     1.0  0.63041  0.23736  0.58734  1.0000
  H   H1553     1.0  0.58911  0.22224  0.50797  1.0000
  H   H1554     1.0  0.48917  0.30086  0.57711  1.0000
  C   C972      1.0  0.58863  0.23133  0.54842  1.0000
  H   H1555     1.0  0.46042  0.23868  0.57534  1.0000
  C   C973      1.0  0.54989  0.99678  0.54263  1.0000
  C   C974      1.0  0.59144  0.23324  0.52971  1.0000
  H   H1556     1.0  0.54173  0.98672  0.55111  1.0000
  H   H1557     1.0  0.51847  0.22727  0.56511  1.0000
  H   H1558     1.0  0.59706  0.24441  0.52079  1.0000
  S   S385      1.0  0.40022  0.25823  0.63686  1.0000
  Fe  Fe192     1.0  0.39343  0.27180  0.60980  1.0000
  S   S386      1.0  0.40494  0.29547  0.59200  1.0000
  S   S387      1.0  0.36361  0.27217  0.61874  1.0000
  Fe  Fe193     1.0  0.56638  0.30921  0.52802  1.0000
  S   S388      1.0  0.57951  0.28437  0.51639  1.0000
  H   H1559     1.0  0.64438  0.18795  0.60473  1.0000
  C   C975      1.0  0.63278  0.06515  0.64773  1.0000
  S   S389      1.0  0.61745  0.28688  0.52630  1.0000
  Fe  Fe194     1.0  0.60301  0.29826  0.50313  1.0000
  N   N99       1.0  0.52704  0.24493  0.54001  1.0000
  Fe  Fe195     1.0  0.59282  0.27508  0.54029  1.0000
  C   C976      1.0  0.52867  0.23596  0.55876  1.0000
  S   S390      1.0  0.57811  0.29901  0.55288  1.0000
  C   C977      1.0  0.35348  0.28481  0.71258  1.0000
  H   H1560     1.0  0.44288  0.31057  0.60551  1.0000
  C   C978      1.0  0.53025  0.23110  0.52912  1.0000
  H   H1561     1.0  0.54401  0.22243  0.52884  1.0000
  H   H1562     1.0  0.54924  0.99433  0.50916  1.0000
  Fe  Fe196     1.0  0.37070  0.25683  0.64530  1.0000
  H   H1563     1.0  0.55461  0.24853  0.53221  1.0000
  S   S391      1.0  0.35223  0.26250  0.67159  1.0000
  H   H1564     1.0  0.34283  0.22173  0.57159  1.0000
  C   C979      1.0  0.64458  0.30854  0.55162  1.0000
  H   H1565     1.0  0.54232  0.22718  0.55924  1.0000
  H   H1566     1.0  0.52664  0.24595  0.56733  1.0000
  H   H1567     1.0  0.63797  0.29738  0.55369  1.0000
  H   H1568     1.0  0.39625  0.28664  0.68863  1.0000
  H   H1569     1.0  0.43075  0.21111  0.68111  1.0000
  H   H1570     1.0  0.37360  0.23165  0.69457  1.0000
  C   C980      1.0  0.53169  0.09189  0.50221  1.0000
  H   H1571     1.0  0.50689  0.26298  0.52602  1.0000
  C   C981      1.0  0.35928  0.27335  0.68497  1.0000
  C   C982      1.0  0.34768  0.27729  0.70106  1.0000
  H   H1572     1.0  0.63489  0.05133  0.68267  1.0000
  H   H1573     1.0  0.63533  0.20505  0.55825  1.0000
  S   S392      1.0  0.37951  0.29583  0.72297  1.0000
  C   C983      1.0  0.45741  0.30458  0.60096  1.0000
  H   H1574     1.0  0.62958  0.98864  0.49278  1.0000
  H   H1575     1.0  0.62197  0.05873  0.64671  1.0000
  H   H1576     1.0  0.51995  0.08518  0.50868  1.0000
  H   H1577     1.0  0.41113  0.04600  0.50149  1.0000
  C   C984      1.0  0.56920  0.99067  0.71890  1.0000
  H   H1578     1.0  0.32724  0.20114  0.60947  1.0000
  H   H1579     1.0  0.40614  0.31842  0.64437  1.0000
  N   N100      1.0  0.46792  0.31874  0.59143  1.0000
  H   H1580     1.0  0.39457  0.31945  0.68338  1.0000
  N   N101      1.0  0.52987  0.10272  0.48406  1.0000
  H   H1581     1.0  0.46212  0.31996  0.56562  1.0000
  C   C985      1.0  0.64486  0.32003  0.49847  1.0000
  Fe  Fe197     1.0  0.63185  0.00806  0.91080  1.0000
  S   S393      1.0  0.61250  0.00964  0.93747  1.0000
  S   S394      1.0  0.62448  0.00233  0.88723  1.0000
  H   H1582     1.0  0.34835  0.28077  0.93386  1.0000
  C   C986      1.0  0.34561  0.31538  0.93411  1.0000
  H   H1583     1.0  0.65818  0.07159  0.78348  1.0000
  H   H1584     1.0  0.54909  0.07627  0.95954  1.0000
  S   S395      1.0  0.60559  0.08250  0.96189  1.0000
  H   H1585     1.0  0.33546  0.30169  0.83723  1.0000
  N   N102      1.0  0.35669  0.30574  0.91974  1.0000
  S   S396      1.0  0.63994  0.03788  0.84405  1.0000
  C   C987      1.0  0.61144  0.02962  0.94435  1.0000
  C   C988      1.0  0.60860  0.02974  0.96275  1.0000
  H   H1586     1.0  0.61876  0.05467  0.78058  1.0000
  C   C989      1.0  0.55669  0.27986  0.97129  1.0000
  C   C990      1.0  0.61301  0.04557  0.93156  1.0000
  C   C991      1.0  0.65727  0.06347  0.84653  1.0000
  H   H1587     1.0  0.61503  0.04561  0.91735  1.0000
  C   C992      1.0  0.65427  0.04002  0.77828  1.0000
  Fe  Fe198     1.0  0.64418  0.01960  0.87041  1.0000
  C   C993      1.0  0.56574  0.26394  0.98091  1.0000
  C   C994      1.0  0.61133  0.06167  0.93716  1.0000
  H   H1588     1.0  0.64583  0.03515  0.79162  1.0000
  S   S397      1.0  0.53349  0.31253  0.96807  1.0000
  H   H1589     1.0  0.54880  0.05329  0.95975  1.0000
  H   H1590     1.0  0.61216  0.07406  0.92719  1.0000
  H   H1591     1.0  0.65898  0.05526  0.74279  1.0000
  C   C995      1.0  0.60836  0.06185  0.95553  1.0000
  H   H1592     1.0  0.34549  0.30658  0.94778  1.0000
  H   H1593     1.0  0.64900  0.06870  0.93502  1.0000
  H   H1594     1.0  0.57410  0.25347  0.97387  1.0000
  H   H1595     1.0  0.58927  0.99459  0.74081  1.0000
  H   H1596     1.0  0.56966  0.05948  0.95905  1.0000
  H   H1597     1.0  0.62856  0.04935  0.75863  1.0000
  C   C996      1.0  0.55482  0.06190  0.96493  1.0000
  C   C997      1.0  0.65551  0.05218  0.83605  1.0000
  H   H1598     1.0  0.55808  0.28163  0.95686  1.0000
  H   H1599     1.0  0.64752  0.05672  0.95800  1.0000
  Fe  Fe199     1.0  0.36008  0.31053  0.74402  1.0000
  H   H1600     1.0  0.35720  0.28217  0.91003  1.0000
  H   H1601     1.0  0.38153  0.31105  0.92227  1.0000
  H   H1602     1.0  0.38431  0.29222  0.91191  1.0000
  S   S398      1.0  0.34553  0.30106  0.77250  1.0000
  H   H1603     1.0  0.64915  0.06321  0.86004  1.0000
  H   H1604     1.0  0.33495  0.29446  0.91799  1.0000
  H   H1605     1.0  0.36444  0.31110  0.89072  1.0000
  C   C998      1.0  0.34904  0.29008  0.92040  1.0000
  C   C999      1.0  0.60732  0.04581  0.96834  1.0000
  N   N103      1.0  0.64610  0.05852  0.76995  1.0000
  S   S399      1.0  0.64900  0.02788  0.89395  1.0000
  H   H1606     1.0  0.63806  0.08504  0.77623  1.0000
  C   C1000     1.0  0.65387  0.06722  0.94762  1.0000
  S   S400      1.0  0.36528  0.31427  0.80682  1.0000
  H   H1607     1.0  0.65215  0.07831  0.74571  1.0000
  C   C1001     1.0  0.62788  0.05877  0.76743  1.0000
  H   H1608     1.0  0.62141  0.07251  0.76098  1.0000
  C   C1002     1.0  0.54548  0.29321  0.98035  1.0000
  H   H1609     1.0  0.37605  0.29011  0.93588  1.0000
  H   H1610     1.0  0.65605  0.03029  0.76947  1.0000
  H   H1611     1.0  0.63654  0.06675  0.79560  1.0000
  H   H1612     1.0  0.60761  0.01735  0.97266  1.0000
  C   C1003     1.0  0.64460  0.07102  0.78184  1.0000
  C   C1004     1.0  0.65767  0.06425  0.75223  1.0000
  C   C1005     1.0  0.37550  0.29947  0.92258  1.0000
  H   H1613     1.0  0.64841  0.08020  0.95234  1.0000
  H   H1614     1.0  0.37737  0.31574  0.83803  1.0000
  H   H1615     1.0  0.41904  0.31942  0.97251  1.0000
  C   C1006     1.0  0.35657  0.31803  0.90193  1.0000
  H   H1616     1.0  0.33129  0.32002  0.93252  1.0000
  H   H1617     1.0  0.60538  0.04577  0.98253  1.0000
  Fe  Fe200     1.0  0.57631  0.36757  0.09204  1.0000
  S   S401      1.0  0.59876  0.35607  0.07134  1.0000
  S   S402      1.0  0.57118  0.34657  0.11735  1.0000
  Fe  Fe201     1.0  0.57475  0.40602  0.06875  1.0000
  S   S403      1.0  0.59718  0.39627  0.04677  1.0000
  S   S404      1.0  0.56696  0.43611  0.06755  1.0000
  Fe  Fe202     1.0  0.58219  0.37375  0.05151  1.0000
  S   S405      1.0  0.57751  0.35971  0.03157  1.0000
  Fe  Fe203     1.0  0.61045  0.37991  0.06970  1.0000
  H   H1618     1.0  0.53453  0.36417  0.98680  1.0000
  S   S406      1.0  0.55891  0.38436  0.07237  1.0000
  S   S407      1.0  0.58861  0.39045  0.09132  1.0000
  H   H1619     1.0  0.55541  0.34580  0.06827  1.0000
  C   C1007     1.0  0.63994  0.45600  0.21433  1.0000
  S   S408      1.0  0.46135  0.34685  0.01064  1.0000
  Fe  Fe204     1.0  0.48970  0.34664  0.01278  1.0000
  S   S409      1.0  0.49575  0.36142  0.03109  1.0000
  H   H1620     1.0  0.56968  0.37427  0.16126  1.0000
  S   S410      1.0  0.64139  0.41954  0.21960  1.0000
  H   H1621     1.0  0.62730  0.54191  0.20358  1.0000
  C   C1008     1.0  0.58193  0.37584  0.16509  1.0000
  H   H1622     1.0  0.59782  0.39057  0.13227  1.0000
  H   H1623     1.0  0.63878  0.41253  0.01687  1.0000
  H   H1624     1.0  0.43051  0.33096  0.00090  1.0000
  H   H1625     1.0  0.56679  0.53893  0.01871  1.0000
  H   H1626     1.0  0.64313  0.60442  0.20568  1.0000
  H   H1627     1.0  0.65253  0.57009  0.98669  1.0000
  H   H1628     1.0  0.62245  0.48803  0.08604  1.0000
  H   H1629     1.0  0.55533  0.36652  0.99088  1.0000
  C   C1009     1.0  0.65092  0.41853  0.01438  1.0000
  C   C1010     1.0  0.55470  0.36004  0.03187  1.0000
  C   C1011     1.0  0.55051  0.34633  0.02607  1.0000
  C   C1012     1.0  0.53249  0.34662  0.02564  1.0000
  C   C1013     1.0  0.51852  0.36052  0.03134  1.0000
  C   C1014     1.0  0.52269  0.37394  0.03758  1.0000
  C   C1015     1.0  0.54071  0.37380  0.03772  1.0000
  H   H1630     1.0  0.56123  0.33537  0.02211  1.0000
  H   H1631     1.0  0.52933  0.33599  0.02121  1.0000
  H   H1632     1.0  0.51194  0.38468  0.04207  1.0000
  H   H1633     1.0  0.54376  0.38456  0.04202  1.0000
  H   H1634     1.0  0.39713  0.36274  0.00085  1.0000
  H   H1635     1.0  0.57174  0.49013  0.03932  1.0000
  C   C1016     1.0  0.59263  0.33341  0.12023  1.0000
  C   C1017     1.0  0.60807  0.34078  0.11238  1.0000
  C   C1018     1.0  0.62525  0.33062  0.11442  1.0000
  H   H1636     1.0  0.60690  0.35448  0.10484  1.0000
  H   H1637     1.0  0.63707  0.33654  0.10824  1.0000
  C   C1019     1.0  0.59149  0.45836  0.05968  1.0000
  C   C1020     1.0  0.58475  0.44639  0.05370  1.0000
  C   C1021     1.0  0.59252  0.44236  0.03665  1.0000
  C   C1022     1.0  0.60740  0.44953  0.02595  1.0000
  H   H1638     1.0  0.58695  0.43373  0.03166  1.0000
  H   H1639     1.0  0.61341  0.44610  0.01286  1.0000
  S   S411      1.0  0.64044  0.44092  0.16635  1.0000
  H   H1640     1.0  0.60421  0.50016  0.00960  1.0000
  H   H1641     1.0  0.63972  0.48095  0.12788  1.0000
  C   C1023     1.0  0.57808  0.53007  0.01113  1.0000
  C   C1024     1.0  0.64562  0.38542  0.10472  1.0000
  H   H1642     1.0  0.65085  0.41448  0.05869  1.0000
  H   H1643     1.0  0.38222  0.35049  0.99714  1.0000
  C   C1025     1.0  0.61465  0.36985  0.15923  1.0000
  Fe  Fe205     1.0  0.64179  0.49284  0.02188  1.0000
  H   H1644     1.0  0.58625  0.50436  0.03990  1.0000
  H   H1645     1.0  0.65614  0.37336  0.10429  1.0000
  S   S412      1.0  0.64873  0.39701  0.17949  1.0000
  S   S413      1.0  0.63437  0.46801  0.01881  1.0000
  H   H1646     1.0  0.63716  0.53177  0.22316  1.0000
  H   H1647     1.0  0.55665  0.49647  0.01364  1.0000
  H   H1648     1.0  0.65238  0.48696  0.10545  1.0000
  H   H1649     1.0  0.64586  0.47778  0.08004  1.0000
  C   C1026     1.0  0.54995  0.33791  0.08165  1.0000
  C   C1027     1.0  0.59919  0.34775  0.15680  1.0000
  H   H1650     1.0  0.58400  0.32380  0.06684  1.0000
  Fe  Fe206     1.0  0.65063  0.42081  0.18953  1.0000
  N   N104      1.0  0.59872  0.36727  0.15398  1.0000
  N   N105      1.0  0.63369  0.46999  0.10801  1.0000
  C   C1028     1.0  0.61453  0.46101  0.03207  1.0000
  H   H1651     1.0  0.59295  0.50448  0.99116  1.0000
  C   C1029     1.0  0.65222  0.61323  0.19767  1.0000
  H   H1652     1.0  0.64951  0.38927  0.12978  1.0000
  H   H1653     1.0  0.43644  0.32380  0.03902  1.0000
  S   S414      1.0  0.63799  0.37901  0.07464  1.0000
  Fe  Fe207     1.0  0.64171  0.41702  0.15490  1.0000
  H   H1654     1.0  0.42990  0.35425  0.99043  1.0000
  C   C1030     1.0  0.61589  0.46690  0.11912  1.0000
  H   H1655     1.0  0.64257  0.45616  0.20004  1.0000
  H   H1656     1.0  0.58548  0.46152  0.07288  1.0000
  H   H1657     1.0  0.58770  0.37322  0.13011  1.0000
  H   H1658     1.0  0.62753  0.36402  0.15068  1.0000
  S   S415      1.0  0.65453  0.53805  0.02010  1.0000
  H   H1659     1.0  0.59090  0.53108  0.01425  1.0000
  H   H1660     1.0  0.58121  0.39059  0.16329  1.0000
  H   H1661     1.0  0.61196  0.47444  0.05372  1.0000
  S   S416      1.0  0.62029  0.41914  0.13951  1.0000
  H   H1662     1.0  0.40363  0.33206  0.05207  1.0000
  H   H1663     1.0  0.64100  0.43393  0.04399  1.0000
  C   C1031     1.0  0.64542  0.41904  0.04608  1.0000
  H   H1664     1.0  0.64784  0.50993  0.18372  1.0000
  C   C1032     1.0  0.59906  0.37569  0.13475  1.0000
  H   H1665     1.0  0.61504  0.36340  0.17357  1.0000
  C   C1033     1.0  0.64183  0.39439  0.11917  1.0000
  H   H1666     1.0  0.55986  0.51560  0.99553  1.0000
  C   C1034     1.0  0.63758  0.47207  0.22030  1.0000
  C   C1035     1.0  0.62748  0.40936  0.12030  1.0000
  H   H1667     1.0  0.61422  0.41267  0.08120  1.0000
  H   H1668     1.0  0.61158  0.45605  0.11541  1.0000
  H   H1669     1.0  0.61449  0.38443  0.15759  1.0000
  H   H1670     1.0  0.61171  0.34087  0.14861  1.0000
  H   H1671     1.0  0.54678  0.51898  0.01737  1.0000
  C   C1036     1.0  0.62184  0.40733  0.09184  1.0000
  H   H1672     1.0  0.60669  0.42758  0.10714  1.0000
  H   H1673     1.0  0.59881  0.34092  0.17118  1.0000
  H   H1674     1.0  0.64367  0.53372  0.17393  1.0000
  H   H1675     1.0  0.61638  0.46253  0.13373  1.0000
  H   H1676     1.0  0.58742  0.34533  0.15280  1.0000
  H   H1677     1.0  0.64412  0.44192  0.10699  1.0000
  C   C1037     1.0  0.63520  0.39155  0.09133  1.0000
  C   C1038     1.0  0.61775  0.41598  0.10643  1.0000
  H   H1678     1.0  0.61194  0.37028  0.12594  1.0000
  H   H1679     1.0  0.39701  0.33987  0.01268  1.0000
  H   H1680     1.0  0.58109  0.36979  0.17970  1.0000
  C   C1039     1.0  0.60642  0.46568  0.04886  1.0000
  H   H1681     1.0  0.55242  0.34381  0.09208  1.0000
  N   N106      1.0  0.65458  0.52663  0.19801  1.0000
  S   S417      1.0  0.49933  0.35460  0.98289  1.0000
  S   S418      1.0  0.61676  0.55655  0.99213  1.0000
  C   C1040     1.0  0.64746  0.45320  0.11091  1.0000
  H   H1682     1.0  0.65437  0.38644  0.03684  1.0000
  H   H1683     1.0  0.53501  0.34014  0.08305  1.0000
  H   H1684     1.0  0.56218  0.51261  0.04320  1.0000
  H   H1685     1.0  0.57871  0.53594  0.99648  1.0000
  C   C1041     1.0  0.59136  0.49985  0.00604  1.0000
  C   C1042     1.0  0.42831  0.34118  0.98848  1.0000
  H   H1686     1.0  0.65387  0.55476  0.18624  1.0000
  H   H1687     1.0  0.62876  0.46464  0.08425  1.0000
  C   C1043     1.0  0.65567  0.53246  0.09548  1.0000
  H   H1688     1.0  0.59002  0.48549  0.00937  1.0000
  C   C1044     1.0  0.55897  0.51053  0.01033  1.0000
  H   H1689     1.0  0.62897  0.49750  0.11107  1.0000
  H   H1690     1.0  0.56729  0.33276  0.99232  1.0000
  N   N107      1.0  0.57557  0.51120  0.01573  1.0000
  C   C1045     1.0  0.40866  0.32067  0.04543  1.0000
  S   S419      1.0  0.62199  0.51493  0.03411  1.0000
  H   H1691     1.0  0.64884  0.52358  0.10664  1.0000
  Fe  Fe208     1.0  0.63305  0.53322  0.00865  1.0000
  C   C1046     1.0  0.63885  0.48449  0.11337  1.0000
  Fe  Fe209     1.0  0.64563  0.51732  0.04436  1.0000
  S   S420      1.0  0.64341  0.51783  0.07360  1.0000
  C   C1047     1.0  0.39603  0.34926  0.99946  1.0000
  Fe  Fe210     1.0  0.50706  0.32475  0.98420  1.0000
  H   H1692     1.0  0.60518  0.47935  0.11747  1.0000
  H   H1693     1.0  0.63311  0.41330  0.04852  1.0000
  N   N108      1.0  0.65912  0.41345  0.03050  1.0000
  C   C1048     1.0  0.65380  0.62766  0.20430  1.0000
  C   C1049     1.0  0.57385  0.50430  0.03540  1.0000
  C   C1050     1.0  0.63869  0.43983  0.22685  1.0000
  H   H1694     1.0  0.64566  0.38082  0.22027  1.0000
  H   H1695     1.0  0.64581  0.63000  0.21727  1.0000
  H   H1696     1.0  0.64837  0.44884  0.12536  1.0000
  S   S421      1.0  0.65130  0.51095  0.99576  1.0000
  C   C1051     1.0  0.63262  0.47529  0.08873  1.0000
  C   C1052     1.0  0.65522  0.53234  0.07769  1.0000
  H   H1697     1.0  0.58225  0.32171  0.09060  1.0000
  H   H1698     1.0  0.62977  0.51808  0.21248  1.0000
  H   H1699     1.0  0.54564  0.33197  0.98882  1.0000
  C   C1053     1.0  0.63641  0.52979  0.20979  1.0000
  H   H1700     1.0  0.64650  0.43342  0.01051  1.0000
  C   C1054     1.0  0.65299  0.52258  0.18110  1.0000
  H   H1701     1.0  0.63819  0.48452  0.21049  1.0000
  N   N109      1.0  0.41030  0.34273  0.98469  1.0000
  C   C1055     1.0  0.40833  0.32484  0.98338  1.0000
  C   C1056     1.0  0.41050  0.61680  0.46909  1.0000
  C   C1057     1.0  0.63600  0.42236  0.37258  1.0000
  S   S422      1.0  0.61854  0.47386  0.30032  1.0000
  S   S423      1.0  0.39030  0.51678  0.47905  1.0000
  C   C1058     1.0  0.64311  0.39282  0.36537  1.0000
  N   N110      1.0  0.63068  0.40464  0.37727  1.0000
  C   C1059     1.0  0.63173  0.39618  0.39627  1.0000
  H   H1702     1.0  0.33830  0.62318  0.38052  1.0000
  C   C1060     1.0  0.64766  0.37207  0.23357  1.0000
  H   H1703     1.0  0.63044  0.45576  0.26564  1.0000
  C   C1061     1.0  0.36198  0.59132  0.38499  1.0000
  H   H1704     1.0  0.62808  0.35865  0.45499  1.0000
  C   C1062     1.0  0.39304  0.59415  0.47320  1.0000
  H   H1705     1.0  0.43887  0.58896  0.46538  1.0000
  C   C1063     1.0  0.61195  0.40715  0.37482  1.0000
  H   H1706     1.0  0.42580  0.57217  0.46847  1.0000
  H   H1707     1.0  0.39900  0.62509  0.47712  1.0000
  H   H1708     1.0  0.33667  0.55432  0.43971  1.0000
  H   H1709     1.0  0.60753  0.39401  0.37820  1.0000
  H   H1710     1.0  0.34848  0.58200  0.36128  1.0000
  C   C1064     1.0  0.63303  0.45589  0.25136  1.0000
  H   H1711     1.0  0.61078  0.41350  0.36058  1.0000
  H   H1712     1.0  0.63407  0.42735  0.25513  1.0000
  C   C1065     1.0  0.64528  0.34175  0.43682  1.0000
  H   H1713     1.0  0.60217  0.41602  0.38360  1.0000
  C   C1066     1.0  0.63191  0.34523  0.45209  1.0000
  C   C1067     1.0  0.32865  0.54849  0.45228  1.0000
  H   H1714     1.0  0.64028  0.36092  0.23628  1.0000
  H   H1715     1.0  0.64993  0.42096  0.37466  1.0000
  S   S424      1.0  0.65627  0.47055  0.32923  1.0000
  H   H1716     1.0  0.39149  0.59826  0.45887  1.0000
  H   H1717     1.0  0.64103  0.38054  0.24388  1.0000
  Fe  Fe211     1.0  0.39343  0.54569  0.47194  1.0000
  Fe  Fe212     1.0  0.64161  0.65179  0.26971  1.0000
  H   H1718     1.0  0.62245  0.40457  0.40575  1.0000
  C   C1068     1.0  0.33679  0.61264  0.37410  1.0000
  H   H1719     1.0  0.42000  0.65136  0.30147  1.0000
  S   S425      1.0  0.65039  0.63134  0.25205  1.0000
  H   H1720     1.0  0.61327  0.33419  0.47544  1.0000
  H   H1721     1.0  0.63591  0.42890  0.35816  1.0000
  C   C1069     1.0  0.33156  0.59212  0.40290  1.0000
  H   H1722     1.0  0.46169  0.54749  0.38014  1.0000
  S   S426      1.0  0.39763  0.56375  0.44431  1.0000
  C   C1070     1.0  0.63514  0.43981  0.24538  1.0000
  Fe  Fe213     1.0  0.63658  0.48527  0.31082  1.0000
  H   H1723     1.0  0.62814  0.38260  0.40021  1.0000
  H   H1724     1.0  0.42490  0.59075  0.44967  1.0000
  H   H1725     1.0  0.40946  0.62152  0.45464  1.0000
  Fe  Fe214     1.0  0.34891  0.61482  0.31939  1.0000
  S   S427      1.0  0.37299  0.59558  0.32930  1.0000
  H   H1726     1.0  0.62160  0.58823  0.29750  1.0000
  S   S428      1.0  0.34341  0.64441  0.31871  1.0000
  Fe  Fe215     1.0  0.46114  0.60963  0.34303  1.0000
  S   S429      1.0  0.47453  0.61341  0.36373  1.0000
  S   S430      1.0  0.43538  0.62948  0.33775  1.0000
  Fe  Fe216     1.0  0.49122  0.57796  0.33311  1.0000
  S   S431      1.0  0.50669  0.57916  0.35295  1.0000
  S   S432      1.0  0.50271  0.55857  0.31419  1.0000
  Fe  Fe217     1.0  0.47951  0.58313  0.37168  1.0000
  S   S433      1.0  0.47739  0.56630  0.39990  1.0000
  Fe  Fe218     1.0  0.50034  0.60906  0.34300  1.0000
  S   S434      1.0  0.52315  0.62420  0.33278  1.0000
  S   S435      1.0  0.46431  0.57958  0.35249  1.0000
  S   S436      1.0  0.48658  0.60771  0.32169  1.0000
  C   C1071     1.0  0.64933  0.58975  0.28506  1.0000
  H   H1727     1.0  0.65734  0.39051  0.36703  1.0000
  H   H1728     1.0  0.34488  0.61471  0.36002  1.0000
  H   H1729     1.0  0.33542  0.57830  0.41099  1.0000
  C   C1072     1.0  0.63604  0.56403  0.28773  1.0000
  H   H1730     1.0  0.48157  0.54140  0.35056  1.0000
  H   H1731     1.0  0.37068  0.59266  0.37114  1.0000
  S   S437      1.0  0.61715  0.55374  0.29576  1.0000
  H   H1732     1.0  0.47061  0.52325  0.35255  1.0000
  C   C1073     1.0  0.55171  0.51320  0.32391  1.0000
  N   N111      1.0  0.41020  0.59736  0.47526  1.0000
  C   C1074     1.0  0.52194  0.54165  0.31802  1.0000
  H   H1733     1.0  0.48324  0.65065  0.33488  1.0000
  C   C1075     1.0  0.54762  0.51931  0.30671  1.0000
  C   C1076     1.0  0.53260  0.53331  0.30386  1.0000
  H   H1734     1.0  0.52916  0.53758  0.29065  1.0000
  H   H1735     1.0  0.64695  0.50885  0.33015  1.0000
  C   C1077     1.0  0.48140  0.50307  0.38306  1.0000
  H   H1736     1.0  0.50021  0.63496  0.36522  1.0000
  C   C1078     1.0  0.34022  0.58085  0.37529  1.0000
  S   S438      1.0  0.56927  0.49445  0.32818  1.0000
  H   H1737     1.0  0.48037  0.49950  0.39796  1.0000
  H   H1738     1.0  0.35137  0.53851  0.46559  1.0000
  H   H1739     1.0  0.34443  0.56681  0.38270  1.0000
  C   C1079     1.0  0.33701  0.53950  0.46694  1.0000
  C   C1080     1.0  0.62352  0.33139  0.46370  1.0000
  H   H1740     1.0  0.50879  0.52036  0.37468  1.0000
  Fe  Fe219     1.0  0.33408  0.64743  0.29310  1.0000
  C   C1081     1.0  0.39018  0.60514  0.33176  1.0000
  C   C1082     1.0  0.38639  0.62260  0.33509  1.0000
  C   C1083     1.0  0.40027  0.62983  0.33722  1.0000
  C   C1084     1.0  0.41805  0.61972  0.33592  1.0000
  C   C1085     1.0  0.42180  0.60218  0.33283  1.0000
  C   C1086     1.0  0.40787  0.59487  0.33091  1.0000
  H   H1741     1.0  0.37273  0.63040  0.33643  1.0000
  H   H1742     1.0  0.39716  0.64319  0.34014  1.0000
  H   H1743     1.0  0.43548  0.59433  0.33160  1.0000
  H   H1744     1.0  0.41088  0.58132  0.32842  1.0000
  H   H1745     1.0  0.49486  0.51928  0.34939  1.0000
  C   C1087     1.0  0.41988  0.56377  0.43195  1.0000
  C   C1088     1.0  0.42266  0.57538  0.41502  1.0000
  C   C1089     1.0  0.44029  0.57623  0.40509  1.0000
  C   C1090     1.0  0.45521  0.56555  0.41215  1.0000
  C   C1091     1.0  0.45245  0.55388  0.42905  1.0000
  C   C1092     1.0  0.43479  0.55292  0.43892  1.0000
  H   H1746     1.0  0.41115  0.58380  0.40958  1.0000
  H   H1747     1.0  0.44232  0.58526  0.39206  1.0000
  H   H1748     1.0  0.46398  0.54554  0.43451  1.0000
  H   H1749     1.0  0.43274  0.54385  0.45192  1.0000
  Fe  Fe220     1.0  0.62027  0.52445  0.29520  1.0000
  H   H1750     1.0  0.36687  0.57760  0.39272  1.0000
  H   H1751     1.0  0.46124  0.52987  0.39975  1.0000
  H   H1752     1.0  0.36439  0.60131  0.39154  1.0000
  S   S439      1.0  0.63220  0.49254  0.24552  1.0000
  C   C1093     1.0  0.46283  0.53267  0.38480  1.0000
  H   H1753     1.0  0.64571  0.39416  0.39856  1.0000
  H   H1754     1.0  0.65381  0.54208  0.27611  1.0000
  H   H1755     1.0  0.64468  0.53088  0.31581  1.0000
  S   S440      1.0  0.34173  0.61773  0.29258  1.0000
  C   C1094     1.0  0.42563  0.58690  0.46424  1.0000
  H   H1756     1.0  0.49445  0.49510  0.37678  1.0000
  N   N112      1.0  0.56115  0.57595  0.31329  1.0000
  C   C1095     1.0  0.54536  0.58444  0.30470  1.0000
  C   C1096     1.0  0.56953  0.55823  0.30827  1.0000
  C   C1097     1.0  0.55511  0.57338  0.33311  1.0000
  C   C1098     1.0  0.57458  0.58773  0.30714  1.0000
  H   H1757     1.0  0.54934  0.58634  0.28974  1.0000
  H   H1758     1.0  0.53879  0.59791  0.30811  1.0000
  H   H1759     1.0  0.53483  0.57601  0.30927  1.0000
  H   H1760     1.0  0.58087  0.55099  0.31528  1.0000
  H   H1761     1.0  0.55957  0.54933  0.31189  1.0000
  H   H1762     1.0  0.57516  0.55967  0.29350  1.0000
  H   H1763     1.0  0.56675  0.56751  0.34002  1.0000
  H   H1764     1.0  0.54545  0.56405  0.33823  1.0000
  H   H1765     1.0  0.54817  0.58644  0.33733  1.0000
  H   H1766     1.0  0.58674  0.58161  0.31326  1.0000
  H   H1767     1.0  0.56872  0.60119  0.31082  1.0000
  H   H1768     1.0  0.57948  0.58994  0.29223  1.0000
  H   H1769     1.0  0.55566  0.51279  0.29576  1.0000
  S   S441      1.0  0.64459  0.50456  0.28489  1.0000
  S   S442      1.0  0.60102  0.51633  0.28340  1.0000
  Fe  Fe221     1.0  0.59636  0.49651  0.30956  1.0000
  C   C1099     1.0  0.65265  0.55522  0.27886  1.0000
  C   C1100     1.0  0.63429  0.47208  0.23880  1.0000
  H   H1770     1.0  0.49419  0.52593  0.39529  1.0000
  N   N113      1.0  0.34264  0.59424  0.38434  1.0000
  H   H1771     1.0  0.64793  0.60305  0.28759  1.0000
  H   H1772     1.0  0.45114  0.52913  0.38175  1.0000
  C   C1101     1.0  0.50774  0.64537  0.35801  1.0000
  H   H1773     1.0  0.62668  0.43182  0.38099  1.0000
  H   H1774     1.0  0.39252  0.57960  0.47749  1.0000
  C   C1102     1.0  0.63441  0.58131  0.29071  1.0000
  H   H1775     1.0  0.47022  0.49854  0.38012  1.0000
  Fe  Fe222     1.0  0.62487  0.49472  0.27495  1.0000
  H   H1776     1.0  0.33313  0.60190  0.41023  1.0000
  C   C1103     1.0  0.52042  0.64314  0.34209  1.0000
  H   H1777     1.0  0.64295  0.39880  0.35087  1.0000
  S   S443      1.0  0.61393  0.50615  0.32196  1.0000
  C   C1104     1.0  0.52647  0.53604  0.33504  1.0000
  H   H1778     1.0  0.51843  0.54249  0.34595  1.0000
  C   C1105     1.0  0.48189  0.52679  0.35634  1.0000
  H   H1779     1.0  0.65345  0.44637  0.30786  1.0000
  H   H1780     1.0  0.49528  0.54268  0.37491  1.0000
  C   C1106     1.0  0.54110  0.52160  0.33808  1.0000
  C   C1107     1.0  0.65006  0.32441  0.43307  1.0000
  H   H1781     1.0  0.64381  0.52844  0.33940  1.0000
  H   H1782     1.0  0.54426  0.51692  0.35139  1.0000
  N   N114      1.0  0.48036  0.52266  0.37615  1.0000
  C   C1108     1.0  0.49535  0.52807  0.38043  1.0000
  C   C1109     1.0  0.65061  0.52227  0.32743  1.0000
  H   H1783     1.0  0.63945  0.37936  0.36839  1.0000
  H   H1784     1.0  0.42329  0.61971  0.47043  1.0000
  S   S444      1.0  0.65600  0.35923  0.42292  1.0000
  H   H1785     1.0  0.66027  0.32161  0.42128  1.0000
  H   H1786     1.0  0.38106  0.60153  0.48157  1.0000
  C   C1110     1.0  0.37193  0.34531  0.66525  1.0000
  S   S445      1.0  0.33615  0.54356  0.67967  1.0000
  H   H1787     1.0  0.38120  0.34834  0.65193  1.0000
  H   H1788     1.0  0.37174  0.40661  0.71292  1.0000
  Fe  Fe223     1.0  0.46574  0.38396  0.58976  1.0000
  S   S446      1.0  0.44458  0.37424  0.58214  1.0000
  S   S447      1.0  0.49542  0.37023  0.58630  1.0000
  Fe  Fe224     1.0  0.43773  0.41156  0.60955  1.0000
  S   S448      1.0  0.41445  0.40367  0.60376  1.0000
  S   S449      1.0  0.43100  0.43547  0.62312  1.0000
  Fe  Fe225     1.0  0.42938  0.37513  0.61056  1.0000
  S   S450      1.0  0.41650  0.35279  0.62982  1.0000
  Fe  Fe226     1.0  0.43151  0.40369  0.57592  1.0000
  S   S451      1.0  0.41641  0.41603  0.55327  1.0000
  S   S452      1.0  0.45139  0.38290  0.61874  1.0000
  S   S453      1.0  0.45397  0.41354  0.58111  1.0000
  H   H1789     1.0  0.40531  0.56300  0.72804  1.0000
  H   H1790     1.0  0.43667  0.45780  0.58714  1.0000
  C   C1111     1.0  0.39677  0.33345  0.68091  1.0000
  S   S454      1.0  0.39593  0.45843  0.71777  1.0000
  S   S455      1.0  0.43687  0.41891  0.70527  1.0000
  H   H1791     1.0  0.40846  0.44843  0.57240  1.0000
  C   C1112     1.0  0.40387  0.48479  0.56524  1.0000
  Fe  Fe227     1.0  0.42281  0.44052  0.72133  1.0000
  S   S456      1.0  0.58860  0.32400  0.51238  1.0000
  S   S457      1.0  0.33686  0.59498  0.65634  1.0000
  C   C1113     1.0  0.64346  0.34070  0.54518  1.0000
  H   H1792     1.0  0.43671  0.47983  0.57282  1.0000
  H   H1793     1.0  0.63607  0.35446  0.54213  1.0000
  C   C1114     1.0  0.40705  0.32139  0.62994  1.0000
  H   H1794     1.0  0.47371  0.34214  0.59673  1.0000
  H   H1795     1.0  0.64006  0.32104  0.51289  1.0000
  H   H1796     1.0  0.41009  0.47051  0.60844  1.0000
  S   S458      1.0  0.36689  0.55540  0.48937  1.0000
  C   C1115     1.0  0.42023  0.43705  0.53999  1.0000
  C   C1116     1.0  0.40638  0.44904  0.53197  1.0000
  C   C1117     1.0  0.40875  0.46634  0.52224  1.0000
  C   C1118     1.0  0.42513  0.47157  0.52027  1.0000
  C   C1119     1.0  0.43915  0.45940  0.52786  1.0000
  C   C1120     1.0  0.43665  0.44223  0.53784  1.0000
  H   H1797     1.0  0.39367  0.44504  0.53355  1.0000
  H   H1798     1.0  0.44748  0.43297  0.54375  1.0000
  C   C1121     1.0  0.50567  0.35588  0.57088  1.0000
  C   C1122     1.0  0.52166  0.34334  0.57360  1.0000
  H   H1799     1.0  0.33287  0.54715  0.52391  1.0000
  H   H1800     1.0  0.39301  0.36825  0.66405  1.0000
  C   C1123     1.0  0.50810  0.34620  0.54307  1.0000
  C   C1124     1.0  0.49873  0.35712  0.55571  1.0000
  C   C1125     1.0  0.63489  0.32633  0.54764  1.0000
  H   H1801     1.0  0.50291  0.34750  0.53113  1.0000
  H   H1802     1.0  0.48645  0.36684  0.55345  1.0000
  C   C1126     1.0  0.43233  0.43068  0.64606  1.0000
  C   C1127     1.0  0.42630  0.44461  0.65582  1.0000
  C   C1128     1.0  0.42743  0.44112  0.67409  1.0000
  C   C1129     1.0  0.43478  0.42372  0.68258  1.0000
  C   C1130     1.0  0.44080  0.40983  0.67282  1.0000
  C   C1131     1.0  0.43949  0.41328  0.65464  1.0000
  H   H1803     1.0  0.42080  0.45808  0.64922  1.0000
  H   H1804     1.0  0.42286  0.45187  0.68156  1.0000
  H   H1805     1.0  0.44658  0.39638  0.67929  1.0000
  H   H1806     1.0  0.44426  0.40251  0.64724  1.0000
  C   C1132     1.0  0.36590  0.40655  0.72706  1.0000
  C   C1133     1.0  0.53107  0.33254  0.56093  1.0000
  H   H1807     1.0  0.45186  0.46338  0.52628  1.0000
  H   H1808     1.0  0.38885  0.45779  0.58744  1.0000
  C   C1134     1.0  0.41144  0.33773  0.61948  1.0000
  C   C1135     1.0  0.41249  0.34147  0.60085  1.0000
  H   H1809     1.0  0.41529  0.35426  0.59276  1.0000
  S   S459      1.0  0.61217  0.33142  0.54533  1.0000
  H   H1810     1.0  0.43590  0.46123  0.56385  1.0000
  H   H1811     1.0  0.37225  0.34358  0.70901  1.0000
  H   H1812     1.0  0.38985  0.48320  0.60067  1.0000
  H   H1813     1.0  0.39788  0.47566  0.51640  1.0000
  H   H1814     1.0  0.40879  0.44513  0.59579  1.0000
  H   H1815     1.0  0.40789  0.47896  0.55293  1.0000
  H   H1816     1.0  0.37040  0.37564  0.67613  1.0000
  H   H1817     1.0  0.43169  0.64674  0.67872  1.0000
  C   C1136     1.0  0.40906  0.37686  0.72952  1.0000
  N   N115      1.0  0.56438  0.36975  0.54294  1.0000
  C   C1137     1.0  0.58161  0.37089  0.52970  1.0000
  C   C1138     1.0  0.55809  0.38610  0.55081  1.0000
  C   C1139     1.0  0.56730  0.35366  0.55747  1.0000
  C   C1140     1.0  0.55054  0.36830  0.53380  1.0000
  H   H1818     1.0  0.58663  0.35874  0.52351  1.0000
  H   H1819     1.0  0.59248  0.37162  0.53622  1.0000
  H   H1820     1.0  0.58005  0.38295  0.51859  1.0000
  H   H1821     1.0  0.55574  0.39853  0.54024  1.0000
  H   H1822     1.0  0.54506  0.38562  0.56085  1.0000
  H   H1823     1.0  0.56818  0.38755  0.55790  1.0000
  H   H1824     1.0  0.57835  0.35384  0.56403  1.0000
  H   H1825     1.0  0.57127  0.34098  0.55217  1.0000
  H   H1826     1.0  0.55489  0.35282  0.56820  1.0000
  H   H1827     1.0  0.53714  0.36825  0.54320  1.0000
  H   H1828     1.0  0.55438  0.35565  0.52843  1.0000
  H   H1829     1.0  0.54853  0.37984  0.52227  1.0000
  H   H1830     1.0  0.40340  0.48340  0.66641  1.0000
  C   C1141     1.0  0.40391  0.45511  0.58421  1.0000
  H   H1831     1.0  0.42434  0.59389  0.49663  1.0000
  H   H1832     1.0  0.35875  0.35492  0.66453  1.0000
  C   C1142     1.0  0.43092  0.46753  0.57589  1.0000
  H   H1833     1.0  0.41113  0.33142  0.57809  1.0000
  H   H1834     1.0  0.36959  0.33145  0.66699  1.0000
  H   H1835     1.0  0.38855  0.36689  0.68808  1.0000
  H   H1836     1.0  0.38881  0.48853  0.56827  1.0000
  H   H1837     1.0  0.40526  0.52913  0.67059  1.0000
  N   N116      1.0  0.37960  0.34682  0.68011  1.0000
  H   H1838     1.0  0.36324  0.32972  0.69994  1.0000
  H   H1839     1.0  0.39999  0.59908  0.50324  1.0000
  H   H1840     1.0  0.41136  0.57705  0.49963  1.0000
  N   N117      1.0  0.41089  0.47185  0.58051  1.0000
  H   H1841     1.0  0.52688  0.34213  0.58550  1.0000
  H   H1842     1.0  0.41166  0.53756  0.64674  1.0000
  C   C1143     1.0  0.36662  0.34326  0.69740  1.0000
  H   H1843     1.0  0.40920  0.49744  0.56171  1.0000
  C   C1144     1.0  0.40490  0.47995  0.59672  1.0000
  H   H1844     1.0  0.40986  0.49267  0.59432  1.0000
  H   H1845     1.0  0.42325  0.63456  0.70079  1.0000
  S   S460      1.0  0.42683  0.59122  0.71574  1.0000
  Fe  Fe228     1.0  0.40646  0.47881  0.72594  1.0000
  Fe  Fe229     1.0  0.40391  0.51444  0.50200  1.0000
  H   H1846     1.0  0.43149  0.50142  0.63666  1.0000
  Fe  Fe230     1.0  0.36481  0.52647  0.49829  1.0000
  Fe  Fe231     1.0  0.38228  0.55006  0.51124  1.0000
  S   S461      1.0  0.37502  0.57225  0.52680  1.0000
  S   S462      1.0  0.37810  0.52172  0.52193  1.0000
  Fe  Fe232     1.0  0.36643  0.59613  0.64812  1.0000
  S   S463      1.0  0.37410  0.61518  0.66090  1.0000
  Fe  Fe233     1.0  0.37426  0.56996  0.62256  1.0000
  S   S464      1.0  0.34538  0.56697  0.62898  1.0000
  S   S465      1.0  0.39361  0.55174  0.60473  1.0000
  Fe  Fe234     1.0  0.34677  0.56531  0.65759  1.0000
  Fe  Fe235     1.0  0.33861  0.59694  0.62692  1.0000
  S   S466      1.0  0.36753  0.60027  0.61833  1.0000
  S   S467      1.0  0.37629  0.56615  0.65143  1.0000
  C   C1145     1.0  0.35228  0.53460  0.69330  1.0000
  C   C1146     1.0  0.36380  0.54526  0.69420  1.0000
  C   C1147     1.0  0.37919  0.53732  0.70165  1.0000
  C   C1148     1.0  0.38286  0.51874  0.70857  1.0000
  H   H1847     1.0  0.49547  0.32070  0.57890  1.0000
  C   C1149     1.0  0.35525  0.51623  0.70133  1.0000
  H   H1848     1.0  0.36110  0.55961  0.68872  1.0000
  H   H1849     1.0  0.38855  0.54552  0.70140  1.0000
  H   H1850     1.0  0.42752  0.52088  0.65861  1.0000
  C   C1150     1.0  0.38002  0.56595  0.54854  1.0000
  C   C1151     1.0  0.39197  0.54978  0.55377  1.0000
  C   C1152     1.0  0.39620  0.54545  0.57102  1.0000
  C   C1153     1.0  0.38826  0.55711  0.58316  1.0000
  C   C1154     1.0  0.37607  0.57305  0.57801  1.0000
  C   C1155     1.0  0.37212  0.57754  0.56070  1.0000
  H   H1851     1.0  0.39818  0.54081  0.54441  1.0000
  H   H1852     1.0  0.40567  0.53313  0.57491  1.0000
  H   H1853     1.0  0.36985  0.58211  0.58727  1.0000
  H   H1854     1.0  0.36287  0.59004  0.55676  1.0000
  H   H1855     1.0  0.40089  0.49762  0.68191  1.0000
  C   C1156     1.0  0.41081  0.59622  0.70195  1.0000
  C   C1157     1.0  0.41416  0.58724  0.68767  1.0000
  C   C1158     1.0  0.40229  0.59214  0.67558  1.0000
  C   C1159     1.0  0.38723  0.60627  0.67759  1.0000
  C   C1160     1.0  0.38356  0.61477  0.69225  1.0000
  C   C1161     1.0  0.39514  0.60954  0.70459  1.0000
  H   H1856     1.0  0.42621  0.57682  0.68563  1.0000
  H   H1857     1.0  0.40526  0.58561  0.66422  1.0000
  H   H1858     1.0  0.37176  0.62552  0.69395  1.0000
  H   H1859     1.0  0.39223  0.61616  0.71582  1.0000
  C   C1162     1.0  0.37054  0.50830  0.70905  1.0000
  H   H1860     1.0  0.38486  0.52893  0.64183  1.0000
  H   H1861     1.0  0.37873  0.52117  0.66576  1.0000
  H   H1862     1.0  0.45161  0.33776  0.60774  1.0000
  N   N118      1.0  0.40631  0.51072  0.65394  1.0000
  H   H1863     1.0  0.34628  0.50795  0.70080  1.0000
  C   C1163     1.0  0.41000  0.32859  0.59257  1.0000
  H   H1864     1.0  0.41211  0.49520  0.63335  1.0000
  C   C1164     1.0  0.41300  0.52521  0.65761  1.0000
  C   C1165     1.0  0.38307  0.36521  0.67693  1.0000
  S   S468      1.0  0.35652  0.37516  0.72760  1.0000
  H   H1865     1.0  0.44646  0.33548  0.57842  1.0000
  H   H1866     1.0  0.42296  0.48940  0.66965  1.0000
  S   S469      1.0  0.33689  0.52119  0.50198  1.0000
  C   C1166     1.0  0.38693  0.51703  0.65304  1.0000
  H   H1867     1.0  0.38122  0.50631  0.65083  1.0000
  H   H1868     1.0  0.41532  0.51807  0.62519  1.0000
  C   C1167     1.0  0.41678  0.50613  0.63651  1.0000
  C   C1168     1.0  0.52449  0.33415  0.54546  1.0000
  H   H1869     1.0  0.37310  0.49402  0.71472  1.0000
  S   S470      1.0  0.42807  0.49361  0.50973  1.0000
  H   H1870     1.0  0.40895  0.39097  0.72170  1.0000
  S   S471      1.0  0.40913  0.54269  0.49317  1.0000
  C   C1169     1.0  0.40850  0.49457  0.66857  1.0000
  S   S472      1.0  0.40377  0.50858  0.71474  1.0000
  S   S473      1.0  0.43428  0.46166  0.72702  1.0000
  H   H1871     1.0  0.37447  0.43073  0.72660  1.0000
  H   H1872     1.0  0.40284  0.33415  0.69206  1.0000
  C   C1170     1.0  0.41158  0.59165  0.49449  1.0000
  H   H1873     1.0  0.35374  0.35352  0.69767  1.0000
  H   H1874     1.0  0.54345  0.32306  0.56311  1.0000
  H   H1875     1.0  0.40692  0.33574  0.66807  1.0000
  H   H1876     1.0  0.41938  0.36777  0.72136  1.0000
  H   H1877     1.0  0.64251  0.33395  0.49021  1.0000
  C   C1171     1.0  0.46099  0.32891  0.57503  1.0000
  H   H1878     1.0  0.39554  0.37388  0.73063  1.0000
  H   H1879     1.0  0.32986  0.58313  0.49590  1.0000
  H   H1880     1.0  0.46855  0.33977  0.56753  1.0000
  H   H1881     1.0  0.33821  0.56759  0.52552  1.0000
  H   H1882     1.0  0.41264  0.54081  0.72303  1.0000
  C   C1172     1.0  0.46604  0.33119  0.60349  1.0000
  H   H1883     1.0  0.38292  0.64911  0.70207  1.0000
  H   H1884     1.0  0.41263  0.63646  0.68245  1.0000
  S   S474      1.0  0.53661  0.32159  0.52878  1.0000
  C   C1173     1.0  0.41911  0.64393  0.68853  1.0000
  H   H1885     1.0  0.39505  0.64736  0.71932  1.0000
  H   H1886     1.0  0.47118  0.32405  0.61599  1.0000
  H   H1887     1.0  0.44737  0.41070  0.84954  1.0000
  C   C1174     1.0  0.46227  0.41005  0.84613  1.0000
  S   S475      1.0  0.46397  0.45443  0.86638  1.0000
  H   H1888     1.0  0.36876  0.40772  0.82145  1.0000
  Fe  Fe236     1.0  0.39311  0.40554  0.87092  1.0000
  S   S476      1.0  0.41687  0.38823  0.85633  1.0000
  S   S477      1.0  0.39137  0.43543  0.86237  1.0000
  Fe  Fe237     1.0  0.37579  0.37364  0.89113  1.0000
  S   S478      1.0  0.39803  0.35373  0.87779  1.0000
  S   S479      1.0  0.35311  0.36405  0.91270  1.0000
  Fe  Fe238     1.0  0.41634  0.36906  0.88309  1.0000
  S   S480      1.0  0.44227  0.35476  0.89277  1.0000
  Fe  Fe239     1.0  0.39624  0.37493  0.85241  1.0000
  S   S481      1.0  0.39636  0.37393  0.82379  1.0000
  S   S482      1.0  0.39415  0.38756  0.89814  1.0000
  S   S483      1.0  0.37244  0.39360  0.86539  1.0000
  C   C1175     1.0  0.33510  0.36212  0.90423  1.0000
  H   H1889     1.0  0.41134  0.49450  0.85330  1.0000
  H   H1890     1.0  0.38575  0.55212  0.76697  1.0000
  H   H1891     1.0  0.54859  0.36635  0.94558  1.0000
  Fe  Fe240     1.0  0.34957  0.34980  0.74653  1.0000
  S   S484      1.0  0.37361  0.32827  0.75241  1.0000
  H   H1892     1.0  0.43593  0.53775  0.75986  1.0000
  H   H1893     1.0  0.40243  0.38692  0.77076  1.0000
  S   S485      1.0  0.41343  0.42939  0.75063  1.0000
  S   S486      1.0  0.36287  0.43684  0.76303  1.0000
  H   H1894     1.0  0.40771  0.41469  0.80797  1.0000
  H   H1895     1.0  0.46619  0.40761  0.88021  1.0000
  C   C1176     1.0  0.45671  0.47873  0.79802  1.0000
  C   C1177     1.0  0.53438  0.61163  0.83079  1.0000
  C   C1178     1.0  0.64069  0.62179  0.86324  1.0000
  H   H1896     1.0  0.48344  0.56743  0.74441  1.0000
  C   C1179     1.0  0.35078  0.40667  0.76351  1.0000
  C   C1180     1.0  0.34955  0.39272  0.75583  1.0000
  H   H1897     1.0  0.43216  0.55717  0.74204  1.0000
  H   H1898     1.0  0.34497  0.40666  0.77764  1.0000
  N   N119      1.0  0.38090  0.43112  0.81274  1.0000
  C   C1181     1.0  0.44546  0.35979  0.91232  1.0000
  C   C1182     1.0  0.43579  0.37563  0.91824  1.0000
  C   C1183     1.0  0.43892  0.37959  0.93357  1.0000
  C   C1184     1.0  0.45158  0.36764  0.94322  1.0000
  C   C1185     1.0  0.46129  0.35182  0.93728  1.0000
  C   C1186     1.0  0.45833  0.34798  0.92179  1.0000
  H   H1899     1.0  0.42617  0.38505  0.91084  1.0000
  H   H1900     1.0  0.43148  0.39193  0.93799  1.0000
  H   H1901     1.0  0.47126  0.34265  0.94445  1.0000
  H   H1902     1.0  0.46600  0.33579  0.91718  1.0000
  C   C1187     1.0  0.38633  0.35780  0.82010  1.0000
  C   C1188     1.0  0.38479  0.34166  0.83262  1.0000
  Fe  Fe241     1.0  0.42087  0.60626  0.73834  1.0000
  H   H1903     1.0  0.39499  0.35763  0.96430  1.0000
  C   C1189     1.0  0.37390  0.34769  0.79970  1.0000
  C   C1190     1.0  0.38059  0.36089  0.80380  1.0000
  H   H1904     1.0  0.38921  0.33919  0.84522  1.0000
  C   C1191     1.0  0.40860  0.35563  0.96744  1.0000
  H   H1905     1.0  0.38116  0.37359  0.79442  1.0000
  S   S487      1.0  0.33383  0.34452  0.77496  1.0000
  H   H1906     1.0  0.39020  0.50973  0.85892  1.0000
  C   C1192     1.0  0.39806  0.42155  0.81855  1.0000
  S   S488      1.0  0.39496  0.47080  0.75536  1.0000
  S   S489      1.0  0.43333  0.44742  0.78088  1.0000
  H   H1907     1.0  0.46177  0.47800  0.80984  1.0000
  H   H1908     1.0  0.52896  0.60240  0.86703  1.0000
  C   C1193     1.0  0.44353  0.44963  0.86529  1.0000
  C   C1194     1.0  0.43519  0.45803  0.85060  1.0000
  C   C1195     1.0  0.41900  0.45381  0.84983  1.0000
  C   C1196     1.0  0.41144  0.44077  0.86349  1.0000
  C   C1197     1.0  0.41990  0.43216  0.87805  1.0000
  C   C1198     1.0  0.43574  0.43684  0.87910  1.0000
  H   H1909     1.0  0.44141  0.46742  0.83959  1.0000
  H   H1910     1.0  0.41264  0.46030  0.83839  1.0000
  H   H1911     1.0  0.41400  0.42218  0.88871  1.0000
  H   H1912     1.0  0.44194  0.43056  0.89068  1.0000
  H   H1913     1.0  0.46447  0.42305  0.84765  1.0000
  H   H1914     1.0  0.43941  0.48043  0.75521  1.0000
  H   H1915     1.0  0.37483  0.45016  0.83002  1.0000
  C   C1199     1.0  0.44912  0.46464  0.79708  1.0000
  H   H1916     1.0  0.40208  0.52611  0.88426  1.0000
  H   H1917     1.0  0.44820  0.45324  0.80828  1.0000
  H   H1918     1.0  0.49329  0.40785  0.85622  1.0000
  N   N120      1.0  0.47186  0.39450  0.85778  1.0000
  C   C1200     1.0  0.46977  0.37749  0.85436  1.0000
  C   C1201     1.0  0.49130  0.39514  0.85372  1.0000
  C   C1202     1.0  0.46414  0.39533  0.87696  1.0000
  H   H1919     1.0  0.47649  0.36548  0.86323  1.0000
  H   H1920     1.0  0.47558  0.37623  0.84008  1.0000
  H   H1921     1.0  0.45525  0.37667  0.85723  1.0000
  H   H1922     1.0  0.49758  0.39461  0.83934  1.0000
  H   H1923     1.0  0.49894  0.38362  0.86231  1.0000
  H   H1924     1.0  0.47050  0.38339  0.88616  1.0000
  H   H1925     1.0  0.44931  0.39555  0.88035  1.0000
  H   H1926     1.0  0.36568  0.43029  0.83994  1.0000
  H   H1927     1.0  0.39560  0.41105  0.83093  1.0000
  H   H1928     1.0  0.55650  0.34233  0.94724  1.0000
  C   C1203     1.0  0.44279  0.46525  0.78169  1.0000
  H   H1929     1.0  0.43125  0.50531  0.87713  1.0000
  H   H1930     1.0  0.49374  0.60403  0.85669  1.0000
  C   C1204     1.0  0.36864  0.44016  0.82707  1.0000
  C   C1205     1.0  0.37218  0.41808  0.80910  1.0000
  Fe  Fe242     1.0  0.38726  0.44854  0.74763  1.0000
  H   H1931     1.0  0.39162  0.45470  0.79828  1.0000
  H   H1932     1.0  0.40495  0.43098  0.82153  1.0000
  H   H1933     1.0  0.44192  0.37019  0.73731  1.0000
  C   C1206     1.0  0.35994  0.42033  0.75303  1.0000
  H   H1934     1.0  0.59926  0.57933  0.96368  1.0000
  Fe  Fe243     1.0  0.42192  0.45227  0.75609  1.0000
  H   H1935     1.0  0.34271  0.38207  0.76403  1.0000
  H   H1936     1.0  0.38126  0.41076  0.79860  1.0000
  H   H1937     1.0  0.35947  0.42493  0.80413  1.0000
  H   H1938     1.0  0.46707  0.40939  0.83160  1.0000
  H   H1939     1.0  0.35551  0.44740  0.82316  1.0000
  H   H1940     1.0  0.53534  0.35083  0.96066  1.0000
  H   H1941     1.0  0.37224  0.45221  0.79118  1.0000
  H   H1942     1.0  0.39407  0.43825  0.78517  1.0000
  H   H1943     1.0  0.56625  0.50868  0.93430  1.0000
  C   C1207     1.0  0.38482  0.44474  0.79614  1.0000
  H   H1944     1.0  0.57328  0.49383  0.91845  1.0000
  C   C1208     1.0  0.40440  0.50540  0.86097  1.0000
  C   C1209     1.0  0.44412  0.47999  0.76719  1.0000
  H   H1945     1.0  0.46066  0.57493  0.78164  1.0000
  H   H1946     1.0  0.63906  0.62638  0.89649  1.0000
  N   N121      1.0  0.41119  0.54172  0.75063  1.0000
  C   C1210     1.0  0.40035  0.55270  0.76405  1.0000
  C   C1211     1.0  0.37295  0.33129  0.81194  1.0000
  C   C1212     1.0  0.45183  0.49405  0.76810  1.0000
  H   H1947     1.0  0.40506  0.54799  0.77709  1.0000
  H   H1948     1.0  0.41890  0.35086  0.95593  1.0000
  H   H1949     1.0  0.60010  0.63616  0.88968  1.0000
  H   H1950     1.0  0.41109  0.51715  0.85471  1.0000
  C   C1213     1.0  0.56511  0.64185  0.83545  1.0000
  H   H1951     1.0  0.39599  0.51004  0.90452  1.0000
  S   S490      1.0  0.39301  0.61735  0.75272  1.0000
  C   C1214     1.0  0.61006  0.55151  0.97443  1.0000
  H   H1952     1.0  0.54271  0.62195  0.82837  1.0000
  N   N122      1.0  0.55863  0.35227  0.96970  1.0000
  H   H1953     1.0  0.49399  0.55871  0.79727  1.0000
  C   C1215     1.0  0.41312  0.35579  0.75748  1.0000
  H   H1954     1.0  0.61442  0.61407  0.89225  1.0000
  H   H1955     1.0  0.63528  0.61807  0.85314  1.0000
  S   S491      1.0  0.49228  0.48489  0.82558  1.0000
  S   S492      1.0  0.41298  0.62715  0.78048  1.0000
  C   C1216     1.0  0.39616  0.48358  0.88801  1.0000
  H   H1956     1.0  0.44387  0.65053  0.75980  1.0000
  Fe  Fe244     1.0  0.40363  0.60328  0.77786  1.0000
  S   S493      1.0  0.38722  0.58669  0.80079  1.0000
  Fe  Fe245     1.0  0.49634  0.50626  0.83787  1.0000
  S   S494      1.0  0.47524  0.50082  0.86310  1.0000
  S   S495      1.0  0.52456  0.50944  0.83682  1.0000
  Fe  Fe246     1.0  0.47170  0.50706  0.81320  1.0000
  Fe  Fe247     1.0  0.45615  0.52155  0.84749  1.0000
  S   S496      1.0  0.43274  0.54121  0.85956  1.0000
  S   S497      1.0  0.47767  0.52877  0.82342  1.0000
  Fe  Fe248     1.0  0.58286  0.55982  0.90742  1.0000
  S   S498      1.0  0.58253  0.54904  0.88355  1.0000
  S   S499      1.0  0.58811  0.53800  0.93171  1.0000
  Fe  Fe249     1.0  0.57205  0.59878  0.88829  1.0000
  S   S500      1.0  0.57050  0.59078  0.86330  1.0000
  S   S501      1.0  0.56441  0.62844  0.88875  1.0000
  Fe  Fe250     1.0  0.55665  0.56939  0.88205  1.0000
  S   S502      1.0  0.52962  0.56512  0.88048  1.0000
  Fe  Fe251     1.0  0.59658  0.57151  0.86736  1.0000
  S   S503      1.0  0.61874  0.56773  0.84303  1.0000
  S   S504      1.0  0.55602  0.57885  0.90697  1.0000
  S   S505      1.0  0.59911  0.58076  0.89130  1.0000
  Fe  Fe252     1.0  0.46953  0.48131  0.84965  1.0000
  C   C1217     1.0  0.42415  0.49380  0.88242  1.0000
  H   H1957     1.0  0.52954  0.62586  0.85979  1.0000
  H   H1958     1.0  0.34251  0.32349  0.89959  1.0000
  Fe  Fe253     1.0  0.35674  0.32123  0.78002  1.0000
  C   C1218     1.0  0.59506  0.56154  0.94878  1.0000
  C   C1219     1.0  0.36747  0.42023  0.73480  1.0000
  Fe  Fe254     1.0  0.43934  0.61571  0.76387  1.0000
  C   C1220     1.0  0.55957  0.64018  0.86766  1.0000
  H   H1959     1.0  0.64531  0.60912  0.87266  1.0000
  H   H1960     1.0  0.39518  0.52119  0.76018  1.0000
  C   C1221     1.0  0.57030  0.63454  0.85205  1.0000
  H   H1961     1.0  0.57312  0.63681  0.82358  1.0000
  H   H1962     1.0  0.58243  0.62416  0.85283  1.0000
  C   C1222     1.0  0.52585  0.52551  0.84831  1.0000
  C   C1223     1.0  0.51028  0.53428  0.85865  1.0000
  C   C1224     1.0  0.51162  0.54664  0.86822  1.0000
  C   C1225     1.0  0.52849  0.55036  0.86742  1.0000
  C   C1226     1.0  0.54404  0.54193  0.85676  1.0000
  C   C1227     1.0  0.54272  0.52941  0.84732  1.0000
  H   H1963     1.0  0.49722  0.53138  0.85943  1.0000
  H   H1964     1.0  0.49953  0.55317  0.87641  1.0000
  H   H1965     1.0  0.55709  0.54489  0.85593  1.0000
  H   H1966     1.0  0.55478  0.52272  0.83923  1.0000
  C   C1228     1.0  0.40001  0.57400  0.81696  1.0000
  C   C1229     1.0  0.39255  0.57351  0.83533  1.0000
  C   C1230     1.0  0.40275  0.56366  0.84837  1.0000
  C   C1231     1.0  0.42024  0.55384  0.84311  1.0000
  C   C1232     1.0  0.42747  0.55383  0.82478  1.0000
  C   C1233     1.0  0.41748  0.56412  0.81170  1.0000
  H   H1967     1.0  0.37903  0.58110  0.83943  1.0000
  H   H1968     1.0  0.39707  0.56367  0.86251  1.0000
  H   H1969     1.0  0.44079  0.54601  0.82066  1.0000
  H   H1970     1.0  0.42316  0.56412  0.79758  1.0000
  H   H1971     1.0  0.49021  0.62850  0.78449  1.0000
  H   H1972     1.0  0.45313  0.50524  0.75677  1.0000
  S   S506      1.0  0.33659  0.33248  0.73694  1.0000
  C   C1234     1.0  0.59723  0.54360  0.94742  1.0000
  C   C1235     1.0  0.60608  0.52969  0.95935  1.0000
  H   H1973     1.0  0.42377  0.34604  0.75037  1.0000
  H   H1974     1.0  0.41746  0.51407  0.74766  1.0000
  S   S507      1.0  0.46689  0.51149  0.78509  1.0000
  N   N123      1.0  0.48732  0.56048  0.77177  1.0000
  C   C1236     1.0  0.56687  0.50789  0.92014  1.0000
  C   C1237     1.0  0.48936  0.57208  0.75351  1.0000
  C   C1238     1.0  0.46785  0.56110  0.77964  1.0000
  C   C1239     1.0  0.64484  0.57634  0.85598  1.0000
  H   H1975     1.0  0.51009  0.56683  0.77785  1.0000
  H   H1976     1.0  0.53939  0.53332  0.93249  1.0000
  C   C1240     1.0  0.49663  0.54170  0.77053  1.0000
  H   H1977     1.0  0.54243  0.48720  0.92541  1.0000
  H   H1978     1.0  0.43122  0.39315  0.73827  1.0000
  H   H1979     1.0  0.40315  0.47210  0.88111  1.0000
  H   H1980     1.0  0.49072  0.53622  0.76204  1.0000
  H   H1981     1.0  0.54930  0.54182  0.90962  1.0000
  H   H1982     1.0  0.50386  0.57216  0.74720  1.0000
  H   H1983     1.0  0.53693  0.51719  0.89249  1.0000
  S   S508      1.0  0.44866  0.50172  0.83618  1.0000
  H   H1984     1.0  0.50272  0.60185  0.83358  1.0000
  Fe  Fe255     1.0  0.40504  0.64019  0.75381  1.0000
  H   H1985     1.0  0.51423  0.58807  0.85102  1.0000
  H   H1986     1.0  0.53532  0.50148  0.94174  1.0000
  H   H1987     1.0  0.51414  0.64452  0.83540  1.0000
  N   N124      1.0  0.54873  0.51361  0.91553  1.0000
  H   H1988     1.0  0.39634  0.47858  0.90262  1.0000
  H   H1989     1.0  0.55651  0.49922  0.89373  1.0000
  H   H1990     1.0  0.48232  0.58631  0.75394  1.0000
  S   S509      1.0  0.46539  0.61543  0.77154  1.0000
  H   H1991     1.0  0.38560  0.38321  0.76085  1.0000
  C   C1241     1.0  0.55039  0.51301  0.89643  1.0000
  H   H1992     1.0  0.58815  0.57234  0.93965  1.0000
  H   H1993     1.0  0.49534  0.53253  0.78405  1.0000
  H   H1994     1.0  0.52307  0.50541  0.92406  1.0000
  C   C1242     1.0  0.63469  0.63880  0.88663  1.0000
  N   N125      1.0  0.62696  0.63472  0.87308  1.0000
  S   S510      1.0  0.48067  0.32287  0.97915  1.0000
  H   H1995     1.0  0.61572  0.64891  0.84978  1.0000
  H   H1996     1.0  0.38118  0.51860  0.88862  1.0000
  H   H1997     1.0  0.54271  0.59827  0.83581  1.0000
  H   H1998     1.0  0.60482  0.62327  0.87251  1.0000
  C   C1243     1.0  0.39562  0.51412  0.88990  1.0000
  H   H1999     1.0  0.42521  0.48866  0.89682  1.0000
  C   C1244     1.0  0.64091  0.56926  0.84298  1.0000
  C   C1245     1.0  0.54074  0.53223  0.91828  1.0000
  C   C1246     1.0  0.45796  0.49353  0.78360  1.0000
  H   H2000     1.0  0.46572  0.55191  0.79302  1.0000
  C   C1247     1.0  0.49540  0.56710  0.78335  1.0000
  H   H2001     1.0  0.60794  0.51581  0.95820  1.0000
  H   H2002     1.0  0.58454  0.35484  0.97244  1.0000
  C   C1248     1.0  0.61262  0.53363  0.97272  1.0000
  H   H2003     1.0  0.55908  0.52227  0.88720  1.0000
  H   H2004     1.0  0.52709  0.53712  0.91476  1.0000
  C   C1249     1.0  0.65776  0.57685  0.97262  1.0000
  S   S511      1.0  0.43068  0.59060  0.76346  1.0000
  H   H2005     1.0  0.51135  0.54070  0.76462  1.0000
  H   H2006     1.0  0.48866  0.58127  0.78453  1.0000
  H   H2007     1.0  0.63409  0.58085  0.86664  1.0000
  N   N126      1.0  0.51719  0.61573  0.84383  1.0000
  C   C1250     1.0  0.50672  0.63367  0.83686  1.0000
  C   C1251     1.0  0.50647  0.60184  0.84638  1.0000
  C   C1252     1.0  0.52121  0.61576  0.86129  1.0000
  H   H2008     1.0  0.34741  0.37017  0.87626  1.0000
  Fe  Fe256     1.0  0.47199  0.35209  0.98062  1.0000
  H   H2009     1.0  0.49341  0.63694  0.84609  1.0000
  H   H2010     1.0  0.50407  0.63444  0.82333  1.0000
  H   H2011     1.0  0.65289  0.62751  0.85586  1.0000
  H   H2012     1.0  0.58530  0.34475  0.95397  1.0000
  H   H2013     1.0  0.43460  0.37719  0.75870  1.0000
  S   S512      1.0  0.43227  0.63025  0.73718  1.0000
  S   S513      1.0  0.45452  0.37278  0.96280  1.0000
  C   C1253     1.0  0.33588  0.36566  0.88563  1.0000
  C   C1254     1.0  0.35713  0.39267  0.73758  1.0000
  C   C1255     1.0  0.65497  0.56328  0.82932  1.0000
  C   C1256     1.0  0.40951  0.52265  0.75757  1.0000
  C   C1257     1.0  0.53687  0.50136  0.92723  1.0000
  H   H2014     1.0  0.50861  0.61892  0.87148  1.0000
  C   C1258     1.0  0.54941  0.35305  0.95512  1.0000
  H   H2015     1.0  0.57623  0.51673  0.91138  1.0000
  N   N127      1.0  0.40508  0.49922  0.88033  1.0000
  C   C1259     1.0  0.37816  0.32839  0.82851  1.0000
  H   H2016     1.0  0.43187  0.48296  0.87498  1.0000
  H   H2017     1.0  0.39747  0.40107  0.74994  1.0000
  H   H2018     1.0  0.38179  0.48706  0.88651  1.0000
  H   H2019     1.0  0.56602  0.32324  0.97425  1.0000
  H   H2020     1.0  0.40133  0.56718  0.75917  1.0000
  H   H2021     1.0  0.39983  0.35208  0.75905  1.0000
  H   H2022     1.0  0.53191  0.61136  0.81749  1.0000
  H   H2023     1.0  0.65204  0.55776  0.81929  1.0000
  H   H2024     1.0  0.46113  0.55683  0.77094  1.0000
  H   H2025     1.0  0.36958  0.35017  0.78705  1.0000
  C   C1260     1.0  0.46689  0.63740  0.77209  1.0000
  C   C1261     1.0  0.61091  0.62671  0.88229  1.0000
  H   H2026     1.0  0.33373  0.33478  0.82745  1.0000
  C   C1262     1.0  0.48061  0.64003  0.77919  1.0000
  C   C1263     1.0  0.60134  0.56547  0.96238  1.0000
  H   H2027     1.0  0.61923  0.52279  0.98194  1.0000
  C   C1264     1.0  0.39905  0.38697  0.75776  1.0000
  H   H2028     1.0  0.62470  0.64852  0.89433  1.0000
  H   H2029     1.0  0.54706  0.38007  0.97128  1.0000
  N   N128      1.0  0.41308  0.37461  0.74753  1.0000
  C   C1265     1.0  0.62159  0.65155  0.86018  1.0000
  H   H2030     1.0  0.57716  0.36867  0.95244  1.0000
  H   H2031     1.0  0.43898  0.53497  0.73708  1.0000
  H   H2032     1.0  0.41559  0.35383  0.77134  1.0000
  C   C1266     1.0  0.43100  0.37891  0.74539  1.0000
  C   C1267     1.0  0.57724  0.35528  0.96176  1.0000
  H   H2033     1.0  0.36264  0.32980  0.90081  1.0000
  H   H2034     1.0  0.41076  0.36908  0.96776  1.0000
  C   C1268     1.0  0.43043  0.54295  0.74727  1.0000
  H   H2035     1.0  0.64683  0.64489  0.88014  1.0000
  H   H2036     1.0  0.41449  0.51693  0.77040  1.0000
  H   H2037     1.0  0.65847  0.59078  0.97296  1.0000
  H   H2038     1.0  0.35071  0.32752  0.93387  1.0000
  C   C1269     1.0  0.54846  0.36638  0.98009  1.0000
  H   H2039     1.0  0.64741  0.57792  0.96466  1.0000
  H   H2040     1.0  0.39491  0.32553  0.98042  1.0000
  H   H2041     1.0  0.39017  0.54748  0.73549  1.0000
  H   H2042     1.0  0.43942  0.33721  0.97717  1.0000
  C   C1270     1.0  0.55946  0.33430  0.98182  1.0000
  C   C1271     1.0  0.45454  0.65238  0.76523  1.0000
  C   C1272     1.0  0.40453  0.54857  0.73357  1.0000
  C   C1273     1.0  0.40435  0.97615  0.22414  1.0000
  S   S514      1.0  0.39105  0.91562  0.99142  1.0000
  S   S515      1.0  0.34191  0.76502  0.17803  1.0000
  H   H2043     1.0  0.36148  0.87467  0.07826  1.0000
  H   H2044     1.0  0.46251  0.90945  0.99162  1.0000
  H   H2045     1.0  0.36246  0.82884  0.22240  1.0000
  C   C1274     1.0  0.41437  0.97374  0.02393  1.0000
  H   H2046     1.0  0.34023  0.87742  0.09419  1.0000
  H   H2047     1.0  0.38833  0.82674  0.18568  1.0000
  C   C1275     1.0  0.35106  0.86075  0.05582  1.0000
  Fe  Fe257     1.0  0.40722  0.88387  0.03335  1.0000
  S   S516      1.0  0.41468  0.86882  0.05978  1.0000
  H   H2048     1.0  0.40838  0.74237  0.14352  1.0000
  H   H2049     1.0  0.39572  0.73191  0.20214  1.0000
  Fe  Fe258     1.0  0.42589  0.92618  0.16631  1.0000
  S   S517      1.0  0.39999  0.94164  0.15784  1.0000
  S   S518      1.0  0.45259  0.93282  0.15100  1.0000
  H   H2050     1.0  0.38534  0.78958  0.19552  1.0000
  C   C1276     1.0  0.41313  0.95599  0.02457  1.0000
  Fe  Fe259     1.0  0.39323  0.91438  0.16245  1.0000
  S   S519      1.0  0.38437  0.90581  0.14125  1.0000
  Fe  Fe260     1.0  0.38915  0.93999  0.18756  1.0000
  S   S520      1.0  0.42020  0.89901  0.16842  1.0000
  C   C1277     1.0  0.38513  0.83550  0.09709  1.0000
  H   H2051     1.0  0.45466  0.94169  0.10815  1.0000
  C   C1278     1.0  0.36872  0.87939  0.13807  1.0000
  C   C1279     1.0  0.33341  0.88985  0.06102  1.0000
  H   H2052     1.0  0.45057  0.95723  0.08768  1.0000
  H   H2053     1.0  0.37679  0.88057  0.12449  1.0000
  C   C1280     1.0  0.40237  0.85176  0.07016  1.0000
  C   C1281     1.0  0.39915  0.84124  0.05980  1.0000
  C   C1282     1.0  0.38925  0.82764  0.06809  1.0000
  H   H2054     1.0  0.40461  0.84334  0.04543  1.0000
  H   H2055     1.0  0.35738  0.79212  0.18463  1.0000
  H   H2056     1.0  0.35229  0.85531  0.09112  1.0000
  C   C1283     1.0  0.38736  0.74505  0.19830  1.0000
  C   C1284     1.0  0.37177  0.74651  0.19182  1.0000
  C   C1285     1.0  0.36111  0.76349  0.18653  1.0000
  C   C1286     1.0  0.36590  0.77902  0.18807  1.0000
  C   C1287     1.0  0.38155  0.77757  0.19450  1.0000
  H   H2057     1.0  0.45606  0.93344  0.08830  1.0000
  C   C1288     1.0  0.42755  0.97703  0.03140  1.0000
  H   H2058     1.0  0.37947  0.83355  0.11143  1.0000
  C   C1289     1.0  0.43575  0.96858  0.14789  1.0000
  H   H2059     1.0  0.42278  0.95785  0.07621  1.0000
  H   H2060     1.0  0.42514  0.96425  0.15887  1.0000
  N   N129      1.0  0.39889  0.77005  0.13140  1.0000
  H   H2061     1.0  0.44701  0.95656  0.99876  1.0000
  C   C1290     1.0  0.40768  0.76771  0.11278  1.0000
  H   H2062     1.0  0.37967  0.87089  0.19907  1.0000
  H   H2063     1.0  0.40752  0.96074  0.20395  1.0000
  H   H2064     1.0  0.42081  0.97173  0.10186  1.0000
  H   H2065     1.0  0.38574  0.85077  0.17764  1.0000
  H   H2066     1.0  0.37668  0.86183  0.22286  1.0000
  N   N130      1.0  0.33896  0.87071  0.06957  1.0000
  C   C1291     1.0  0.44179  0.88575  0.21979  1.0000
  C   C1292     1.0  0.34677  0.87914  0.99997  1.0000
  H   H2067     1.0  0.37502  0.86634  0.99572  1.0000
  S   S521      1.0  0.41566  0.92645  0.19570  1.0000
  H   H2068     1.0  0.42293  0.75742  0.14213  1.0000
  H   H2069     1.0  0.40438  0.95851  0.11530  1.0000
  H   H2070     1.0  0.61473  0.69088  0.20245  1.0000
  H   H2071     1.0  0.42207  0.76914  0.10944  1.0000
  C   C1293     1.0  0.45115  0.95596  0.14216  1.0000
  Fe  Fe261     1.0  0.41583  0.89349  0.99228  1.0000
  H   H2072     1.0  0.34433  0.86172  0.04456  1.0000
  H   H2073     1.0  0.40654  0.84088  0.21812  1.0000
  H   H2074     1.0  0.42866  0.93376  0.07856  1.0000
  H   H2075     1.0  0.43216  0.92440  0.12677  1.0000
  Fe  Fe262     1.0  0.34820  0.81276  0.12173  1.0000
  H   H2076     1.0  0.39192  0.79897  0.12383  1.0000
  H   H2077     1.0  0.40741  0.75420  0.11081  1.0000
  H   H2078     1.0  0.44777  0.93357  0.04601  1.0000
  C   C1294     1.0  0.38193  0.82501  0.08664  1.0000
  Fe  Fe263     1.0  0.40722  0.90081  0.19701  1.0000
  S   S522      1.0  0.42431  0.90217  0.01351  1.0000
  S   S523      1.0  0.40121  0.87283  0.01216  1.0000
  H   H2079     1.0  0.40064  0.77805  0.10271  1.0000
  C   C1295     1.0  0.43847  0.94484  0.03984  1.0000
  C   C1296     1.0  0.37722  0.82781  0.22115  1.0000
  N   N131      1.0  0.38416  0.84191  0.20631  1.0000
  S   S524      1.0  0.37962  0.91419  0.19147  1.0000
  H   H2080     1.0  0.39806  0.85692  0.09687  1.0000
  S   S525      1.0  0.41249  0.75879  0.20640  1.0000
  S   S526      1.0  0.39731  0.95206  0.01421  1.0000
  H   H2081     1.0  0.59277  0.70346  0.21107  1.0000
  C   C1297     1.0  0.46305  0.97978  0.11924  1.0000
  C   C1298     1.0  0.39232  0.76058  0.19955  1.0000
  H   H2082     1.0  0.36810  0.73447  0.19068  1.0000
  S   S527      1.0  0.35500  0.80958  0.14856  1.0000
  C   C1299     1.0  0.42505  0.94157  0.03280  1.0000
  H   H2083     1.0  0.40683  0.94420  0.08969  1.0000
  C   C1300     1.0  0.39558  0.84874  0.08886  1.0000
  C   C1301     1.0  0.42777  0.87682  0.22958  1.0000
  C   C1302     1.0  0.40379  0.83989  0.20514  1.0000
  H   H2084     1.0  0.42435  0.95761  0.12312  1.0000
  C   C1303     1.0  0.37986  0.76803  0.13512  1.0000
  H   H2085     1.0  0.36009  0.89716  0.17551  1.0000
  H   H2086     1.0  0.37267  0.77009  0.14888  1.0000
  C   C1304     1.0  0.35704  0.86705  0.14432  1.0000
  H   H2087     1.0  0.38691  0.81942  0.06002  1.0000
  H   H2088     1.0  0.36364  0.86621  0.04974  1.0000
  H   H2089     1.0  0.41208  0.92514  0.11913  1.0000
  C   C1305     1.0  0.43970  0.96254  0.03927  1.0000
  Fe  Fe264     1.0  0.39849  0.92290  0.01414  1.0000
  H   H2090     1.0  0.39317  0.79037  0.14723  1.0000
  C   C1306     1.0  0.35950  0.88863  0.16688  1.0000
  H   H2091     1.0  0.40211  0.75778  0.15861  1.0000
  C   C1307     1.0  0.40853  0.75628  0.14445  1.0000
  H   H2092     1.0  0.41152  0.82658  0.20209  1.0000
  S   S528      1.0  0.45645  0.96574  0.04887  1.0000
  C   C1308     1.0  0.36997  0.89019  0.14936  1.0000
  Fe  Fe265     1.0  0.33498  0.79144  0.15889  1.0000
  S   S529      1.0  0.38187  0.90523  0.03548  1.0000
  H   H2093     1.0  0.37220  0.77802  0.12539  1.0000
  H   H2094     1.0  0.42393  0.92787  0.03382  1.0000
  C   C1309     1.0  0.46501  0.96168  0.12820  1.0000
  S   S530      1.0  0.37102  0.96359  0.19906  1.0000
  S   S531      1.0  0.40963  0.87725  0.22007  1.0000
  H   H2095     1.0  0.37891  0.75436  0.13420  1.0000
  C   C1310     1.0  0.39940  0.78824  0.13324  1.0000
  H   H2096     1.0  0.47704  0.95199  0.12391  1.0000
  C   C1311     1.0  0.34867  0.86951  0.08390  1.0000
  C   C1312     1.0  0.36209  0.86765  0.99236  1.0000
  H   H2097     1.0  0.44222  0.89209  0.20572  1.0000
  H   H2098     1.0  0.35615  0.85873  0.13560  1.0000
  S   S532      1.0  0.36850  0.80880  0.09620  1.0000
  N   N132      1.0  0.42892  0.94331  0.10190  1.0000
  C   C1313     1.0  0.42664  0.92603  0.11452  1.0000
  C   C1314     1.0  0.41914  0.95848  0.11093  1.0000
  C   C1315     1.0  0.42145  0.94485  0.08589  1.0000
  C   C1316     1.0  0.44840  0.94392  0.09627  1.0000
  H   H2099     1.0  0.43377  0.91428  0.10809  1.0000
  C   C1317     1.0  0.46260  0.92248  0.99488  1.0000
  C   C1318     1.0  0.37460  0.85995  0.20994  1.0000
  H   H2100     1.0  0.41354  0.79036  0.13013  1.0000
  Fe  Fe266     1.0  0.37696  0.89570  0.01280  1.0000
  H   H2101     1.0  0.36638  0.84119  0.18962  1.0000
  H   H2102     1.0  0.41871  0.97335  0.22402  1.0000
  C   C1319     1.0  0.34760  0.87659  0.17299  1.0000
  C   C1320     1.0  0.60156  0.68972  0.21205  1.0000
  C   C1321     1.0  0.38106  0.84004  0.18906  1.0000
  C   C1322     1.0  0.34635  0.86577  0.16176  1.0000
  C   C1323     1.0  0.39801  0.96886  0.21288  1.0000
  C   C1324     1.0  0.37947  0.97255  0.21288  1.0000
  S   S533      1.0  0.34860  0.89297  0.01367  1.0000
  H   H2103     1.0  0.35520  0.84618  0.06175  1.0000
  H   H2104     1.0  0.35413  0.76240  0.22512  1.0000
  H   H2105     1.0  0.34538  0.89620  0.05461  1.0000
  S   S534      1.0  0.33024  0.79257  0.13151  1.0000
  H   H2106     1.0  0.40941  0.85066  0.19447  1.0000
  N   N133      1.0  0.60429  0.68186  0.23068  1.0000
  C   C1325     1.0  0.33151  0.73980  0.23126  1.0000
  H   H2107     1.0  0.46596  0.89381  0.22084  1.0000
  C   C1326     1.0  0.45525  0.88667  0.22832  1.0000
  H   H2108     1.0  0.47377  0.98405  0.10839  1.0000
  H   H2109     1.0  0.47645  0.92187  0.99671  1.0000
  C   C1327     1.0  0.32999  0.88046  0.99572  1.0000
  H   H2110     1.0  0.33917  0.87579  0.18639  1.0000
  H   H2111     1.0  0.62615  0.69528  0.22746  1.0000
  H   H2112     1.0  0.33920  0.74178  0.21704  1.0000
  H   H2113     1.0  0.38434  0.81401  0.21898  1.0000
  H   H2114     1.0  0.38510  0.93410  0.22918  1.0000
  H   H2115     1.0  0.45324  0.92337  0.00816  1.0000
  H   H2116     1.0  0.59506  0.68118  0.20728  1.0000
  C   C1328     1.0  0.36737  0.98378  0.22395  1.0000
  C   C1329     1.0  0.45684  0.95498  0.98585  1.0000
  H   H2117     1.0  0.47034  0.95539  0.98786  1.0000
  H   H2118     1.0  0.40512  0.98497  0.01764  1.0000
  H   H2119     1.0  0.42872  0.93892  0.99131  1.0000
  H   H2120     1.0  0.35976  0.86203  0.21081  1.0000
  C   C1330     1.0  0.32877  0.87110  0.98307  1.0000
  S   S535      1.0  0.33143  0.85072  0.17017  1.0000
  Fe  Fe267     1.0  0.33074  0.83172  0.15315  1.0000
  H   H2121     1.0  0.62995  0.66457  0.22258  1.0000
  H   H2122     1.0  0.61058  0.65462  0.22642  1.0000
  C   C1331     1.0  0.61625  0.66381  0.23120  1.0000
  H   H2123     1.0  0.35301  0.98666  0.22401  1.0000
  C   C1332     1.0  0.36295  0.71201  0.26524  1.0000
  H   H2124     1.0  0.63932  0.76582  0.30596  1.0000
  H   H2125     1.0  0.48235  0.71509  0.28515  1.0000
  H   H2126     1.0  0.48810  0.79086  0.26538  1.0000
  H   H2127     1.0  0.49762  0.67769  0.32280  1.0000
  H   H2128     1.0  0.49482  0.66287  0.37691  1.0000
  Fe  Fe268     1.0  0.52074  0.71860  0.34576  1.0000
  S   S536      1.0  0.50884  0.69500  0.36320  1.0000
  N   N134      1.0  0.40203  0.67698  0.29507  1.0000
  N   N135      1.0  0.64498  0.73731  0.30647  1.0000
  S   S537      1.0  0.52858  0.72471  0.31545  1.0000
  Fe  Fe269     1.0  0.63651  0.89901  0.47530  1.0000
  S   S538      1.0  0.57947  0.73314  0.30507  1.0000
  C   C1333     1.0  0.60677  0.70788  0.29037  1.0000
  C   C1334     1.0  0.58869  0.71177  0.29953  1.0000
  C   C1335     1.0  0.57813  0.69864  0.30399  1.0000
  C   C1336     1.0  0.58550  0.68185  0.29901  1.0000
  H   H2129     1.0  0.61498  0.71797  0.28678  1.0000
  H   H2130     1.0  0.56429  0.70138  0.31130  1.0000
  H   H2131     1.0  0.38135  0.66833  0.31751  1.0000
  H   H2132     1.0  0.45154  0.80354  0.28881  1.0000
  H   H2133     1.0  0.45907  0.65358  0.33877  1.0000
  C   C1337     1.0  0.51440  0.67476  0.35539  1.0000
  C   C1338     1.0  0.52742  0.67239  0.33968  1.0000
  C   C1339     1.0  0.58665  0.68022  0.24303  1.0000
  C   C1340     1.0  0.38564  0.66914  0.30268  1.0000
  H   H2134     1.0  0.53500  0.68281  0.33255  1.0000
  C   C1341     1.0  0.35984  0.69667  0.26130  1.0000
  H   H2135     1.0  0.40057  0.90509  0.27899  1.0000
  H   H2136     1.0  0.37401  0.67740  0.29652  1.0000
  C   C1342     1.0  0.63225  0.83994  0.48060  1.0000
  C   C1343     1.0  0.44920  0.81816  0.25455  1.0000
  S   S539      1.0  0.61206  0.65722  0.28289  1.0000
  H   H2137     1.0  0.62466  0.72154  0.32029  1.0000
  H   H2138     1.0  0.48039  0.79498  0.24461  1.0000
  C   C1344     1.0  0.33820  0.69236  0.28959  1.0000
  H   H2139     1.0  0.46740  0.78490  0.26544  1.0000
  C   C1345     1.0  0.41137  0.97519  0.29720  1.0000
  H   H2140     1.0  0.38713  0.70444  0.29240  1.0000
  H   H2141     1.0  0.41408  0.66482  0.31830  1.0000
  C   C1346     1.0  0.61426  0.69093  0.28574  1.0000
  S   S540      1.0  0.54366  0.72812  0.35063  1.0000
  H   H2142     1.0  0.42106  0.92273  0.25615  1.0000
  C   C1347     1.0  0.60355  0.67797  0.28987  1.0000
  H   H2143     1.0  0.49961  0.73309  0.29367  1.0000
  Fe  Fe270     1.0  0.43521  0.98188  0.37759  1.0000
  C   C1348     1.0  0.64585  0.75608  0.29686  1.0000
  C   C1349     1.0  0.47022  0.66017  0.33857  1.0000
  H   H2144     1.0  0.62253  0.76856  0.40360  1.0000
  C   C1350     1.0  0.47588  0.79526  0.25923  1.0000
  H   H2145     1.0  0.62826  0.68797  0.27885  1.0000
  N   N136      1.0  0.37643  0.96360  0.40853  1.0000
  N   N137      1.0  0.46943  0.67774  0.32574  1.0000
  H   H2146     1.0  0.57991  0.67121  0.23925  1.0000
  Fe  Fe271     1.0  0.40759  0.75665  0.23633  1.0000
  H   H2147     1.0  0.41457  0.93528  0.23527  1.0000
  H   H2148     1.0  0.47258  0.80921  0.28809  1.0000
  H   H2149     1.0  0.42031  0.91116  0.23947  1.0000
  H   H2150     1.0  0.39430  0.69524  0.31344  1.0000
  H   H2151     1.0  0.37249  0.71952  0.25575  1.0000
  C   C1351     1.0  0.35339  0.71776  0.28120  1.0000
  H   H2152     1.0  0.44059  0.96646  0.31237  1.0000
  H   H2153     1.0  0.57727  0.69359  0.24304  1.0000
  S   S541      1.0  0.34423  0.66736  0.26854  1.0000
  H   H2154     1.0  0.39966  0.89319  0.26255  1.0000
  C   C1352     1.0  0.34757  0.68675  0.27352  1.0000
  H   H2155     1.0  0.36707  0.69235  0.24884  1.0000
  Fe  Fe272     1.0  0.55033  0.73617  0.32029  1.0000
  H   H2156     1.0  0.61670  0.81634  0.47309  1.0000
  C   C1353     1.0  0.47184  0.67481  0.30727  1.0000
  C   C1354     1.0  0.34096  0.70796  0.29331  1.0000
  S   S542      1.0  0.40578  0.73082  0.25671  1.0000
  S   S543      1.0  0.44484  0.72166  0.28258  1.0000
  Fe  Fe273     1.0  0.60274  0.85022  0.37385  1.0000
  S   S544      1.0  0.60062  0.83011  0.39995  1.0000
  S   S545      1.0  0.63104  0.85080  0.35763  1.0000
  Fe  Fe274     1.0  0.56197  0.86298  0.37885  1.0000
  S   S546      1.0  0.55649  0.84327  0.40516  1.0000
  S   S547      1.0  0.54064  0.88304  0.36514  1.0000
  Fe  Fe275     1.0  0.57940  0.85173  0.41151  1.0000
  S   S548      1.0  0.57801  0.85576  0.43957  1.0000
  Fe  Fe276     1.0  0.57836  0.82344  0.39118  1.0000
  S   S549      1.0  0.58163  0.79410  0.39070  1.0000
  S   S550      1.0  0.58343  0.87276  0.38607  1.0000
  S   S551      1.0  0.58166  0.84239  0.36436  1.0000
  H   H2157     1.0  0.55841  0.81305  0.29934  1.0000
  C   C1355     1.0  0.46052  0.81322  0.28173  1.0000
  H   H2158     1.0  0.64526  0.78562  0.35682  1.0000
  H   H2159     1.0  0.60008  0.88719  0.47375  1.0000
  H   H2160     1.0  0.40076  0.97918  0.30884  1.0000
  S   S552      1.0  0.62875  0.90333  0.44841  1.0000
  H   H2161     1.0  0.48275  0.68847  0.34037  1.0000
  H   H2162     1.0  0.61807  0.73968  0.30245  1.0000
  Fe  Fe277     1.0  0.45999  0.87587  0.28766  1.0000
  S   S553      1.0  0.43012  0.88044  0.29918  1.0000
  S   S554      1.0  0.47047  0.88101  0.25771  1.0000
  Fe  Fe278     1.0  0.46994  0.86199  0.32458  1.0000
  S   S555      1.0  0.44081  0.86590  0.33902  1.0000
  S   S556      1.0  0.49099  0.84550  0.34057  1.0000
  Fe  Fe279     1.0  0.43666  0.85366  0.31772  1.0000
  S   S557      1.0  0.42454  0.82880  0.32542  1.0000
  Fe  Fe280     1.0  0.43736  0.89230  0.31906  1.0000
  S   S558      1.0  0.42036  0.91928  0.32429  1.0000
  S   S559      1.0  0.46598  0.84826  0.30448  1.0000
  S   S560      1.0  0.46702  0.88942  0.30628  1.0000
  Fe  Fe281     1.0  0.40051  0.77926  0.26448  1.0000
  S   S561      1.0  0.42610  0.76504  0.24886  1.0000
  S   S562      1.0  0.39771  0.80863  0.26463  1.0000
  Fe  Fe282     1.0  0.38179  0.74757  0.27180  1.0000
  H   H2163     1.0  0.63183  0.78117  0.41403  1.0000
  C   C1356     1.0  0.64716  0.80113  0.38315  1.0000
  C   C1357     1.0  0.34553  0.76028  0.23888  1.0000
  S   S563      1.0  0.35621  0.73745  0.28608  1.0000
  H   H2164     1.0  0.55562  0.75775  0.36545  1.0000
  S   S564      1.0  0.39765  0.75564  0.28766  1.0000
  S   S565      1.0  0.38220  0.77268  0.25021  1.0000
  S   S566      1.0  0.53344  0.76428  0.31931  1.0000
  N   N138      1.0  0.39418  0.92207  0.25415  1.0000
  H   H2165     1.0  0.60407  0.70736  0.23656  1.0000
  H   H2166     1.0  0.58037  0.76493  0.37535  1.0000
  H   H2167     1.0  0.55985  0.84567  0.31300  1.0000
  H   H2168     1.0  0.46728  0.77701  0.33805  1.0000
  H   H2169     1.0  0.34753  0.96991  0.41808  1.0000
  C   C1358     1.0  0.41668  0.82331  0.30872  1.0000
  C   C1359     1.0  0.41651  0.80523  0.30952  1.0000
  C   C1360     1.0  0.41077  0.80048  0.29605  1.0000
  C   C1361     1.0  0.40452  0.81390  0.28212  1.0000
  C   C1362     1.0  0.40417  0.83199  0.28166  1.0000
  C   C1363     1.0  0.41063  0.83669  0.29467  1.0000
  H   H2170     1.0  0.42109  0.79482  0.32042  1.0000
  H   H2171     1.0  0.41099  0.78649  0.29656  1.0000
  H   H2172     1.0  0.39876  0.84235  0.27122  1.0000
  H   H2173     1.0  0.41045  0.85068  0.29411  1.0000
  C   C1364     1.0  0.45455  0.87879  0.24662  1.0000
  C   C1365     1.0  0.44086  0.86937  0.25615  1.0000
  C   C1366     1.0  0.42756  0.86836  0.24760  1.0000
  H   H2174     1.0  0.44081  0.83138  0.25719  1.0000
  H   H2175     1.0  0.37091  0.93786  0.26869  1.0000
  C   C1367     1.0  0.35798  0.97253  0.40555  1.0000
  H   H2176     1.0  0.44059  0.86268  0.27007  1.0000
  H   H2177     1.0  0.41676  0.86150  0.25510  1.0000
  C   C1368     1.0  0.56170  0.81682  0.34063  1.0000
  H   H2178     1.0  0.45066  0.70307  0.32105  1.0000
  C   C1369     1.0  0.43843  0.94316  0.36268  1.0000
  C   C1370     1.0  0.42419  0.95294  0.35409  1.0000
  C   C1371     1.0  0.41849  0.94537  0.34259  1.0000
  C   C1372     1.0  0.42729  0.92816  0.33928  1.0000
  C   C1373     1.0  0.44153  0.91837  0.34785  1.0000
  C   C1374     1.0  0.44694  0.92578  0.35968  1.0000
  C   C1375     1.0  0.47675  0.75491  0.29799  1.0000
  H   H2179     1.0  0.40727  0.95283  0.33622  1.0000
  H   H2180     1.0  0.44830  0.90503  0.34543  1.0000
  H   H2181     1.0  0.45780  0.91799  0.36639  1.0000
  C   C1376     1.0  0.50353  0.85675  0.34808  1.0000
  C   C1377     1.0  0.51326  0.84712  0.36152  1.0000
  C   C1378     1.0  0.52486  0.85505  0.36664  1.0000
  C   C1379     1.0  0.52655  0.87279  0.35850  1.0000
  C   C1380     1.0  0.51662  0.88256  0.34522  1.0000
  C   C1381     1.0  0.50507  0.87456  0.34002  1.0000
  H   H2182     1.0  0.51190  0.83343  0.36793  1.0000
  H   H2183     1.0  0.53239  0.84746  0.37697  1.0000
  H   H2184     1.0  0.51803  0.89626  0.33878  1.0000
  H   H2185     1.0  0.49772  0.88202  0.32952  1.0000
  C   C1382     1.0  0.59178  0.86953  0.44165  1.0000
  C   C1383     1.0  0.59009  0.87371  0.45849  1.0000
  C   C1384     1.0  0.60153  0.88389  0.46078  1.0000
  C   C1385     1.0  0.61443  0.89028  0.44610  1.0000
  C   C1386     1.0  0.61582  0.88649  0.42916  1.0000
  C   C1387     1.0  0.60466  0.87597  0.42697  1.0000
  H   H2186     1.0  0.57985  0.86911  0.46977  1.0000
  C   C1388     1.0  0.37767  0.94387  0.41422  1.0000
  H   H2187     1.0  0.62558  0.89162  0.41767  1.0000
  H   H2188     1.0  0.60602  0.87289  0.41392  1.0000
  C   C1389     1.0  0.56377  0.78875  0.38461  1.0000
  C   C1390     1.0  0.54646  0.79973  0.38688  1.0000
  C   C1391     1.0  0.53238  0.79533  0.38179  1.0000
  C   C1392     1.0  0.53567  0.78030  0.37391  1.0000
  H   H2189     1.0  0.54385  0.81143  0.39282  1.0000
  H   H2190     1.0  0.51889  0.80357  0.38396  1.0000
  H   H2191     1.0  0.56882  0.79614  0.31601  1.0000
  H   H2192     1.0  0.61358  0.83331  0.34012  1.0000
  H   H2193     1.0  0.52676  0.81785  0.34329  1.0000
  C   C1393     1.0  0.38537  0.93807  0.26227  1.0000
  H   H2194     1.0  0.62289  0.79563  0.36743  1.0000
  H   H2195     1.0  0.35343  0.74909  0.24747  1.0000
  H   H2196     1.0  0.33348  0.71240  0.30565  1.0000
  S   S567      1.0  0.50152  0.74508  0.34710  1.0000
  C   C1394     1.0  0.63958  0.83488  0.34359  1.0000
  C   C1395     1.0  0.65831  0.82845  0.33916  1.0000
  H   H2197     1.0  0.37478  0.93824  0.40379  1.0000
  H   H2198     1.0  0.52820  0.81510  0.32093  1.0000
  H   H2199     1.0  0.57420  0.82251  0.33643  1.0000
  C   C1396     1.0  0.45168  0.68971  0.33057  1.0000
  H   H2200     1.0  0.41646  0.96032  0.30075  1.0000
  C   C1397     1.0  0.47727  0.82678  0.25324  1.0000
  C   C1398     1.0  0.45830  0.76134  0.29778  1.0000
  H   H2201     1.0  0.43371  0.98234  0.26510  1.0000
  H   H2202     1.0  0.47063  0.68783  0.29728  1.0000
  C   C1399     1.0  0.48531  0.73803  0.29378  1.0000
  H   H2203     1.0  0.38563  0.95079  0.25191  1.0000
  H   H2204     1.0  0.56567  0.80217  0.34630  1.0000
  N   N139      1.0  0.46572  0.81336  0.26217  1.0000
  H   H2205     1.0  0.39231  0.93878  0.27278  1.0000
  H   H2206     1.0  0.44048  0.80797  0.26065  1.0000
  C   C1400     1.0  0.45712  0.73441  0.28855  1.0000
  Fe  Fe283     1.0  0.51111  0.75214  0.31732  1.0000
  H   H2207     1.0  0.62596  0.80955  0.32197  1.0000
  C   C1401     1.0  0.47551  0.72782  0.28900  1.0000
  H   H2208     1.0  0.46915  0.66170  0.35258  1.0000
  H   H2209     1.0  0.43433  0.75633  0.29273  1.0000
  H   H2210     1.0  0.48376  0.69962  0.31727  1.0000
  H   H2211     1.0  0.37944  0.98538  0.41892  1.0000
  C   C1402     1.0  0.39836  0.69536  0.29871  1.0000
  H   H2212     1.0  0.45254  0.81906  0.23970  1.0000
  H   H2213     1.0  0.37907  0.90447  0.27492  1.0000
  H   H2214     1.0  0.62985  0.77155  0.37067  1.0000
  H   H2215     1.0  0.47021  0.84050  0.25559  1.0000
  H   H2216     1.0  0.32863  0.68481  0.29904  1.0000
  H   H2217     1.0  0.57761  0.81635  0.30596  1.0000
  H   H2218     1.0  0.62699  0.85239  0.47122  1.0000
  C   C1403     1.0  0.55303  0.76942  0.37145  1.0000
  H   H2219     1.0  0.54011  0.84246  0.30721  1.0000
  C   C1404     1.0  0.56700  0.77349  0.37706  1.0000
  C   C1405     1.0  0.45962  0.79065  0.34025  1.0000
  H   H2220     1.0  0.46424  0.82229  0.36064  1.0000
  H   H2221     1.0  0.44952  0.69227  0.34440  1.0000
  H   H2222     1.0  0.61882  0.74443  0.32343  1.0000
  H   H2223     1.0  0.49537  0.78716  0.33664  1.0000
  H   H2224     1.0  0.36784  0.94038  0.42703  1.0000
  N   N140      1.0  0.46869  0.79832  0.35010  1.0000
  H   H2225     1.0  0.44562  0.78943  0.34768  1.0000
  H   H2226     1.0  0.48609  0.80973  0.32610  1.0000
  C   C1406     1.0  0.38978  0.96751  0.39157  1.0000
  S   S568      1.0  0.44562  0.95218  0.37747  1.0000
  S   S569      1.0  0.51795  0.77596  0.36669  1.0000
  H   H2227     1.0  0.53881  0.84667  0.32897  1.0000
  H   H2228     1.0  0.45693  0.78432  0.37622  1.0000
  C   C1407     1.0  0.38472  0.92181  0.24011  1.0000
  H   H2229     1.0  0.60197  0.83806  0.47151  1.0000
  H   H2230     1.0  0.45848  0.79934  0.32673  1.0000
  Fe  Fe284     1.0  0.42184  0.74075  0.27082  1.0000
  H   H2231     1.0  0.53935  0.79731  0.33645  1.0000
  S   S570      1.0  0.65036  0.91918  0.47943  1.0000
  H   H2232     1.0  0.35460  0.96778  0.39481  1.0000
  C   C1408     1.0  0.50478  0.66112  0.36466  1.0000
  N   N141      1.0  0.55256  0.81990  0.32542  1.0000
  H   H2233     1.0  0.46145  0.66777  0.30642  1.0000
  C   C1409     1.0  0.53601  0.81222  0.33175  1.0000
  H   H2234     1.0  0.37021  0.92120  0.24579  1.0000
  H   H2235     1.0  0.44564  0.96475  0.28017  1.0000
  N   N142      1.0  0.49350  0.91430  0.39195  1.0000
  C   C1410     1.0  0.47605  0.90894  0.40127  1.0000
  C   C1411     1.0  0.50847  0.90072  0.39893  1.0000
  C   C1412     1.0  0.49340  0.93213  0.39519  1.0000
  C   C1413     1.0  0.49606  0.91542  0.37234  1.0000
  H   H2236     1.0  0.47365  0.90800  0.41609  1.0000
  H   H2237     1.0  0.47568  0.89556  0.39902  1.0000
  H   H2238     1.0  0.46447  0.91889  0.39629  1.0000
  H   H2239     1.0  0.50687  0.89919  0.41375  1.0000
  H   H2240     1.0  0.50927  0.88720  0.39619  1.0000
  H   H2241     1.0  0.52185  0.90446  0.39238  1.0000
  H   H2242     1.0  0.49169  0.93178  0.40982  1.0000
  H   H2243     1.0  0.48209  0.94264  0.39024  1.0000
  H   H2244     1.0  0.50630  0.93666  0.38808  1.0000
  H   H2245     1.0  0.50973  0.91798  0.36501  1.0000
  H   H2246     1.0  0.48576  0.92644  0.36635  1.0000
  H   H2247     1.0  0.49488  0.90258  0.36953  1.0000
  H   H2248     1.0  0.61502  0.79243  0.40073  1.0000
  H   H2249     1.0  0.49420  0.80585  0.34652  1.0000
  H   H2250     1.0  0.47734  0.79158  0.37540  1.0000
  H   H2251     1.0  0.45659  0.82573  0.34011  1.0000
  C   C1414     1.0  0.41335  0.92289  0.24592  1.0000
  C   C1415     1.0  0.47040  0.78619  0.36774  1.0000
  C   C1416     1.0  0.45786  0.81617  0.35311  1.0000
  S   S571      1.0  0.48908  0.76857  0.30253  1.0000
  H   H2252     1.0  0.47867  0.77264  0.36606  1.0000
  C   C1417     1.0  0.56491  0.81099  0.31102  1.0000
  H   H2253     1.0  0.40392  0.96123  0.39334  1.0000
  H   H2254     1.0  0.44385  0.81530  0.36079  1.0000
  Fe  Fe285     1.0  0.52500  0.75531  0.34919  1.0000
  H   H2255     1.0  0.45144  0.77408  0.30155  1.0000
  C   C1418     1.0  0.44855  0.75121  0.29291  1.0000
  H   H2256     1.0  0.64206  0.83072  0.47223  1.0000
  C   C1419     1.0  0.54764  0.83952  0.31828  1.0000
  C   C1420     1.0  0.41716  0.66550  0.30348  1.0000
  C   C1421     1.0  0.39332  0.90550  0.26829  1.0000
  C   C1422     1.0  0.48689  0.80035  0.33933  1.0000
  H   H2257     1.0  0.65837  0.89415  0.41685  1.0000
  H   H2258     1.0  0.55270  0.82323  0.35183  1.0000
  H   H2259     1.0  0.34345  0.77264  0.24432  1.0000
  C   C1423     1.0  0.62716  0.78138  0.40168  1.0000
  C   C1424     1.0  0.62796  0.82810  0.33724  1.0000
  H   H2260     1.0  0.64807  0.74160  0.33152  1.0000
  H   H2261     1.0  0.39150  0.93676  0.41645  1.0000
  C   C1425     1.0  0.63502  0.81477  0.32678  1.0000
  H   H2262     1.0  0.41743  0.96623  0.35643  1.0000
  H   H2263     1.0  0.39588  0.68638  0.26859  1.0000
  H   H2264     1.0  0.38739  0.96230  0.38059  1.0000
  H   H2265     1.0  0.37049  0.96783  0.43575  1.0000
  N   N143      1.0  0.42622  0.98516  0.29282  1.0000
  H   H2266     1.0  0.38901  0.98229  0.38675  1.0000
  C   C1426     1.0  0.48401  0.68624  0.32656  1.0000
  H   H2267     1.0  0.65390  0.75561  0.38825  1.0000
  C   C1427     1.0  0.40702  0.67790  0.27536  1.0000
  C   C1428     1.0  0.38032  0.97050  0.42276  1.0000
  H   H2268     1.0  0.57719  0.67182  0.30238  1.0000
  H   H2269     1.0  0.63897  0.76012  0.28520  1.0000
  C   C1429     1.0  0.63460  0.78417  0.36935  1.0000
  H   H2270     1.0  0.48110  0.82768  0.23838  1.0000
  H   H2271     1.0  0.45296  0.82671  0.28444  1.0000
  H   H2272     1.0  0.48997  0.82332  0.25851  1.0000
  H   H2273     1.0  0.44034  0.68370  0.33016  1.0000
  N   N144      1.0  0.64155  0.78389  0.38533  1.0000
  C   C1430     1.0  0.62582  0.73568  0.31347  1.0000
  C   C1431     1.0  0.43983  0.97950  0.27721  1.0000
  H   H2274     1.0  0.42490  0.98522  0.32061  1.0000
  H   H2275     1.0  0.41925  0.68390  0.26912  1.0000
  N   N145      1.0  0.32809  0.75620  0.23872  1.0000
  H   H2276     1.0  0.61523  0.68797  0.25041  1.0000
  H   H2277     1.0  0.48540  0.66636  0.30299  1.0000
  H   H2278     1.0  0.39419  0.96419  0.42530  1.0000
  H   H2279     1.0  0.41049  0.70165  0.29326  1.0000
  H   H2280     1.0  0.39105  0.90992  0.23368  1.0000
  C   C1432     1.0  0.65370  0.80784  0.32299  1.0000
  H   H2281     1.0  0.40463  0.97790  0.28555  1.0000
  C   C1433     1.0  0.53051  0.65651  0.33310  1.0000
  C   C1434     1.0  0.60761  0.82617  0.48122  1.0000
  H   H2282     1.0  0.58835  0.67442  0.25723  1.0000
  C   C1435     1.0  0.43482  0.98116  0.30857  1.0000
  H   H2283     1.0  0.63586  0.81290  0.38090  1.0000
  C   C1436     1.0  0.61281  0.69368  0.23648  1.0000
  H   H2284     1.0  0.65186  0.80173  0.39520  1.0000
  H   H2285     1.0  0.66015  0.75781  0.29161  1.0000
  H   H2286     1.0  0.42986  0.67076  0.29770  1.0000
  S   S572      1.0  0.65931  0.87548  0.47983  1.0000
  H   H2287     1.0  0.33949  0.72799  0.23922  1.0000
  H   H2288     1.0  0.40990  0.66426  0.27213  1.0000
  H   H2289     1.0  0.54047  0.65476  0.32086  1.0000
  S   S573      1.0  0.65506  0.67252  0.24901  1.0000
  H   H2290     1.0  0.64712  0.72790  0.28228  1.0000
  H   H2291     1.0  0.65452  0.71842  0.32905  1.0000
  C   C1437     1.0  0.65445  0.73264  0.32165  1.0000
  H   H2292     1.0  0.38791  0.65523  0.30023  1.0000
  H   H2293     1.0  0.37925  0.82894  0.23438  1.0000
  C   C1438     1.0  0.65735  0.76887  0.38707  1.0000
  H   H2294     1.0  0.65361  0.71055  0.30080  1.0000
  C   C1439     1.0  0.65388  0.72486  0.29393  1.0000
  H   H2295     1.0  0.65850  0.80301  0.37131  1.0000
  H   H2296     1.0  0.61807  0.65730  0.24519  1.0000
  H   H2297     1.0  0.58237  0.97702  0.54872  1.0000
  N   N146      1.0  0.61739  0.83130  0.49241  1.0000
  S   S574      1.0  0.64497  0.84389  0.52480  1.0000
  C   C1440     1.0  0.60474  0.84410  0.50319  1.0000
  C   C1441     1.0  0.65202  0.84956  0.57275  1.0000
  H   H2298     1.0  0.58799  0.96647  0.52961  1.0000
  H   H2299     1.0  0.39112  0.68473  0.67923  1.0000
  H   H2300     1.0  0.59988  0.97183  0.70187  1.0000
  H   H2301     1.0  0.60338  0.95367  0.72089  1.0000
  H   H2302     1.0  0.64779  0.95786  0.56134  1.0000
  H   H2303     1.0  0.56904  0.97660  0.50663  1.0000
  C   C1442     1.0  0.59290  0.96444  0.71489  1.0000
  H   H2304     1.0  0.42096  0.66282  0.71220  1.0000
  C   C1443     1.0  0.63647  0.94139  0.59595  1.0000
  H   H2305     1.0  0.38154  0.66853  0.71102  1.0000
  C   C1444     1.0  0.64790  0.83972  0.54718  1.0000
  H   H2306     1.0  0.58354  0.95768  0.71165  1.0000
  H   H2307     1.0  0.61843  0.98397  0.55023  1.0000
  C   C1445     1.0  0.62500  0.81497  0.50470  1.0000
  C   C1446     1.0  0.64896  0.85355  0.55504  1.0000
  H   H2308     1.0  0.59339  0.83804  0.51236  1.0000
  H   H2309     1.0  0.63240  0.81837  0.51342  1.0000
  H   H2310     1.0  0.63791  0.93015  0.60789  1.0000
  S   S575      1.0  0.62472  0.92838  0.53014  1.0000
  C   C1447     1.0  0.59601  0.98569  0.73094  1.0000
  H   H2311     1.0  0.65113  0.89610  0.67988  1.0000
  H   H2312     1.0  0.65263  0.94550  0.66834  1.0000
  C   C1448     1.0  0.62106  0.97793  0.53864  1.0000
  S   S576      1.0  0.63295  0.78654  0.72574  1.0000
  H   H2313     1.0  0.62997  0.96900  0.63474  1.0000
  C   C1449     1.0  0.39084  0.65622  0.70688  1.0000
  H   H2314     1.0  0.64139  0.85901  0.69837  1.0000
  H   H2315     1.0  0.55916  0.98448  0.71602  1.0000
  H   H2316     1.0  0.39323  0.66469  0.67099  1.0000
  C   C1450     1.0  0.57648  0.97299  0.53917  1.0000
  H   H2317     1.0  0.61946  0.95131  0.55459  1.0000
  H   H2318     1.0  0.65321  0.80443  0.58264  1.0000
  S   S577      1.0  0.62137  0.89354  0.50411  1.0000
  H   H2319     1.0  0.62991  0.97612  0.66381  1.0000
  C   C1451     1.0  0.65113  0.96259  0.57211  1.0000
  C   C1452     1.0  0.62200  0.98564  0.65464  1.0000
  C   C1453     1.0  0.65657  0.88822  0.69206  1.0000
  N   N147      1.0  0.65363  0.94779  0.58792  1.0000
  H   H2320     1.0  0.40723  0.68349  0.70333  1.0000
  H   H2321     1.0  0.64013  0.79907  0.68728  1.0000
  S   S578      1.0  0.64051  0.96228  0.70451  1.0000
  C   C1454     1.0  0.62761  0.98045  0.50627  1.0000
  H   H2322     1.0  0.64222  0.93045  0.64957  1.0000
  C   C1455     1.0  0.40054  0.67196  0.67644  1.0000
  H   H2323     1.0  0.64865  0.81129  0.55127  1.0000
  C   C1456     1.0  0.62883  0.96174  0.50871  1.0000
  C   C1457     1.0  0.62571  0.95126  0.52616  1.0000
  C   C1458     1.0  0.65289  0.86044  0.68664  1.0000
  Fe  Fe286     1.0  0.63728  0.91174  0.50871  1.0000
  C   C1459     1.0  0.65062  0.79654  0.71095  1.0000
  C   C1460     1.0  0.65892  0.95448  0.60146  1.0000
  C   C1461     1.0  0.65620  0.92671  0.65106  1.0000
  Fe  Fe287     1.0  0.64583  0.87201  0.50901  1.0000
  C   C1462     1.0  0.64955  0.82203  0.55717  1.0000
  H   H2324     1.0  0.56862  0.96249  0.54708  1.0000
  H   H2325     1.0  0.65252  0.86027  0.57892  1.0000
  C   C1463     1.0  0.41627  0.67085  0.69971  1.0000
  H   H2326     1.0  0.42836  0.67452  0.68959  1.0000
  H   H2327     1.0  0.63991  0.97392  0.57587  1.0000
  H   H2328     1.0  0.63198  0.93637  0.58607  1.0000
  C   C1464     1.0  0.62195  0.95938  0.54108  1.0000
  H   H2329     1.0  0.63168  0.95555  0.49713  1.0000
  H   H2330     1.0  0.62537  0.95237  0.60062  1.0000
  N   N148      1.0  0.40671  0.66073  0.69289  1.0000
  H   H2331     1.0  0.61417  0.80811  0.51383  1.0000
  H   H2332     1.0  0.41217  0.67559  0.66557  1.0000
  H   H2333     1.0  0.61175  0.84828  0.51174  1.0000
  C   C1465     1.0  0.65362  0.83181  0.58270  1.0000
  H   H2334     1.0  0.64703  0.86735  0.54771  1.0000
  Fe  Fe288     1.0  0.64756  0.97187  0.72602  1.0000
  C   C1466     1.0  0.65221  0.81813  0.57491  1.0000
  H   H2335     1.0  0.63992  0.84388  0.48867  1.0000
  H   H2336     1.0  0.59604  0.81997  0.48964  1.0000
  H   H2337     1.0  0.64861  0.96621  0.60565  1.0000
  C   C1467     1.0  0.55788  0.98277  0.51673  1.0000
  S   S579      1.0  0.65646  0.82622  0.60516  1.0000
  H   H2338     1.0  0.54945  0.97253  0.52391  1.0000
  C   C1468     1.0  0.65090  0.80128  0.69236  1.0000
  C   C1469     1.0  0.62209  0.98166  0.63812  1.0000
  H   H2339     1.0  0.64504  0.88818  0.70387  1.0000
  H   H2340     1.0  0.59873  0.85658  0.49441  1.0000
  H   H2341     1.0  0.64717  0.86796  0.67452  1.0000
  N   N149      1.0  0.58310  0.97679  0.72732  1.0000
  H   H2342     1.0  0.63477  0.80507  0.49706  1.0000
  S   S580      1.0  0.66033  0.90185  0.63039  1.0000
  H   H2343     1.0  0.65963  0.84666  0.68423  1.0000
  H   H2344     1.0  0.66037  0.94383  0.61380  1.0000
  H   H2345     1.0  0.59531  0.70371  0.76679  1.0000
  H   H2346     1.0  0.44670  0.68138  0.75941  1.0000
  H   H2347     1.0  0.39864  0.73154  0.81216  1.0000
  C   C1470     1.0  0.33066  0.71304  0.78507  1.0000
  Fe  Fe289     1.0  0.48923  0.69881  0.78799  1.0000
  S   S581      1.0  0.48875  0.68363  0.81648  1.0000
  S   S582      1.0  0.47148  0.69481  0.77132  1.0000
  H   H2348     1.0  0.64712  0.69032  0.84092  1.0000
  Fe  Fe290     1.0  0.51834  0.68479  0.81028  1.0000
  H   H2349     1.0  0.34258  0.70291  0.78006  1.0000
  S   S583      1.0  0.51914  0.69770  0.78108  1.0000
  C   C1471     1.0  0.58349  0.68036  0.80958  1.0000
  C   C1472     1.0  0.40796  0.72028  0.81917  1.0000
  S   S584      1.0  0.64790  0.95138  0.88706  1.0000
  H   H2350     1.0  0.63346  0.65790  0.85301  1.0000
  H   H2351     1.0  0.64695  0.93826  0.83869  1.0000
  H   H2352     1.0  0.62593  0.95900  0.81891  1.0000
  H   H2353     1.0  0.52690  0.67193  0.84877  1.0000
  C   C1473     1.0  0.38515  0.67961  0.76570  1.0000
  C   C1474     1.0  0.38379  0.69820  0.76392  1.0000
  C   C1475     1.0  0.38073  0.66898  0.78285  1.0000
  C   C1476     1.0  0.43389  0.72898  0.79732  1.0000
  S   S585      1.0  0.54240  0.66212  0.81353  1.0000
  H   H2354     1.0  0.65941  0.94089  0.78177  1.0000
  H   H2355     1.0  0.59642  0.94722  0.96200  1.0000
  H   H2356     1.0  0.34439  0.74293  0.77378  1.0000
  C   C1477     1.0  0.46983  0.67256  0.77210  1.0000
  C   C1478     1.0  0.45612  0.66989  0.76508  1.0000
  C   C1479     1.0  0.62512  0.95602  0.93683  1.0000
  H   H2357     1.0  0.62901  0.94530  0.94839  1.0000
  H   H2358     1.0  0.40032  0.70933  0.82608  1.0000
  H   H2359     1.0  0.59529  0.93701  0.92675  1.0000
  S   S586      1.0  0.65870  0.77430  0.76575  1.0000
  S   S587      1.0  0.46029  0.72215  0.84285  1.0000
  H   H2360     1.0  0.49223  0.72049  0.85570  1.0000
  H   H2361     1.0  0.41135  0.72542  0.82966  1.0000
  H   H2362     1.0  0.55938  0.69255  0.78814  1.0000
  H   H2363     1.0  0.38729  0.70647  0.75068  1.0000
  H   H2364     1.0  0.55471  0.70715  0.80378  1.0000
  H   H2365     1.0  0.42982  0.68748  0.82304  1.0000
  C   C1480     1.0  0.48199  0.65759  0.77935  1.0000
  H   H2366     1.0  0.58876  0.72309  0.78904  1.0000
  Fe  Fe291     1.0  0.48421  0.71110  0.82279  1.0000
  H   H2367     1.0  0.47050  0.92379  0.95916  1.0000
  H   H2368     1.0  0.59724  0.67519  0.81274  1.0000
  S   S588      1.0  0.36695  0.70429  0.81611  1.0000
  C   C1481     1.0  0.37832  0.70599  0.77931  1.0000
  N   N150      1.0  0.58303  0.69650  0.79483  1.0000
  H   H2369     1.0  0.57382  0.68333  0.82219  1.0000
  H   H2370     1.0  0.57977  0.71480  0.81237  1.0000
  C   C1482     1.0  0.37408  0.69522  0.79647  1.0000
  C   C1483     1.0  0.59538  0.69177  0.77817  1.0000
  Fe  Fe292     1.0  0.51298  0.72357  0.79078  1.0000
  H   H2371     1.0  0.57958  0.66923  0.80593  1.0000
  H   H2372     1.0  0.60286  0.70625  0.80254  1.0000
  H   H2373     1.0  0.37755  0.72024  0.77789  1.0000
  H   H2374     1.0  0.59130  0.68110  0.77391  1.0000
  N   N151      1.0  0.42444  0.71389  0.80628  1.0000
  C   C1484     1.0  0.41930  0.70728  0.79258  1.0000
  H   H2375     1.0  0.44908  0.69387  0.80669  1.0000
  H   H2376     1.0  0.43831  0.73400  0.80726  1.0000
  S   S589      1.0  0.51383  0.71066  0.81969  1.0000
  C   C1485     1.0  0.58886  0.71074  0.79993  1.0000
  H   H2377     1.0  0.60959  0.68667  0.78012  1.0000
  C   C1486     1.0  0.37533  0.67673  0.79817  1.0000
  H   H2378     1.0  0.56350  0.71509  0.78029  1.0000
  H   H2379     1.0  0.37198  0.66833  0.81139  1.0000
  C   C1487     1.0  0.56436  0.70312  0.79160  1.0000
  S   S590      1.0  0.48304  0.72625  0.79459  1.0000
  H   H2380     1.0  0.44086  0.70361  0.82641  1.0000
  C   C1488     1.0  0.43656  0.69906  0.81607  1.0000
  H   H2381     1.0  0.44616  0.72476  0.78713  1.0000
  H   H2382     1.0  0.62817  0.92660  0.82471  1.0000
  Fe  Fe293     1.0  0.63387  0.77681  0.75537  1.0000
  H   H2383     1.0  0.50105  0.74242  0.86805  1.0000
  C   C1489     1.0  0.54390  0.74972  0.78498  1.0000
  C   C1490     1.0  0.63813  0.95814  0.80779  1.0000
  S   S591      1.0  0.63611  0.76104  0.80633  1.0000
  H   H2384     1.0  0.35368  0.72920  0.75707  1.0000
  Fe  Fe294     1.0  0.63982  0.78751  0.78765  1.0000
  H   H2385     1.0  0.43847  0.92543  0.97451  1.0000
  H   H2386     1.0  0.35425  0.80196  0.86834  1.0000
  S   S592      1.0  0.61513  0.79164  0.77624  1.0000
  H   H2387     1.0  0.41643  0.86222  0.97661  1.0000
  Fe  Fe295     1.0  0.59125  0.87692  0.84652  1.0000
  S   S593      1.0  0.57508  0.89628  0.86439  1.0000
  S   S594      1.0  0.60284  0.84793  0.85728  1.0000
  Fe  Fe296     1.0  0.58114  0.90201  0.81262  1.0000
  S   S595      1.0  0.56327  0.92312  0.82764  1.0000
  S   S596      1.0  0.58805  0.90501  0.78237  1.0000
  Fe  Fe297     1.0  0.58617  0.91768  0.84215  1.0000
  S   S597      1.0  0.59356  0.94357  0.84301  1.0000
  Fe  Fe298     1.0  0.55377  0.90006  0.84843  1.0000
  S   S598      1.0  0.52557  0.89925  0.86480  1.0000
  S   S599      1.0  0.60463  0.89782  0.82579  1.0000
  S   S600      1.0  0.56930  0.87941  0.83191  1.0000
  C   C1491     1.0  0.33065  0.80106  0.88979  1.0000
  H   H2388     1.0  0.64804  0.91227  0.81466  1.0000
  C   C1492     1.0  0.48789  0.74547  0.86452  1.0000
  C   C1493     1.0  0.62256  0.94806  0.76211  1.0000
  H   H2389     1.0  0.58455  0.95597  0.75122  1.0000
  H   H2390     1.0  0.34531  0.78396  0.85151  1.0000
  Fe  Fe299     1.0  0.37264  0.76760  0.81201  1.0000
  S   S601      1.0  0.40028  0.77213  0.81135  1.0000
  S   S602      1.0  0.36303  0.74639  0.83527  1.0000
  Fe  Fe300     1.0  0.46232  0.84374  0.85716  1.0000
  S   S603      1.0  0.47090  0.82673  0.88258  1.0000
  S   S604      1.0  0.47976  0.86097  0.83596  1.0000
  Fe  Fe301     1.0  0.42914  0.82740  0.86348  1.0000
  S   S605      1.0  0.43545  0.80876  0.88894  1.0000
  S   S606      1.0  0.40279  0.82774  0.85640  1.0000
  Fe  Fe302     1.0  0.44121  0.83295  0.89527  1.0000
  S   S607      1.0  0.42661  0.83637  0.92354  1.0000
  Fe  Fe303     1.0  0.46415  0.80446  0.87387  1.0000
  S   S608      1.0  0.48319  0.77759  0.87433  1.0000
  S   S609      1.0  0.43314  0.85203  0.87050  1.0000
  S   S610      1.0  0.45743  0.82097  0.84770  1.0000
  H   H2391     1.0  0.38401  0.90835  0.91379  1.0000
  H   H2392     1.0  0.61403  0.91318  0.74903  1.0000
  H   H2393     1.0  0.42494  0.74063  0.79023  1.0000
  H   H2394     1.0  0.56466  0.95929  0.74232  1.0000
  S   S611      1.0  0.43555  0.89173  0.96566  1.0000
  H   H2395     1.0  0.36807  0.77779  0.89467  1.0000
  C   C1494     1.0  0.62316  0.96428  0.86498  1.0000
  C   C1495     1.0  0.36449  0.90646  0.95821  1.0000
  H   H2396     1.0  0.58330  0.76533  0.77345  1.0000
  H   H2397     1.0  0.39252  0.92319  0.94272  1.0000
  C   C1496     1.0  0.43042  0.85121  0.93505  1.0000
  C   C1497     1.0  0.42160  0.85061  0.95316  1.0000
  C   C1498     1.0  0.42335  0.86281  0.96268  1.0000
  C   C1499     1.0  0.43404  0.87566  0.95419  1.0000
  C   C1500     1.0  0.44305  0.87617  0.93610  1.0000
  C   C1501     1.0  0.44121  0.86399  0.92650  1.0000
  H   H2398     1.0  0.41326  0.84071  0.95984  1.0000
  H   H2399     1.0  0.49267  0.65957  0.78469  1.0000
  H   H2400     1.0  0.45135  0.88610  0.92945  1.0000
  H   H2401     1.0  0.44805  0.86455  0.91252  1.0000
  C   C1502     1.0  0.47604  0.76189  0.86671  1.0000
  C   C1503     1.0  0.48294  0.73309  0.85748  1.0000
  H   H2402     1.0  0.33415  0.71754  0.79594  1.0000
  S   S612      1.0  0.33005  0.74898  0.81544  1.0000
  C   C1504     1.0  0.56996  0.75563  0.80069  1.0000
  C   C1505     1.0  0.45901  0.76581  0.86217  1.0000
  H   H2403     1.0  0.37858  0.77563  0.86217  1.0000
  C   C1506     1.0  0.54931  0.65508  0.83427  1.0000
  H   H2404     1.0  0.64812  0.71651  0.81515  1.0000
  H   H2405     1.0  0.44989  0.77855  0.86372  1.0000
  C   C1507     1.0  0.40106  0.78843  0.82285  1.0000
  C   C1508     1.0  0.38525  0.80006  0.82944  1.0000
  C   C1509     1.0  0.38606  0.81241  0.83929  1.0000
  C   C1510     1.0  0.40263  0.81315  0.84269  1.0000
  C   C1511     1.0  0.41848  0.80159  0.83603  1.0000
  C   C1512     1.0  0.41769  0.78927  0.82609  1.0000
  H   H2406     1.0  0.37238  0.79951  0.82699  1.0000
  H   H2407     1.0  0.37377  0.82137  0.84441  1.0000
  H   H2408     1.0  0.43126  0.80202  0.83873  1.0000
  H   H2409     1.0  0.42994  0.78021  0.82110  1.0000
  H   H2410     1.0  0.36097  0.90703  0.92485  1.0000
  H   H2411     1.0  0.41020  0.71815  0.78489  1.0000
  H   H2412     1.0  0.46632  0.94796  0.95235  1.0000
  H   H2413     1.0  0.60853  0.95724  0.78674  1.0000
  N   N152      1.0  0.37922  0.90221  0.94276  1.0000
  C   C1513     1.0  0.34116  0.73803  0.76305  1.0000
  C   C1514     1.0  0.60787  0.94521  0.85637  1.0000
  C   C1515     1.0  0.61692  0.93001  0.86688  1.0000
  C   C1516     1.0  0.62915  0.93200  0.87638  1.0000
  C   C1517     1.0  0.63233  0.94914  0.87538  1.0000
  N   N153      1.0  0.48869  0.78057  0.80616  1.0000
  C   C1518     1.0  0.60836  0.93785  0.92943  1.0000
  H   H2414     1.0  0.61465  0.91676  0.86751  1.0000
  S   S613      1.0  0.65517  0.98452  0.91227  1.0000
  H   H2415     1.0  0.40011  0.90170  0.95629  1.0000
  H   H2416     1.0  0.49752  0.75832  0.82670  1.0000
  C   C1519     1.0  0.51224  0.88966  0.85637  1.0000
  C   C1520     1.0  0.49757  0.88281  0.86815  1.0000
  C   C1521     1.0  0.48758  0.87384  0.86203  1.0000
  C   C1522     1.0  0.49195  0.87216  0.84398  1.0000
  C   C1523     1.0  0.50639  0.87935  0.83211  1.0000
  C   C1524     1.0  0.51663  0.88796  0.83832  1.0000
  H   H2417     1.0  0.49409  0.88421  0.88210  1.0000
  H   H2418     1.0  0.47636  0.86845  0.87120  1.0000
  H   H2419     1.0  0.50970  0.87814  0.81811  1.0000
  H   H2420     1.0  0.52783  0.89337  0.82915  1.0000
  C   C1525     1.0  0.60088  0.92192  0.77404  1.0000
  H   H2421     1.0  0.61898  0.93565  0.91711  1.0000
  S   S614      1.0  0.62893  0.74947  0.77103  1.0000
  H   H2422     1.0  0.49026  0.77575  0.77991  1.0000
  C   C1526     1.0  0.49150  0.76118  0.81457  1.0000
  C   C1527     1.0  0.59947  0.93438  0.78457  1.0000
  C   C1528     1.0  0.61095  0.96231  0.85557  1.0000
  H   H2423     1.0  0.41204  0.69594  0.79890  1.0000
  C   C1529     1.0  0.63609  0.82103  0.81053  1.0000
  C   C1530     1.0  0.63708  0.83859  0.81073  1.0000
  C   C1531     1.0  0.62682  0.84686  0.82506  1.0000
  C   C1532     1.0  0.61609  0.83734  0.83963  1.0000
  C   C1533     1.0  0.61557  0.81951  0.83979  1.0000
  C   C1534     1.0  0.62538  0.81142  0.82512  1.0000
  C   C1535     1.0  0.54207  0.74564  0.80374  1.0000
  H   H2424     1.0  0.62748  0.86051  0.82498  1.0000
  H   H2425     1.0  0.60735  0.81207  0.85111  1.0000
  H   H2426     1.0  0.62464  0.79781  0.82506  1.0000
  C   C1536     1.0  0.62380  0.93586  0.75128  1.0000
  S   S615      1.0  0.34458  0.85211  0.95586  1.0000
  H   H2427     1.0  0.53067  0.74025  0.81232  1.0000
  C   C1537     1.0  0.38383  0.88251  0.94374  1.0000
  H   H2428     1.0  0.56003  0.76048  0.75956  1.0000
  H   H2429     1.0  0.36950  0.75385  0.90031  1.0000
  C   C1538     1.0  0.61283  0.92286  0.75719  1.0000
  H   H2430     1.0  0.39523  0.87868  0.93259  1.0000
  Fe  Fe304     1.0  0.35886  0.73429  0.81397  1.0000
  H   H2431     1.0  0.38020  0.75170  0.86835  1.0000
  Fe  Fe305     1.0  0.65257  0.74807  0.78313  1.0000
  H   H2432     1.0  0.35240  0.90104  0.95881  1.0000
  S   S616      1.0  0.34507  0.78598  0.81266  1.0000
  Fe  Fe306     1.0  0.33535  0.76343  0.83419  1.0000
  H   H2433     1.0  0.46775  0.77930  0.79348  1.0000
  H   H2434     1.0  0.37204  0.87731  0.94305  1.0000
  H   H2435     1.0  0.47853  0.75632  0.81878  1.0000
  S   S617      1.0  0.37007  0.75439  0.79067  1.0000
  C   C1539     1.0  0.47604  0.79095  0.81925  1.0000
  H   H2436     1.0  0.50448  0.80121  0.79521  1.0000
  H   H2437     1.0  0.47876  0.79810  0.78319  1.0000
  H   H2438     1.0  0.46274  0.78670  0.82370  1.0000
  H   H2439     1.0  0.47343  0.80569  0.81338  1.0000
  H   H2440     1.0  0.48157  0.78896  0.83160  1.0000
  N   N154      1.0  0.54140  0.83776  0.87758  1.0000
  C   C1540     1.0  0.52837  0.84870  0.89002  1.0000
  C   C1541     1.0  0.53868  0.81896  0.88303  1.0000
  C   C1542     1.0  0.56010  0.83813  0.87823  1.0000
  C   C1543     1.0  0.53845  0.84535  0.85900  1.0000
  H   H2441     1.0  0.53014  0.86297  0.88633  1.0000
  H   H2442     1.0  0.53011  0.84335  0.90420  1.0000
  H   H2443     1.0  0.51410  0.84898  0.88967  1.0000
  H   H2444     1.0  0.52470  0.81827  0.88255  1.0000
  H   H2445     1.0  0.54835  0.81032  0.87395  1.0000
  H   H2446     1.0  0.54071  0.81282  0.89704  1.0000
  H   H2447     1.0  0.56255  0.85218  0.87424  1.0000
  H   H2448     1.0  0.57037  0.83021  0.86885  1.0000
  H   H2449     1.0  0.56296  0.83247  0.89200  1.0000
  H   H2450     1.0  0.52432  0.84577  0.85803  1.0000
  H   H2451     1.0  0.54787  0.83733  0.84925  1.0000
  H   H2452     1.0  0.54072  0.85941  0.85444  1.0000
  C   C1544     1.0  0.55861  0.75716  0.77409  1.0000
  C   C1545     1.0  0.65890  0.69026  0.83001  1.0000
  C   C1546     1.0  0.37742  0.76454  0.89788  1.0000
  C   C1547     1.0  0.40311  0.77718  0.87997  1.0000
  S   S618      1.0  0.58669  0.75754  0.81100  1.0000
  H   H2453     1.0  0.43403  0.94968  0.96810  1.0000
  H   H2454     1.0  0.44101  0.75649  0.85135  1.0000
  H   H2455     1.0  0.63339  0.92792  0.80082  1.0000
  H   H2456     1.0  0.63607  0.95398  0.92477  1.0000
  N   N155      1.0  0.39352  0.76228  0.88311  1.0000
  H   H2457     1.0  0.38129  0.76401  0.91076  1.0000
  C   C1548     1.0  0.59334  0.95797  0.95014  1.0000
  N   N156      1.0  0.37807  0.83378  0.91112  1.0000
  C   C1549     1.0  0.38204  0.82891  0.92945  1.0000
  C   C1550     1.0  0.35922  0.84390  0.91170  1.0000
  C   C1551     1.0  0.38047  0.81716  0.90436  1.0000
  C   C1552     1.0  0.39052  0.84512  0.89890  1.0000
  H   H2458     1.0  0.39584  0.82041  0.92965  1.0000
  H   H2459     1.0  0.37214  0.82130  0.93929  1.0000
  H   H2460     1.0  0.38141  0.84111  0.93459  1.0000
  H   H2461     1.0  0.35562  0.84738  0.89817  1.0000
  H   H2462     1.0  0.34956  0.83574  0.92097  1.0000
  H   H2463     1.0  0.35688  0.85660  0.91662  1.0000
  H   H2464     1.0  0.37684  0.82034  0.89085  1.0000
  H   H2465     1.0  0.37165  0.80805  0.91363  1.0000
  H   H2466     1.0  0.39475  0.80962  0.90296  1.0000
  H   H2467     1.0  0.38795  0.84898  0.88492  1.0000
  H   H2468     1.0  0.40480  0.83782  0.89816  1.0000
  H   H2469     1.0  0.38926  0.85769  0.90368  1.0000
  H   H2470     1.0  0.39901  0.73329  0.89067  1.0000
  H   H2471     1.0  0.36971  0.92632  0.92442  1.0000
  C   C1553     1.0  0.61005  0.94755  0.77851  1.0000
  C   C1554     1.0  0.39538  0.90838  0.94347  1.0000
  C   C1555     1.0  0.37321  0.91140  0.92568  1.0000
  H   H2472     1.0  0.36008  0.92126  0.95755  1.0000
  N   N157      1.0  0.45710  0.93801  0.98066  1.0000
  H   H2473     1.0  0.61183  0.92646  0.94065  1.0000
  H   H2474     1.0  0.51280  0.78357  0.81271  1.0000
  C   C1556     1.0  0.45395  0.75330  0.85533  1.0000
  H   H2475     1.0  0.41807  0.74271  0.87717  1.0000
  H   H2476     1.0  0.36893  0.90047  0.97128  1.0000
  N   N158      1.0  0.59393  0.84968  0.78255  1.0000
  C   C1557     1.0  0.59342  0.83451  0.79833  1.0000
  C   C1558     1.0  0.57660  0.86293  0.78461  1.0000
  C   C1559     1.0  0.59681  0.84272  0.76594  1.0000
  C   C1560     1.0  0.60897  0.85852  0.78132  1.0000
  H   H2477     1.0  0.58180  0.82795  0.80017  1.0000
  H   H2478     1.0  0.59233  0.83906  0.81102  1.0000
  H   H2479     1.0  0.60595  0.82387  0.79672  1.0000
  H   H2480     1.0  0.57417  0.86851  0.79695  1.0000
  H   H2481     1.0  0.57658  0.87466  0.77300  1.0000
  H   H2482     1.0  0.56490  0.85679  0.78561  1.0000
  H   H2483     1.0  0.59693  0.85383  0.75379  1.0000
  H   H2484     1.0  0.58599  0.83550  0.76660  1.0000
  H   H2485     1.0  0.61002  0.83298  0.76385  1.0000
  H   H2486     1.0  0.60952  0.87030  0.76983  1.0000
  H   H2487     1.0  0.62230  0.84897  0.77946  1.0000
  H   H2488     1.0  0.60741  0.86368  0.79377  1.0000
  H   H2489     1.0  0.60400  0.97410  0.84743  1.0000
  H   H2490     1.0  0.40800  0.77720  0.89212  1.0000
  H   H2491     1.0  0.38809  0.87522  0.95663  1.0000
  H   H2492     1.0  0.59240  0.97121  0.95360  1.0000
  H   H2493     1.0  0.61127  0.66163  0.86716  1.0000
  C   C1561     1.0  0.38771  0.76260  0.86645  1.0000
  H   H2494     1.0  0.45273  0.96702  0.97547  1.0000
  S   S619      1.0  0.64722  0.81222  0.79115  1.0000
  C   C1562     1.0  0.57175  0.75996  0.78192  1.0000
  H   H2495     1.0  0.57973  0.95770  0.94829  1.0000
  Fe  Fe307     1.0  0.61271  0.76414  0.79304  1.0000
  Fe  Fe308     1.0  0.34142  0.77042  0.79381  1.0000
  H   H2496     1.0  0.39412  0.79055  0.87637  1.0000
  N   N159      1.0  0.60737  0.95546  0.93373  1.0000
  H   H2497     1.0  0.59017  0.93394  0.79745  1.0000
  H   H2498     1.0  0.38120  0.65477  0.78435  1.0000
  H   H2499     1.0  0.63626  0.92022  0.88438  1.0000
  H   H2500     1.0  0.50078  0.75290  0.80504  1.0000
  C   C1563     1.0  0.40583  0.74484  0.88811  1.0000
  C   C1564     1.0  0.55496  0.74874  0.81156  1.0000
  H   H2501     1.0  0.62564  0.97751  0.86396  1.0000
  C   C1565     1.0  0.34435  0.86038  0.97476  1.0000
  C   C1566     1.0  0.50622  0.78646  0.80092  1.0000
  C   C1567     1.0  0.48100  0.78359  0.78996  1.0000
  H   H2502     1.0  0.51584  0.77940  0.79050  1.0000
  H   H2503     1.0  0.40696  0.90507  0.93226  1.0000
  H   H2504     1.0  0.41068  0.74417  0.90052  1.0000
  H   H2505     1.0  0.33483  0.71202  0.75020  1.0000
  C   C1568     1.0  0.57435  0.96640  0.74449  1.0000
  H   H2506     1.0  0.39951  0.76084  0.85502  1.0000
  C   C1569     1.0  0.65944  0.70513  0.81543  1.0000
  C   C1570     1.0  0.46598  0.73699  0.85288  1.0000
  C   C1571     1.0  0.53908  0.66161  0.84964  1.0000
  H   H2507     1.0  0.43145  0.70227  0.78266  1.0000
  S   S620      1.0  0.52795  0.74570  0.77491  1.0000
  C   C1572     1.0  0.33662  0.78703  0.86399  1.0000
  H   H2508     1.0  0.55350  0.74547  0.82610  1.0000
  H   H2509     1.0  0.41513  0.77613  0.86870  1.0000
  H   H2510     1.0  0.48408  0.93639  0.96449  1.0000
  H   H2511     1.0  0.53597  0.65861  0.87846  1.0000
  C   C1573     1.0  0.47010  0.93649  0.96340  1.0000
  S   S621      1.0  0.39225  0.66977  0.74651  1.0000
  H   H2512     1.0  0.63328  0.96145  0.79493  1.0000
  C   C1574     1.0  0.60273  0.97009  0.91845  1.0000
  C   C1575     1.0  0.34171  0.79715  0.87354  1.0000
  H   H2513     1.0  0.64550  0.84598  0.79956  1.0000
  S   S622      1.0  0.63657  0.96392  0.75579  1.0000
  H   H2514     1.0  0.63358  0.93604  0.73868  1.0000
  C   C1576     1.0  0.65782  0.93711  0.82642  1.0000
  H   H2515     1.0  0.62496  0.96926  0.93981  1.0000
  H   H2516     1.0  0.33783  0.75014  0.75240  1.0000
  Fe  Fe309     1.0  0.64898  0.97989  0.88758  1.0000
  N   N160      1.0  0.65008  0.94006  0.81026  1.0000
  S   S623      1.0  0.33075  0.81182  0.95179  1.0000
  C   C1577     1.0  0.63949  0.92610  0.81271  1.0000
  H   H2517     1.0  0.64527  0.96890  0.80738  1.0000
  H   H2518     1.0  0.61295  0.96847  0.90582  1.0000
  C   C1578     1.0  0.36086  0.85828  0.97982  1.0000
  S   S624      1.0  0.33813  0.81281  0.90177  1.0000
  H   H2519     1.0  0.58936  0.97021  0.91576  1.0000
  C   C1579     1.0  0.54425  0.65414  0.86639  1.0000
  H   H2520     1.0  0.37290  0.84977  0.97360  1.0000
  H   H2521     1.0  0.56676  0.97528  0.75420  1.0000
  H   H2522     1.0  0.60714  0.97565  0.73654  1.0000
  H   H2523     1.0  0.60216  0.98358  0.92109  1.0000
  C   C1580     1.0  0.43881  0.93801  0.97850  1.0000
  Fe  Fe310     1.0  0.71261  0.12633  0.05081  1.0000
  S   S625      1.0  0.71352  0.09881  0.06871  1.0000
  S   S626      1.0  0.72455  0.13105  0.02103  1.0000
  Fe  Fe311     1.0  0.69125  0.14586  0.08101  1.0000
  S   S627      1.0  0.69096  0.11998  0.10136  1.0000
  C   C1581     1.0  0.86820  0.01703  0.13219  1.0000
  Fe  Fe312     1.0  0.72011  0.11179  0.08818  1.0000
  S   S628      1.0  0.74020  0.09557  0.10558  1.0000
  Fe  Fe313     1.0  0.68437  0.10968  0.08013  1.0000
  S   S629      1.0  0.72113  0.13878  0.06952  1.0000
  S   S630      1.0  0.68293  0.13606  0.06050  1.0000
  H   H2524     1.0  0.88138  0.09343  0.01148  1.0000
  H   H2525     1.0  0.67546  0.06411  0.03988  1.0000
  H   H2526     1.0  0.71908  0.19786  0.09871  1.0000
  S   S631      1.0  0.81841  0.02842  0.99942  1.0000
  H   H2527     1.0  0.70239  0.14887  0.11645  1.0000
  C   C1582     1.0  0.80983  0.15039  0.15097  1.0000
  C   C1583     1.0  0.68176  0.31066  0.14665  1.0000
  S   S632      1.0  0.87950  0.15445  0.19594  1.0000
  H   H2528     1.0  0.68216  0.29757  0.14324  1.0000
  Fe  Fe314     1.0  0.82126  0.10469  0.13324  1.0000
  S   S633      1.0  0.84886  0.10860  0.13338  1.0000
  S   S634      1.0  0.79914  0.12714  0.12358  1.0000
  Fe  Fe315     1.0  0.83121  0.06389  0.14514  1.0000
  S   S635      1.0  0.85944  0.06413  0.14645  1.0000
  S   S636      1.0  0.82138  0.03870  0.14756  1.0000
  Fe  Fe316     1.0  0.84642  0.08804  0.15952  1.0000
  S   S637      1.0  0.85230  0.08862  0.18616  1.0000
  Fe  Fe317     1.0  0.85929  0.08435  0.12040  1.0000
  S   S638      1.0  0.88140  0.07943  0.09634  1.0000
  S   S639      1.0  0.81787  0.08611  0.16034  1.0000
  S   S640      1.0  0.83197  0.08230  0.11821  1.0000
  Fe  Fe318     1.0  0.85333  0.06453  0.01659  1.0000
  S   S641      1.0  0.85209  0.03523  0.02397  1.0000
  S   S642      1.0  0.84128  0.08500  0.03412  1.0000
  H   H2529     1.0  0.83057  0.16919  0.15853  1.0000
  H   H2530     1.0  0.70795  0.16145  0.15709  1.0000
  Fe  Fe319     1.0  0.84191  0.04041  0.99850  1.0000
  H   H2531     1.0  0.82981  0.12042  0.16767  1.0000
  C   C1584     1.0  0.69346  0.20429  0.11679  1.0000
  C   C1585     1.0  0.70469  0.29655  0.16443  1.0000
  S   S643      1.0  0.88185  0.06046  0.00060  1.0000
  H   H2532     1.0  0.76304  0.06302  0.98909  1.0000
  H   H2533     1.0  0.75171  0.08593  0.98299  1.0000
  H   H2534     1.0  0.73994  0.12249  0.13974  1.0000
  C   C1586     1.0  0.70731  0.25761  0.19690  1.0000
  C   C1587     1.0  0.87569  0.05970  0.22355  1.0000
  C   C1588     1.0  0.81890  0.12832  0.17654  1.0000
  H   H2535     1.0  0.89608  0.08445  0.21701  1.0000
  C   C1589     1.0  0.87141  0.08195  0.07791  1.0000
  C   C1590     1.0  0.85566  0.09503  0.07590  1.0000
  C   C1591     1.0  0.84682  0.09621  0.06204  1.0000
  C   C1592     1.0  0.85361  0.08421  0.05022  1.0000
  C   C1593     1.0  0.86959  0.07135  0.05191  1.0000
  C   C1594     1.0  0.87857  0.07032  0.06569  1.0000
  H   H2536     1.0  0.85029  0.10430  0.08506  1.0000
  H   H2537     1.0  0.83456  0.10630  0.06067  1.0000
  H   H2538     1.0  0.87486  0.06199  0.04285  1.0000
  H   H2539     1.0  0.89076  0.06018  0.06723  1.0000
  C   C1595     1.0  0.82753  0.02182  0.16579  1.0000
  C   C1596     1.0  0.83830  0.02439  0.17638  1.0000
  C   C1597     1.0  0.84371  0.01043  0.19045  1.0000
  C   C1598     1.0  0.82201  0.00538  0.16942  1.0000
  H   H2540     1.0  0.84235  0.03716  0.17387  1.0000
  H   H2541     1.0  0.69472  0.16699  0.14003  1.0000
  H   H2542     1.0  0.81362  0.00337  0.16132  1.0000
  C   C1599     1.0  0.87291  0.13565  0.19305  1.0000
  C   C1600     1.0  0.86588  0.12346  0.20804  1.0000
  C   C1601     1.0  0.85966  0.10911  0.20567  1.0000
  C   C1602     1.0  0.86074  0.10659  0.18831  1.0000
  C   C1603     1.0  0.86807  0.11854  0.17325  1.0000
  C   C1604     1.0  0.87409  0.13311  0.17563  1.0000
  H   H2543     1.0  0.86494  0.12526  0.22150  1.0000
  H   H2544     1.0  0.85368  0.10013  0.21735  1.0000
  H   H2545     1.0  0.86917  0.11654  0.15981  1.0000
  H   H2546     1.0  0.87971  0.14241  0.16399  1.0000
  C   C1605     1.0  0.80131  0.15774  0.18058  1.0000
  S   S644      1.0  0.90133  0.00679  0.01136  1.0000
  C   C1606     1.0  0.89127  0.07866  0.23151  1.0000
  H   H2547     1.0  0.80535  0.15602  0.19367  1.0000
  H   H2548     1.0  0.87704  0.00212  0.16487  1.0000
  C   C1607     1.0  0.75669  0.10476  0.10983  1.0000
  C   C1608     1.0  0.76700  0.09437  0.12256  1.0000
  C   C1609     1.0  0.78031  0.10106  0.12645  1.0000
  C   C1610     1.0  0.78304  0.11846  0.11802  1.0000
  C   C1611     1.0  0.77261  0.12901  0.10539  1.0000
  C   C1612     1.0  0.75961  0.12208  0.10111  1.0000
  H   H2549     1.0  0.76454  0.08112  0.12963  1.0000
  H   H2550     1.0  0.78816  0.09288  0.13632  1.0000
  H   H2551     1.0  0.77478  0.14245  0.09875  1.0000
  H   H2552     1.0  0.75185  0.13014  0.09113  1.0000
  C   C1613     1.0  0.68130  0.18239  0.10101  1.0000
  S   S645      1.0  0.70080  0.21824  0.12653  1.0000
  H   H2553     1.0  0.74775  0.07436  0.00611  1.0000
  C   C1614     1.0  0.72312  0.12214  0.99000  1.0000
  C   C1615     1.0  0.67568  0.25551  0.20732  1.0000
  C   C1616     1.0  0.71934  0.11769  0.00890  1.0000
  C   C1617     1.0  0.67470  0.26346  0.22181  1.0000
  H   H2554     1.0  0.71731  0.17107  0.13426  1.0000
  C   C1618     1.0  0.89957  0.01198  0.13402  1.0000
  C   C1619     1.0  0.70925  0.09121  0.00771  1.0000
  C   C1620     1.0  0.71222  0.10230  0.01776  1.0000
  C   C1621     1.0  0.70863  0.16142  0.14272  1.0000
  H   H2555     1.0  0.67632  0.29623  0.19219  1.0000
  H   H2556     1.0  0.70413  0.07908  0.01459  1.0000
  H   H2557     1.0  0.70927  0.09876  0.03234  1.0000
  H   H2558     1.0  0.87730  0.99545  0.99353  1.0000
  C   C1622     1.0  0.67303  0.29892  0.17859  1.0000
  H   H2559     1.0  0.91193  0.00194  0.13712  1.0000
  H   H2560     1.0  0.86861  0.11373  0.01856  1.0000
  S   S646      1.0  0.67595  0.25892  0.15233  1.0000
  C   C1623     1.0  0.79963  0.05713  0.10775  1.0000
  H   H2561     1.0  0.85634  0.01092  0.13366  1.0000
  H   H2562     1.0  0.77755  0.10497  0.00500  1.0000
  H   H2563     1.0  0.90312  0.01973  0.11998  1.0000
  H   H2564     1.0  0.82325  0.12574  0.18962  1.0000
  N   N161      1.0  0.71576  0.14313  0.13873  1.0000
  H   H2565     1.0  0.71511  0.30279  0.15381  1.0000
  C   C1624     1.0  0.88595  0.98954  0.06552  1.0000
  H   H2566     1.0  0.77237  0.06721  0.02359  1.0000
  H   H2567     1.0  0.84358  0.14736  0.15523  1.0000
  H   H2568     1.0  0.68015  0.13220  0.00050  1.0000
  C   C1625     1.0  0.66405  0.10414  0.00781  1.0000
  H   H2569     1.0  0.78460  0.06135  0.11066  1.0000
  H   H2570     1.0  0.69135  0.31767  0.13567  1.0000
  N   N162      1.0  0.88427  0.00313  0.13625  1.0000
  C   C1626     1.0  0.83804  0.99404  0.19414  1.0000
  H   H2571     1.0  0.78687  0.05555  0.00656  1.0000
  H   H2572     1.0  0.85428  0.99902  0.99096  1.0000
  H   H2573     1.0  0.80488  0.06331  0.11617  1.0000
  C   C1627     1.0  0.78208  0.06899  0.01039  1.0000
  H   H2574     1.0  0.85185  0.01252  0.19872  1.0000
  C   C1628     1.0  0.75835  0.07615  0.99356  1.0000
  H   H2575     1.0  0.84271  0.99887  0.02337  1.0000
  H   H2576     1.0  0.75602  0.09868  0.01511  1.0000
  S   S647      1.0  0.72527  0.27352  0.21202  1.0000
  C   C1629     1.0  0.66930  0.13134  0.01294  1.0000
  H   H2577     1.0  0.72855  0.13408  0.98309  1.0000
  C   C1630     1.0  0.70391  0.13081  0.15031  1.0000
  H   H2578     1.0  0.79405  0.07292  0.01243  1.0000
  H   H2579     1.0  0.67599  0.12379  0.02443  1.0000
  H   H2580     1.0  0.87382  0.04573  0.22492  1.0000
  H   H2581     1.0  0.72508  0.15290  0.11036  1.0000
  H   H2582     1.0  0.89253  0.99759  0.10939  1.0000
  N   N163      1.0  0.81563  0.14775  0.16818  1.0000
  C   C1631     1.0  0.88736  0.00037  0.04807  1.0000
  H   H2583     1.0  0.88024  0.06518  0.20890  1.0000
  H   H2584     1.0  0.82032  0.14297  0.14130  1.0000
  H   H2585     1.0  0.80658  0.12259  0.17913  1.0000
  H   H2586     1.0  0.66745  0.23971  0.07041  1.0000
  H   H2587     1.0  0.80723  0.16488  0.14421  1.0000
  N   N164      1.0  0.80736  0.06254  0.08831  1.0000
  C   C1632     1.0  0.82716  0.05549  0.08482  1.0000
  C   C1633     1.0  0.79896  0.05507  0.07769  1.0000
  C   C1634     1.0  0.80361  0.08247  0.08290  1.0000
  H   H2588     1.0  0.83411  0.06151  0.09186  1.0000
  H   H2589     1.0  0.83325  0.05862  0.07016  1.0000
  H   H2590     1.0  0.83050  0.04059  0.08947  1.0000
  H   H2591     1.0  0.80454  0.05887  0.06295  1.0000
  H   H2592     1.0  0.80142  0.04007  0.08148  1.0000
  H   H2593     1.0  0.78400  0.06021  0.07995  1.0000
  H   H2594     1.0  0.78878  0.08822  0.08527  1.0000
  H   H2595     1.0  0.80939  0.08699  0.06833  1.0000
  H   H2596     1.0  0.80960  0.08867  0.09069  1.0000
  N   N165      1.0  0.68636  0.30795  0.16448  1.0000
  H   H2597     1.0  0.80304  0.04224  0.11261  1.0000
  H   H2598     1.0  0.69305  0.24595  0.18402  1.0000
  Fe  Fe320     1.0  0.87950  0.03142  0.00563  1.0000
  C   C1635     1.0  0.71616  0.14384  0.11958  1.0000
  H   H2599     1.0  0.70819  0.17866  0.08448  1.0000
  Fe  Fe321     1.0  0.88217  0.15231  0.22450  1.0000
  H   H2600     1.0  0.90485  0.03416  0.22958  1.0000
  C   C1636     1.0  0.66460  0.07082  0.04915  1.0000
  H   H2601     1.0  0.78840  0.15289  0.18356  1.0000
  Fe  Fe322     1.0  0.67633  0.23487  0.14149  1.0000
  H   H2602     1.0  0.87091  0.02513  0.11820  1.0000
  C   C1637     1.0  0.70531  0.19573  0.10327  1.0000
  H   H2603     1.0  0.70538  0.28297  0.16195  1.0000
  C   C1638     1.0  0.66964  0.19059  0.11480  1.0000
  H   H2604     1.0  0.83746  0.15250  0.17736  1.0000
  C   C1639     1.0  0.90002  0.99410  0.03363  1.0000
  H   H2605     1.0  0.70887  0.11692  0.14746  1.0000
  H   H2606     1.0  0.79844  0.17246  0.17468  1.0000
  C   C1640     1.0  0.68994  0.26880  0.22364  1.0000
  C   C1641     1.0  0.88011  0.99309  0.15508  1.0000
  C   C1642     1.0  0.76655  0.09990  0.00242  1.0000
  H   H2607     1.0  0.72129  0.13023  0.11618  1.0000
  H   H2608     1.0  0.73460  0.13603  0.15648  1.0000
  H   H2609     1.0  0.87874  0.01360  0.04585  1.0000
  C   C1643     1.0  0.86623  0.98846  0.99436  1.0000
  H   H2610     1.0  0.66891  0.21591  0.07895  1.0000
  H   H2611     1.0  0.87614  0.99444  0.07665  1.0000
  C   C1644     1.0  0.71327  0.09555  0.98880  1.0000
  C   C1645     1.0  0.69921  0.18481  0.09531  1.0000
  H   H2612     1.0  0.70333  0.12981  0.16488  1.0000
  H   H2613     1.0  0.86399  0.02661  0.14154  1.0000
  H   H2614     1.0  0.86556  0.99611  0.02590  1.0000
  H   H2615     1.0  0.68257  0.07978  0.06038  1.0000
  H   H2616     1.0  0.79718  0.14531  0.15305  1.0000
  H   H2617     1.0  0.74375  0.14512  0.13335  1.0000
  H   H2618     1.0  0.71996  0.25522  0.18728  1.0000
  H   H2619     1.0  0.68979  0.13554  0.14799  1.0000
  S   S648      1.0  0.67261  0.17037  0.09033  1.0000
  C   C1646     1.0  0.73431  0.13641  0.14225  1.0000
  H   H2620     1.0  0.86213  0.06800  0.22803  1.0000
  C   C1647     1.0  0.67567  0.20158  0.12260  1.0000
  H   H2621     1.0  0.67275  0.28566  0.17598  1.0000
  H   H2622     1.0  0.89629  0.02159  0.14327  1.0000
  C   C1648     1.0  0.83252  0.15452  0.16468  1.0000
  H   H2623     1.0  0.70871  0.29444  0.17763  1.0000
  C   C1649     1.0  0.70623  0.26598  0.21108  1.0000
  N   N166      1.0  0.77350  0.08250  0.99642  1.0000
  H   H2624     1.0  0.67159  0.09601  0.01844  1.0000
  C   C1650     1.0  0.82709  0.99159  0.18369  1.0000
  S   S649      1.0  0.88772  0.99767  0.20929  1.0000
  C   C1651     1.0  0.69207  0.25246  0.19496  1.0000
  C   C1652     1.0  0.88919  0.99050  0.12374  1.0000
  S   S650      1.0  0.84028  0.07007  0.99294  1.0000
  H   H2625     1.0  0.78487  0.02877  0.99023  1.0000
  C   C1653     1.0  0.87999  0.10835  0.00815  1.0000
  H   H2626     1.0  0.91218  0.05320  0.21364  1.0000
  C   C1654     1.0  0.90636  0.04828  0.22810  1.0000
  H   H2627     1.0  0.80953  0.21033  0.23003  1.0000
  H   H2628     1.0  0.67384  0.10473  0.99462  1.0000
  H   H2629     1.0  0.84781  0.11727  0.99830  1.0000
  C   C1655     1.0  0.66863  0.07971  0.06070  1.0000
  H   H2630     1.0  0.89264  0.11129  0.00979  1.0000
  H   H2631     1.0  0.76016  0.11049  0.99211  1.0000
  C   C1656     1.0  0.85513  0.98867  0.02605  1.0000
  H   H2632     1.0  0.66649  0.20791  0.13319  1.0000
  H   H2633     1.0  0.66333  0.14529  0.01523  1.0000
  H   H2634     1.0  0.86061  0.09707  0.99097  1.0000
  C   C1657     1.0  0.66103  0.22949  0.08110  1.0000
  H   H2635     1.0  0.86332  0.14217  0.99579  1.0000
  H   H2636     1.0  0.66268  0.23105  0.09431  1.0000
  N   N167      1.0  0.87657  0.11611  0.98971  1.0000
  C   C1658     1.0  0.85963  0.11186  0.98831  1.0000
  H   H2637     1.0  0.66784  0.31884  0.14628  1.0000
  H   H2638     1.0  0.88731  0.13962  0.98692  1.0000
  C   C1659     1.0  0.87475  0.13591  0.98599  1.0000
  H   H2639     1.0  0.66206  0.26572  0.23147  1.0000
  H   H2640     1.0  0.86810  0.98689  0.15757  1.0000
  H   H2641     1.0  0.95128  0.08917  0.25408  1.0000
  H   H2642     1.0  0.97794  0.10597  0.26413  1.0000
  S   S651      1.0  0.68164  0.31183  0.28857  1.0000
  H   H2643     1.0  0.91442  0.23295  0.32114  1.0000
  H   H2644     1.0  0.96831  0.18642  0.27155  1.0000
  S   S652      1.0  0.92299  0.06486  0.33443  1.0000
  S   S653      1.0  0.84738  0.19028  0.26897  1.0000
  Fe  Fe323     1.0  0.90777  0.15165  0.24864  1.0000
  S   S654      1.0  0.88738  0.14548  0.27419  1.0000
  H   H2645     1.0  0.92016  0.02871  0.35625  1.0000
  H   H2646     1.0  0.91370  0.01428  0.37759  1.0000
  C   C1660     1.0  0.92409  0.18330  0.28729  1.0000
  C   C1661     1.0  0.94040  0.18868  0.28542  1.0000
  Fe  Fe324     1.0  0.94674  0.04300  0.32700  1.0000
  H   H2647     1.0  0.91245  0.18762  0.29732  1.0000
  C   C1662     1.0  0.91072  0.07357  0.31713  1.0000
  C   C1663     1.0  0.91415  0.06479  0.30276  1.0000
  C   C1664     1.0  0.90436  0.07185  0.28892  1.0000
  C   C1665     1.0  0.89147  0.08798  0.28916  1.0000
  C   C1666     1.0  0.88818  0.09692  0.30340  1.0000
  C   C1667     1.0  0.89766  0.08959  0.31750  1.0000
  H   H2648     1.0  0.87822  0.10941  0.30362  1.0000
  H   H2649     1.0  0.89504  0.09648  0.32855  1.0000
  H   H2650     1.0  0.77084  0.21801  0.25210  1.0000
  C   C1668     1.0  0.85562  0.20637  0.31797  1.0000
  H   H2651     1.0  0.83761  0.23135  0.30984  1.0000
  C   C1669     1.0  0.84148  0.21299  0.29214  1.0000
  C   C1670     1.0  0.85031  0.19603  0.28817  1.0000
  C   C1671     1.0  0.86163  0.18418  0.29926  1.0000
  C   C1672     1.0  0.86416  0.18928  0.31424  1.0000
  H   H2652     1.0  0.86831  0.17102  0.29644  1.0000
  H   H2653     1.0  0.87295  0.18007  0.32277  1.0000
  Fe  Fe325     1.0  0.97409  0.20886  0.33955  1.0000
  S   S655      1.0  0.88868  0.17396  0.23446  1.0000
  N   N168      1.0  0.90914  0.21645  0.34774  1.0000
  S   S656      1.0  0.97150  0.18450  0.33108  1.0000
  C   C1673     1.0  0.84428  0.21821  0.30692  1.0000
  C   C1674     1.0  0.89513  0.24875  0.26131  1.0000
  H   H2654     1.0  0.90614  0.00997  0.33388  1.0000
  C   C1675     1.0  0.93778  0.16661  0.26331  1.0000
  H   H2655     1.0  0.76157  0.26300  0.37608  1.0000
  C   C1676     1.0  0.94709  0.00666  0.25110  1.0000
  C   C1677     1.0  0.90398  0.22550  0.33023  1.0000
  S   S657      1.0  0.75121  0.29273  0.23436  1.0000
  S   S658      1.0  0.96881  0.04774  0.30278  1.0000
  C   C1678     1.0  0.89728  0.02177  0.33940  1.0000
  H   H2656     1.0  0.89097  0.23540  0.33211  1.0000
  Fe  Fe326     1.0  0.88130  0.12638  0.26049  1.0000
  C   C1679     1.0  0.91414  0.01659  0.36287  1.0000
  C   C1680     1.0  0.95436  0.17123  0.26205  1.0000
  H   H2657     1.0  0.88929  0.04734  0.35900  1.0000
  C   C1681     1.0  0.91115  0.23008  0.35675  1.0000
  Fe  Fe327     1.0  0.96600  0.02184  0.29750  1.0000
  C   C1682     1.0  0.91510  0.00562  0.26003  1.0000
  H   H2658     1.0  0.89699  0.25546  0.24678  1.0000
  H   H2659     1.0  0.77430  0.27373  0.38489  1.0000
  C   C1683     1.0  0.68721  0.30862  0.30971  1.0000
  C   C1684     1.0  0.88393  0.03481  0.36577  1.0000
  N   N169      1.0  0.89597  0.01892  0.35908  1.0000
  H   H2660     1.0  0.90736  0.24880  0.26617  1.0000
  S   S659      1.0  0.96545  0.01876  0.26969  1.0000
  Fe  Fe328     1.0  0.86776  0.16664  0.25925  1.0000
  C   C1685     1.0  0.95365  0.08550  0.26812  1.0000
  C   C1686     1.0  0.87588  0.23067  0.25768  1.0000
  H   H2661     1.0  0.86886  0.06203  0.25871  1.0000
  N   N170      1.0  0.95079  0.10173  0.27571  1.0000
  H   H2662     1.0  0.82118  0.22950  0.25347  1.0000
  S   S660      1.0  0.94239  0.01864  0.32033  1.0000
  H   H2663     1.0  0.90994  0.16873  0.27743  1.0000
  C   C1687     1.0  0.92272  0.17242  0.27616  1.0000
  H   H2664     1.0  0.92366  0.00482  0.35791  1.0000
  H   H2665     1.0  0.99150  0.08044  0.36846  1.0000
  H   H2666     1.0  0.78561  0.20327  0.27824  1.0000
  H   H2667     1.0  0.92441  0.05260  0.30218  1.0000
  C   C1688     1.0  0.91386  0.01290  0.27502  1.0000
  H   H2668     1.0  0.92802  0.02278  0.28953  1.0000
  S   S661      1.0  0.96536  0.02758  0.34578  1.0000
  H   H2669     1.0  0.83266  0.22223  0.28368  1.0000
  C   C1689     1.0  0.95568  0.18230  0.27307  1.0000
  H   H2670     1.0  0.88164  0.21600  0.36183  1.0000
  H   H2671     1.0  0.96608  0.16670  0.25216  1.0000
  C   C1690     1.0  0.80694  0.20569  0.24496  1.0000
  H   H2672     1.0  0.89824  0.24003  0.35941  1.0000
  S   S662      1.0  0.88002  0.09711  0.27131  1.0000
  H   H2673     1.0  0.90716  0.06503  0.27781  1.0000
  H   H2674     1.0  0.98156  0.25497  0.33859  1.0000
  H   H2675     1.0  0.89751  0.99033  0.36340  1.0000
  C   C1691     1.0  0.92922  0.01690  0.27814  1.0000
  H   H2676     1.0  0.88741  0.99989  0.38310  1.0000
  C   C1692     1.0  0.93202  0.11196  0.27577  1.0000
  S   S663      1.0  0.95646  0.21735  0.36479  1.0000
  H   H2677     1.0  0.79927  0.19464  0.24853  1.0000
  H   H2678     1.0  0.80689  0.20794  0.27864  1.0000
  S   S664      1.0  0.94064  0.20487  0.29729  1.0000
  Fe  Fe329     1.0  0.96675  0.20385  0.30535  1.0000
  H   H2679     1.0  0.91646  0.04770  0.23616  1.0000
  H   H2680     1.0  0.92160  0.23782  0.34822  1.0000
  H   H2681     1.0  0.93735  0.21064  0.33587  1.0000
  H   H2682     1.0  0.88880  0.25046  0.42565  1.0000
  H   H2683     1.0  0.93277  0.99715  0.23628  1.0000
  H   H2684     1.0  0.92201  0.10376  0.28413  1.0000
  H   H2685     1.0  0.93021  0.26971  0.40770  1.0000
  S   S665      1.0  0.86007  0.21313  0.33583  1.0000
  C   C1693     1.0  0.74227  0.29578  0.38141  1.0000
  H   H2686     1.0  0.91548  0.22367  0.36981  1.0000
  C   C1694     1.0  0.92655  0.20355  0.34459  1.0000
  Fe  Fe330     1.0  0.96300  0.00323  0.33691  1.0000
  H   H2687     1.0  0.90229  0.21559  0.32311  1.0000
  H   H2688     1.0  0.78105  0.30309  0.35142  1.0000
  H   H2689     1.0  0.89309  0.19641  0.35270  1.0000
  H   H2690     1.0  0.74663  0.29621  0.39374  1.0000
  H   H2691     1.0  0.66205  0.30158  0.47188  1.0000
  H   H2692     1.0  0.76292  0.28850  0.33924  1.0000
  H   H2693     1.0  0.90098  0.01547  0.28426  1.0000
  S   S666      1.0  0.96811  0.22836  0.31440  1.0000
  C   C1695     1.0  0.89001  0.22190  0.28350  1.0000
  C   C1696     1.0  0.94594  0.01369  0.26626  1.0000
  H   H2694     1.0  0.99194  0.21704  0.36953  1.0000
  H   H2695     1.0  0.89853  0.19957  0.37255  1.0000
  S   S667      1.0  0.84969  0.30512  0.42656  1.0000
  H   H2696     1.0  0.92922  0.11624  0.26189  1.0000
  C   C1697     1.0  0.96362  0.11323  0.26453  1.0000
  H   H2697     1.0  0.92565  0.19313  0.33763  1.0000
  H   H2698     1.0  0.96789  0.08856  0.29490  1.0000
  H   H2699     1.0  0.68443  0.30373  0.47176  1.0000
  H   H2700     1.0  0.82033  0.19969  0.24878  1.0000
  H   H2701     1.0  0.78145  0.27069  0.36204  1.0000
  C   C1698     1.0  0.80783  0.23486  0.24937  1.0000
  C   C1699     1.0  0.89501  0.20666  0.35927  1.0000
  C   C1700     1.0  0.90821  0.21934  0.25393  1.0000
  H   H2702     1.0  0.93988  0.25276  0.37163  1.0000
  S   S668      1.0  0.70811  0.31277  0.24004  1.0000
  H   H2703     1.0  0.94427  0.07645  0.27629  1.0000
  C   C1701     1.0  0.69674  0.30415  0.34312  1.0000
  C   C1702     1.0  0.77941  0.22830  0.24857  1.0000
  C   C1703     1.0  0.98324  0.22988  0.37151  1.0000
  H   H2704     1.0  0.87941  0.03927  0.25599  1.0000
  H   H2705     1.0  0.87702  0.23700  0.24310  1.0000
  H   H2706     1.0  0.90298  0.03395  0.33205  1.0000
  H   H2707     1.0  0.74306  0.28108  0.35368  1.0000
  H   H2708     1.0  0.88761  0.20797  0.28607  1.0000
  C   C1704     1.0  0.88776  0.31428  0.36012  1.0000
  S   S669      1.0  0.73156  0.30823  0.27124  1.0000
  C   C1705     1.0  0.96502  0.23334  0.37042  1.0000
  H   H2709     1.0  0.86356  0.23845  0.26532  1.0000
  H   H2710     1.0  0.87007  0.03706  0.36313  1.0000
  H   H2711     1.0  0.78650  0.22493  0.28138  1.0000
  Fe  Fe331     1.0  0.97022  0.30287  0.38447  1.0000
  H   H2712     1.0  0.95154  0.10820  0.30057  1.0000
  S   S670      1.0  0.94212  0.30522  0.40110  1.0000
  Fe  Fe332     1.0  0.83155  0.27410  0.35335  1.0000
  S   S671      1.0  0.84493  0.29441  0.33189  1.0000
  S   S672      1.0  0.81058  0.28318  0.37661  1.0000
  S   S673      1.0  0.86597  0.26090  0.31123  1.0000
  Fe  Fe333     1.0  0.87029  0.27291  0.33255  1.0000
  S   S674      1.0  0.89884  0.27437  0.33224  1.0000
  Fe  Fe334     1.0  0.83920  0.28027  0.31297  1.0000
  S   S675      1.0  0.82765  0.29651  0.28889  1.0000
  S   S676      1.0  0.85737  0.25379  0.35579  1.0000
  S   S677      1.0  0.82408  0.26128  0.33453  1.0000
  Fe  Fe335     1.0  0.70636  0.30076  0.26944  1.0000
  H   H2713     1.0  0.90890  0.29842  0.39890  1.0000
  S   S678      1.0  0.89544  0.00093  0.25664  1.0000
  H   H2714     1.0  0.91062  0.22534  0.23923  1.0000
  H   H2715     1.0  0.88400  0.26913  0.43684  1.0000
  H   H2716     1.0  0.71754  0.28200  0.33491  1.0000
  H   H2717     1.0  0.92938  0.12442  0.28123  1.0000
  H   H2718     1.0  0.91761  0.26787  0.43051  1.0000
  S   S679      1.0  0.98896  0.27663  0.37998  1.0000
  H   H2719     1.0  0.77356  0.30664  0.37418  1.0000
  C   C1706     1.0  0.95382  0.09626  0.29440  1.0000
  S   S680      1.0  0.70291  0.30113  0.36394  1.0000
  H   H2720     1.0  0.81216  0.30301  0.43058  1.0000
  H   H2721     1.0  0.93366  0.30438  0.35500  1.0000
  H   H2722     1.0  0.94440  0.08748  0.30318  1.0000
  S   S681      1.0  0.85955  0.14683  0.24810  1.0000
  H   H2723     1.0  0.96772  0.07745  0.26776  1.0000
  Fe  Fe336     1.0  0.74575  0.28155  0.26414  1.0000
  C   C1707     1.0  0.70184  0.29510  0.31443  1.0000
  H   H2724     1.0  0.73357  0.28556  0.38511  1.0000
  H   H2725     1.0  0.70942  0.28620  0.30531  1.0000
  S   S682      1.0  0.93612  0.15378  0.24855  1.0000
  C   C1708     1.0  0.81110  0.28696  0.28529  1.0000
  C   C1709     1.0  0.81082  0.26871  0.29234  1.0000
  C   C1710     1.0  0.79718  0.26124  0.29016  1.0000
  C   C1711     1.0  0.78379  0.27199  0.28084  1.0000
  C   C1712     1.0  0.78427  0.29017  0.27336  1.0000
  C   C1713     1.0  0.79797  0.29764  0.27556  1.0000
  H   H2726     1.0  0.82121  0.26031  0.29934  1.0000
  H   H2727     1.0  0.77411  0.29848  0.26591  1.0000
  N   N171      1.0  0.90147  0.27271  0.41055  1.0000
  C   C1714     1.0  0.82126  0.28884  0.39089  1.0000
  C   C1715     1.0  0.81125  0.29409  0.40699  1.0000
  C   C1716     1.0  0.81988  0.29913  0.41809  1.0000
  C   C1717     1.0  0.83847  0.29905  0.41297  1.0000
  C   C1718     1.0  0.84831  0.29412  0.39671  1.0000
  C   C1719     1.0  0.83979  0.28883  0.38581  1.0000
  H   H2728     1.0  0.87823  0.22974  0.29163  1.0000
  H   H2729     1.0  0.86250  0.29455  0.39237  1.0000
  H   H2730     1.0  0.84753  0.28508  0.37327  1.0000
  H   H2731     1.0  0.88522  0.29920  0.40347  1.0000
  S   S683      1.0  0.72021  0.27279  0.26491  1.0000
  H   H2732     1.0  0.79686  0.29420  0.41093  1.0000
  H   H2733     1.0  0.87835  0.08775  0.23638  1.0000
  C   C1720     1.0  0.89780  0.29252  0.40865  1.0000
  C   C1721     1.0  0.92032  0.30361  0.35400  1.0000
  C   C1722     1.0  0.91829  0.29099  0.34511  1.0000
  C   C1723     1.0  0.90100  0.29006  0.34366  1.0000
  C   C1724     1.0  0.88572  0.30157  0.35136  1.0000
  N   N172      1.0  0.89231  0.23018  0.26408  1.0000
  H   H2734     1.0  0.92079  0.21823  0.25878  1.0000
  H   H2735     1.0  0.93011  0.28199  0.33927  1.0000
  C   C1725     1.0  0.99025  0.24306  0.37518  1.0000
  H   H2736     1.0  0.96562  0.28643  0.34158  1.0000
  C   C1726     1.0  0.96091  0.26332  0.37635  1.0000
  H   H2737     1.0  0.95243  0.27640  0.37768  1.0000
  H   H2738     1.0  0.90223  0.22110  0.28877  1.0000
  H   H2739     1.0  0.73354  0.30913  0.37728  1.0000
  C   C1727     1.0  0.75145  0.29149  0.35064  1.0000
  C   C1728     1.0  0.70643  0.29271  0.33121  1.0000
  H   H2740     1.0  0.80070  0.24636  0.25619  1.0000
  C   C1729     1.0  0.95382  0.24999  0.37298  1.0000
  N   N173      1.0  0.98748  0.27908  0.31994  1.0000
  H   H2741     1.0  0.93109  0.19655  0.35744  1.0000
  C   C1730     1.0  0.97520  0.27845  0.30861  1.0000
  C   C1731     1.0  0.88629  0.26543  0.42348  1.0000
  H   H2742     1.0  0.89619  0.29643  0.42176  1.0000
  C   C1732     1.0  0.76928  0.27399  0.37270  1.0000
  S   S684      1.0  0.80671  0.30824  0.46816  1.0000
  N   N174      1.0  0.75796  0.29177  0.36671  1.0000
  Fe  Fe337     1.0  0.85147  0.24302  0.33449  1.0000
  H   H2743     1.0  0.97324  0.30521  0.32542  1.0000
  H   H2744     1.0  0.88332  0.25726  0.26880  1.0000
  H   H2745     1.0  0.96155  0.11775  0.25036  1.0000
  C   C1733     1.0  0.91846  0.26462  0.41724  1.0000
  H   H2746     1.0  0.68906  0.27516  0.23469  1.0000
  C   C1734     1.0  0.90339  0.26831  0.39278  1.0000
  H   H2747     1.0  0.91449  0.27398  0.38270  1.0000
  H   H2748     1.0  0.89082  0.27409  0.38731  1.0000
  H   H2749     1.0  0.90652  0.25348  0.39357  1.0000
  H   H2750     1.0  0.92169  0.24965  0.41889  1.0000
  C   C1735     1.0  0.76882  0.30588  0.36217  1.0000
  C   C1736     1.0  0.88858  0.00252  0.36822  1.0000
  H   H2751     1.0  0.97041  0.29207  0.30068  1.0000
  H   H2752     1.0  0.90633  0.20533  0.25549  1.0000
  H   H2753     1.0  0.87336  0.27091  0.41862  1.0000
  H   H2754     1.0  0.74271  0.30466  0.34588  1.0000
  H   H2755     1.0  0.79696  0.24714  0.29584  1.0000
  H   H2756     1.0  0.87237  0.30083  0.35037  1.0000
  H   H2757     1.0  0.88266  0.03321  0.38056  1.0000
  H   H2758     1.0  0.79826  0.31174  0.26991  1.0000
  S   S685      1.0  0.76681  0.26225  0.27851  1.0000
  H   H2759     1.0  0.87490  0.00370  0.36562  1.0000
  C   C1737     1.0  0.79386  0.21389  0.27398  1.0000
  H   H2760     1.0  0.88377  0.02377  0.33607  1.0000
  C   C1738     1.0  0.90505  0.31540  0.36132  1.0000
  Fe  Fe338     1.0  0.72466  0.28577  0.23537  1.0000
  H   H2761     1.0  0.81042  0.24042  0.23458  1.0000
  C   C1739     1.0  0.93173  0.00256  0.24801  1.0000
  H   H2762     1.0  0.89160  0.05279  0.26186  1.0000
  H   H2763     1.0  0.90123  0.07932  0.23916  1.0000
  N   N175      1.0  0.79700  0.22069  0.25422  1.0000
  C   C1740     1.0  0.97781  0.29118  0.33264  1.0000
  H   H2764     1.0  0.77148  0.23964  0.25527  1.0000
  H   H2765     1.0  0.96301  0.27322  0.31697  1.0000
  C   C1741     1.0  0.88184  0.05320  0.25353  1.0000
  H   H2766     1.0  0.99230  0.11167  0.36899  1.0000
  C   C1742     1.0  0.97919  0.25986  0.37738  1.0000
  H   H2767     1.0  0.87349  0.21681  0.25946  1.0000
  H   H2768     1.0  0.98663  0.29178  0.34158  1.0000
  S   S686      1.0  0.98677  0.00463  0.31354  1.0000
  H   H2769     1.0  0.95995  0.00431  0.24175  1.0000
  H   H2770     1.0  0.96170  0.12570  0.26979  1.0000
  C   C1743     1.0  0.66980  0.30992  0.47534  1.0000
  H   H2771     1.0  0.98208  0.26942  0.29886  1.0000
  Fe  Fe339     1.0  0.98750  0.03041  0.32102  1.0000
  S   S687      1.0  0.90344  0.13069  0.23617  1.0000
  Fe  Fe340     1.0  0.83044  0.31809  0.44852  1.0000
  C   C1744     1.0  0.99337  0.26075  0.33024  1.0000
  H   H2772     1.0  0.78126  0.23373  0.23376  1.0000
  N   N176      1.0  0.88879  0.05997  0.23416  1.0000
  C   C1745     1.0  0.68233  0.31793  0.33824  1.0000
  Fe  Fe341     1.0  0.73419  0.31865  0.24157  1.0000
  C   C1746     1.0  0.67741  0.32001  0.32165  1.0000
  H   H2773     1.0  0.76072  0.31946  0.35745  1.0000
  H   H2774     1.0  0.77267  0.30258  0.50786  1.0000
  N   N177      1.0  0.74479  0.31622  0.51246  1.0000
  H   H2775     1.0  0.70276  0.10018  0.66621  1.0000
  H   H2776     1.0  0.69844  0.24642  0.64326  1.0000
  H   H2777     1.0  0.72978  0.23594  0.64790  1.0000
  S   S688      1.0  0.89243  0.30391  0.71762  1.0000
  C   C1747     1.0  0.70836  0.08549  0.67029  1.0000
  S   S689      1.0  0.70201  0.14964  0.60970  1.0000
  C   C1748     1.0  0.76984  0.31221  0.61976  1.0000
  H   H2778     1.0  0.71472  0.21037  0.58405  1.0000
  H   H2779     1.0  0.75513  0.31046  0.53670  1.0000
  S   S690      1.0  0.68085  0.10686  0.63320  1.0000
  H   H2780     1.0  0.72649  0.05675  0.69061  1.0000
  H   H2781     1.0  0.89496  0.31222  0.53411  1.0000
  H   H2782     1.0  0.66080  0.04541  0.62872  1.0000
  Fe  Fe342     1.0  0.67788  0.13620  0.61984  1.0000
  H   H2783     1.0  0.79957  0.26745  0.58096  1.0000
  H   H2784     1.0  0.79166  0.27600  0.60138  1.0000
  S   S691      1.0  0.68241  0.23479  0.59896  1.0000
  H   H2785     1.0  0.73323  0.05510  0.66728  1.0000
  C   C1749     1.0  0.66182  0.06059  0.65571  1.0000
  S   S692      1.0  0.66372  0.99130  0.67525  1.0000
  S   S693      1.0  0.68180  0.02262  0.69500  1.0000
  C   C1750     1.0  0.73840  0.08935  0.65435  1.0000
  C   C1751     1.0  0.91162  0.31718  0.57106  1.0000
  H   H2786     1.0  0.66339  0.20757  0.62043  1.0000
  H   H2787     1.0  0.92591  0.31142  0.56733  1.0000
  C   C1752     1.0  0.68759  0.02591  0.71409  1.0000
  C   C1753     1.0  0.69391  0.04150  0.71295  1.0000
  H   H2788     1.0  0.67306  0.05069  0.66138  1.0000
  H   H2789     1.0  0.69470  0.05147  0.70053  1.0000
  C   C1754     1.0  0.73796  0.29931  0.51699  1.0000
  C   C1755     1.0  0.69681  0.17332  0.60681  1.0000
  C   C1756     1.0  0.68025  0.18210  0.61570  1.0000
  C   C1757     1.0  0.67613  0.20095  0.61327  1.0000
  C   C1758     1.0  0.68845  0.21120  0.60177  1.0000
  C   C1759     1.0  0.70514  0.20252  0.59297  1.0000
  C   C1760     1.0  0.70935  0.18356  0.59561  1.0000
  H   H2790     1.0  0.70681  0.07871  0.66004  1.0000
  H   H2791     1.0  0.82116  0.26781  0.60949  1.0000
  Fe  Fe343     1.0  0.66245  0.10549  0.61601  1.0000
  H   H2792     1.0  0.72222  0.17683  0.58872  1.0000
  S   S694      1.0  0.85637  0.31500  0.63507  1.0000
  H   H2793     1.0  0.72201  0.21008  0.61786  1.0000
  C   C1761     1.0  0.67150  0.09559  0.70802  1.0000
  C   C1762     1.0  0.69074  0.11501  0.70939  1.0000
  C   C1763     1.0  0.68360  0.09936  0.71643  1.0000
  N   N178      1.0  0.72746  0.08215  0.67192  1.0000
  H   H2794     1.0  0.78809  0.29062  0.58048  1.0000
  C   C1764     1.0  0.72872  0.09126  0.68581  1.0000
  H   H2795     1.0  0.70418  0.05616  0.72679  1.0000
  H   H2796     1.0  0.72068  0.08611  0.69928  1.0000
  H   H2797     1.0  0.80589  0.29986  0.60530  1.0000
  H   H2798     1.0  0.90921  0.30981  0.62807  1.0000
  H   H2799     1.0  0.73773  0.08278  0.64355  1.0000
  C   C1765     1.0  0.81609  0.26658  0.72445  1.0000
  H   H2800     1.0  0.74174  0.21330  0.64611  1.0000
  C   C1766     1.0  0.88045  0.31340  0.58167  1.0000
  C   C1767     1.0  0.66677  0.10726  0.69236  1.0000
  H   H2801     1.0  0.66631  0.08331  0.71322  1.0000
  C   C1768     1.0  0.85825  0.30732  0.68517  1.0000
  C   C1769     1.0  0.70705  0.21249  0.66214  1.0000
  H   H2802     1.0  0.73729  0.22983  0.62630  1.0000
  H   H2803     1.0  0.88766  0.30083  0.52081  1.0000
  H   H2804     1.0  0.90329  0.29167  0.57686  1.0000
  H   H2805     1.0  0.66709  0.02825  0.64750  1.0000
  H   H2806     1.0  0.74295  0.08915  0.68739  1.0000
  C   C1770     1.0  0.73147  0.22480  0.64075  1.0000
  H   H2807     1.0  0.66778  0.06773  0.64208  1.0000
  C   C1771     1.0  0.89885  0.30604  0.57636  1.0000
  H   H2808     1.0  0.73345  0.10415  0.64997  1.0000
  N   N179      1.0  0.81557  0.28467  0.58433  1.0000
  C   C1772     1.0  0.68590  0.12673  0.69378  1.0000
  H   H2809     1.0  0.67068  0.17437  0.62464  1.0000
  S   S695      1.0  0.73321  0.24292  0.58727  1.0000
  N   N180      1.0  0.71407  0.21944  0.64284  1.0000
  H   H2810     1.0  0.70569  0.24082  0.62142  1.0000
  H   H2811     1.0  0.68989  0.31481  0.49647  1.0000
  C   C1773     1.0  0.70083  0.23529  0.63594  1.0000
  H   H2812     1.0  0.68754  0.23177  0.63711  1.0000
  H   H2813     1.0  0.85265  0.31736  0.67461  1.0000
  H   H2814     1.0  0.81146  0.27679  0.49729  1.0000
  H   H2815     1.0  0.72410  0.30079  0.52560  1.0000
  H   H2816     1.0  0.69387  0.20840  0.66416  1.0000
  C   C1774     1.0  0.73431  0.06251  0.67724  1.0000
  H   H2817     1.0  0.70481  0.22291  0.67032  1.0000
  H   H2818     1.0  0.71666  0.20045  0.66779  1.0000
  H   H2819     1.0  0.82536  0.30600  0.58913  1.0000
  C   C1775     1.0  0.71691  0.20520  0.63252  1.0000
  S   S696      1.0  0.82456  0.29505  0.63352  1.0000
  Fe  Fe344     1.0  0.83317  0.30422  0.65454  1.0000
  S   S697      1.0  0.83788  0.28531  0.68073  1.0000
  Fe  Fe345     1.0  0.84580  0.30877  0.61388  1.0000
  S   S698      1.0  0.86453  0.29940  0.58955  1.0000
  S   S699      1.0  0.70932  0.26455  0.55624  1.0000
  Fe  Fe346     1.0  0.72918  0.26950  0.59531  1.0000
  S   S700      1.0  0.73630  0.28486  0.56703  1.0000
  S   S701      1.0  0.74211  0.26750  0.61871  1.0000
  Fe  Fe347     1.0  0.70686  0.28945  0.56643  1.0000
  H   H2820     1.0  0.83010  0.25724  0.59027  1.0000
  Fe  Fe348     1.0  0.73835  0.25884  0.55894  1.0000
  S   S702      1.0  0.76114  0.25011  0.53671  1.0000
  S   S703      1.0  0.69929  0.27685  0.59576  1.0000
  H   H2821     1.0  0.67018  0.29152  0.55673  1.0000
  C   C1776     1.0  0.79801  0.27944  0.58682  1.0000
  H   H2822     1.0  0.75291  0.08718  0.65504  1.0000
  H   H2823     1.0  0.72692  0.19305  0.63722  1.0000
  C   C1777     1.0  0.66647  0.29252  0.50585  1.0000
  H   H2824     1.0  0.82619  0.27536  0.55930  1.0000
  C   C1778     1.0  0.77859  0.26208  0.53204  1.0000
  C   C1779     1.0  0.79007  0.26402  0.51496  1.0000
  H   H2825     1.0  0.72350  0.10610  0.68241  1.0000
  C   C1780     1.0  0.78031  0.27079  0.54485  1.0000
  C   C1781     1.0  0.87723  0.29854  0.70760  1.0000
  N   N181      1.0  0.66413  0.31096  0.49465  1.0000
  C   C1782     1.0  0.82742  0.27021  0.59481  1.0000
  C   C1783     1.0  0.85333  0.29047  0.69065  1.0000
  C   C1784     1.0  0.86053  0.27763  0.70451  1.0000
  H   H2826     1.0  0.79296  0.28990  0.54981  1.0000
  H   H2827     1.0  0.85732  0.26436  0.70830  1.0000
  C   C1785     1.0  0.76312  0.31359  0.50094  1.0000
  C   C1786     1.0  0.77256  0.29547  0.63159  1.0000
  C   C1787     1.0  0.76383  0.28193  0.63124  1.0000
  C   C1788     1.0  0.75274  0.28486  0.61876  1.0000
  C   C1789     1.0  0.75037  0.30144  0.60665  1.0000
  H   H2828     1.0  0.73752  0.29501  0.50465  1.0000
  H   H2829     1.0  0.78101  0.29313  0.64131  1.0000
  H   H2830     1.0  0.76568  0.26915  0.64069  1.0000
  H   H2831     1.0  0.74174  0.30386  0.59707  1.0000
  H   H2832     1.0  0.74877  0.05946  0.67837  1.0000
  Fe  Fe349     1.0  0.70387  0.25131  0.58560  1.0000
  H   H2833     1.0  0.67049  0.13184  0.67308  1.0000
  C   C1790     1.0  0.80365  0.28475  0.52306  1.0000
  H   H2834     1.0  0.80327  0.31280  0.58347  1.0000
  S   S704      1.0  0.81773  0.30051  0.51716  1.0000
  S   S705      1.0  0.70674  0.11952  0.71904  1.0000
  C   C1791     1.0  0.80267  0.27530  0.51050  1.0000
  H   H2835     1.0  0.69149  0.13877  0.68820  1.0000
  H   H2836     1.0  0.70405  0.20077  0.63382  1.0000
  S   S706      1.0  0.69426  0.31649  0.55163  1.0000
  C   C1792     1.0  0.82446  0.28750  0.56501  1.0000
  H   H2837     1.0  0.78894  0.25714  0.50506  1.0000
  C   C1793     1.0  0.79258  0.28233  0.54026  1.0000
  C   C1794     1.0  0.75874  0.31513  0.60729  1.0000
  S   S707      1.0  0.66745  0.08124  0.60366  1.0000
  C   C1795     1.0  0.87229  0.28170  0.71314  1.0000
  H   H2838     1.0  0.77214  0.26866  0.55830  1.0000
  H   H2839     1.0  0.83812  0.29054  0.56295  1.0000
  C   C1796     1.0  0.68615  0.01317  0.73030  1.0000
  H   H2840     1.0  0.66381  0.05639  0.58405  1.0000
  H   H2841     1.0  0.87788  0.27169  0.72374  1.0000
  C   C1797     1.0  0.87026  0.31131  0.69356  1.0000
  H   H2842     1.0  0.84074  0.27377  0.59342  1.0000
  C   C1798     1.0  0.81244  0.30159  0.59078  1.0000
  Fe  Fe350     1.0  0.66875  0.99875  0.69921  1.0000
  H   H2843     1.0  0.81638  0.29901  0.55683  1.0000
  H   H2844     1.0  0.69963  0.08042  0.68331  1.0000
  C   C1799     1.0  0.88281  0.30946  0.53111  1.0000
  H   H2845     1.0  0.74683  0.28806  0.52457  1.0000
  C   C1800     1.0  0.67401  0.12282  0.68521  1.0000
  H   H2846     1.0  0.82721  0.25790  0.71648  1.0000
  H   H2847     1.0  0.87600  0.30144  0.54379  1.0000
  H   H2848     1.0  0.68085  0.28523  0.50335  1.0000
  H   H2849     1.0  0.68766  0.09000  0.72812  1.0000
  C   C1801     1.0  0.66277  0.30524  0.55340  1.0000
  H   H2850     1.0  0.80314  0.26560  0.72162  1.0000
  C   C1802     1.0  0.69922  0.04416  0.72780  1.0000
  H   H2851     1.0  0.68126  0.00113  0.73130  1.0000
  H   H2852     1.0  0.85849  0.31391  0.51046  1.0000
  H   H2853     1.0  0.66224  0.29279  0.52051  1.0000
  Fe  Fe351     1.0  0.81709  0.31599  0.48877  1.0000
  H   H2854     1.0  0.81791  0.28076  0.71897  1.0000
  H   H2855     1.0  0.76304  0.31004  0.48806  1.0000
  S   S708      1.0  0.66210  0.13389  0.60055  1.0000
  H   H2856     1.0  0.66145  0.19281  0.58486  1.0000
  H   H2857     1.0  0.84672  0.31470  0.53324  1.0000
  C   C1803     1.0  0.67130  0.31974  0.55078  1.0000
  H   H2858     1.0  0.96454  0.20361  0.76990  1.0000
  C   C1804     1.0  0.89184  0.10839  0.97635  1.0000
  H   H2859     1.0  0.87755  0.12309  0.78655  1.0000
  Fe  Fe352     1.0  0.70765  0.08733  0.78404  1.0000
  S   S709      1.0  0.72673  0.06086  0.78281  1.0000
  S   S710      1.0  0.69410  0.09132  0.81214  1.0000
  H   H2860     1.0  0.89253  0.19307  0.85474  1.0000
  S   S711      1.0  0.96807  0.13424  0.82564  1.0000
  S   S712      1.0  0.72662  0.10371  0.76399  1.0000
  H   H2861     1.0  0.94717  0.31901  0.75395  1.0000
  Fe  Fe353     1.0  0.94513  0.11949  0.83512  1.0000
  S   S713      1.0  0.93395  0.12972  0.86089  1.0000
  S   S714      1.0  0.92820  0.12340  0.81462  1.0000
  Fe  Fe354     1.0  0.95288  0.10509  0.87268  1.0000
  S   S715      1.0  0.94975  0.08557  0.89963  1.0000
  Fe  Fe355     1.0  0.95813  0.14285  0.85214  1.0000
  S   S716      1.0  0.96204  0.09364  0.84742  1.0000
  Fe  Fe356     1.0  0.82793  0.14567  0.82043  1.0000
  S   S717      1.0  0.80935  0.17283  0.81689  1.0000
  S   S718      1.0  0.84352  0.13522  0.84292  1.0000
  Fe  Fe357     1.0  0.81888  0.13530  0.78906  1.0000
  S   S719      1.0  0.80023  0.16189  0.78223  1.0000
  S   S720      1.0  0.82745  0.11170  0.77513  1.0000
  Fe  Fe358     1.0  0.82121  0.17427  0.78728  1.0000
  S   S721      1.0  0.83269  0.19767  0.76832  1.0000
  Fe  Fe359     1.0  0.79024  0.15804  0.81231  1.0000
  S   S722      1.0  0.76090  0.15918  0.82525  1.0000
  S   S723      1.0  0.84085  0.14790  0.79114  1.0000
  S   S724      1.0  0.80772  0.13066  0.81876  1.0000
  H   H2862     1.0  0.81463  0.23735  0.76505  1.0000
  H   H2863     1.0  0.72080  0.99675  0.85049  1.0000
  Fe  Fe360     1.0  0.73092  0.08279  0.90987  1.0000
  S   S725      1.0  0.71937  0.10524  0.92522  1.0000
  S   S726      1.0  0.71578  0.08073  0.88973  1.0000
  Fe  Fe361     1.0  0.76439  0.06987  0.92645  1.0000
  S   S727      1.0  0.75570  0.09091  0.94330  1.0000
  S   S728      1.0  0.79259  0.05321  0.92509  1.0000
  H   H2864     1.0  0.81858  0.13485  0.88012  1.0000
  Fe  Fe362     1.0  0.74784  0.10962  0.91845  1.0000
  S   S729      1.0  0.75720  0.13585  0.90913  1.0000
  S   S730      1.0  0.75866  0.08912  0.90098  1.0000
  Fe  Fe363     1.0  0.67184  0.00374  0.89356  1.0000
  H   H2865     1.0  0.83722  0.09639  0.89577  1.0000
  C   C1805     1.0  0.78772  0.04026  0.96172  1.0000
  H   H2866     1.0  0.85769  0.22119  0.75069  1.0000
  H   H2867     1.0  0.88827  0.10804  0.77127  1.0000
  S   S731      1.0  0.70435  0.03415  0.76291  1.0000
  H   H2868     1.0  0.78829  0.11880  0.87593  1.0000
  C   C1806     1.0  0.84472  0.20863  0.77702  1.0000
  C   C1807     1.0  0.85572  0.22013  0.76508  1.0000
  H   H2869     1.0  0.86416  0.11598  0.77510  1.0000
  Fe  Fe364     1.0  0.86875  0.06456  0.97705  1.0000
  C   C1808     1.0  0.86147  0.22908  0.79028  1.0000
  C   C1809     1.0  0.84264  0.20693  0.79562  1.0000
  C   C1810     1.0  0.70726  0.02198  0.82420  1.0000
  H   H2870     1.0  0.69471  0.05692  0.95997  1.0000
  H   H2871     1.0  0.69542  0.04099  0.93609  1.0000
  H   H2872     1.0  0.83419  0.19817  0.80494  1.0000
  C   C1811     1.0  0.75879  0.15389  0.84875  1.0000
  C   C1812     1.0  0.76958  0.16002  0.85673  1.0000
  C   C1813     1.0  0.76831  0.15528  0.87547  1.0000
  C   C1814     1.0  0.75684  0.14373  0.88615  1.0000
  C   C1815     1.0  0.74609  0.13753  0.87818  1.0000
  C   C1816     1.0  0.74680  0.14291  0.85953  1.0000
  H   H2873     1.0  0.77867  0.16870  0.84848  1.0000
  H   H2874     1.0  0.77649  0.16027  0.88159  1.0000
  H   H2875     1.0  0.73712  0.12870  0.88640  1.0000
  H   H2876     1.0  0.73830  0.13829  0.85346  1.0000
  C   C1817     1.0  0.90480  0.12766  0.82318  1.0000
  C   C1818     1.0  0.89324  0.13799  0.81164  1.0000
  C   C1819     1.0  0.87444  0.14110  0.81795  1.0000
  C   C1820     1.0  0.86707  0.13337  0.83563  1.0000
  C   C1821     1.0  0.87866  0.12340  0.84734  1.0000
  C   C1822     1.0  0.89755  0.12068  0.84116  1.0000
  H   H2877     1.0  0.89883  0.14370  0.79780  1.0000
  H   H2878     1.0  0.86569  0.14961  0.80914  1.0000
  H   H2879     1.0  0.87306  0.11751  0.86110  1.0000
  H   H2880     1.0  0.90646  0.11268  0.85014  1.0000
  H   H2881     1.0  0.89551  0.20251  0.80516  1.0000
  H   H2882     1.0  0.80762  0.09518  0.91647  1.0000
  C   C1823     1.0  0.92821  0.08593  0.91401  1.0000
  C   C1824     1.0  0.92632  0.07305  0.93021  1.0000
  C   C1825     1.0  0.90932  0.07297  0.94197  1.0000
  C   C1826     1.0  0.89416  0.08585  0.93758  1.0000
  C   C1827     1.0  0.89607  0.09881  0.92146  1.0000
  C   C1828     1.0  0.91304  0.09882  0.90966  1.0000
  H   H2883     1.0  0.93801  0.06305  0.93365  1.0000
  H   H2884     1.0  0.90797  0.06294  0.95438  1.0000
  H   H2885     1.0  0.88437  0.10882  0.91803  1.0000
  H   H2886     1.0  0.91437  0.10879  0.89722  1.0000
  C   C1829     1.0  0.70355  0.02518  0.89601  1.0000
  S   S732      1.0  0.87272  0.08647  0.95212  1.0000
  H   H2887     1.0  0.90489  0.11128  0.97696  1.0000
  H   H2888     1.0  0.90517  0.17020  0.85620  1.0000
  H   H2889     1.0  0.84488  0.10488  0.80453  1.0000
  H   H2890     1.0  0.85516  0.08951  0.82213  1.0000
  H   H2891     1.0  0.81797  0.12476  0.90363  1.0000
  S   S733      1.0  0.73370  0.07298  0.73893  1.0000
  C   C1830     1.0  0.81160  0.10067  0.77215  1.0000
  C   C1831     1.0  0.79297  0.10824  0.77384  1.0000
  C   C1832     1.0  0.78120  0.09884  0.77061  1.0000
  C   C1833     1.0  0.67967  0.06057  0.96171  1.0000
  H   H2892     1.0  0.78780  0.12147  0.77713  1.0000
  H   H2893     1.0  0.76698  0.10483  0.77137  1.0000
  C   C1834     1.0  0.80656  0.07432  0.76467  1.0000
  H   H2894     1.0  0.88415  0.16321  0.84092  1.0000
  Fe  Fe365     1.0  0.98409  0.10941  0.84042  1.0000
  Fe  Fe366     1.0  0.71392  0.09871  0.74328  1.0000
  H   H2895     1.0  0.98088  0.21700  0.76692  1.0000
  H   H2896     1.0  0.77421  0.03943  0.96122  1.0000
  H   H2897     1.0  0.70196  0.01229  0.86032  1.0000
  C   C1835     1.0  0.79378  0.03418  0.97809  1.0000
  H   H2898     1.0  0.83070  0.08520  0.88177  1.0000
  C   C1836     1.0  0.80119  0.09825  0.90459  1.0000
  C   C1837     1.0  0.72162  0.04386  0.90107  1.0000
  C   C1838     1.0  0.71144  0.05926  0.89196  1.0000
  C   C1839     1.0  0.69750  0.05757  0.88460  1.0000
  C   C1840     1.0  0.69349  0.04057  0.88672  1.0000
  H   H2899     1.0  0.73266  0.04500  0.90641  1.0000
  H   H2900     1.0  0.68967  0.06945  0.87740  1.0000
  H   H2901     1.0  0.86985  0.06868  0.80089  1.0000
  C   C1841     1.0  0.68165  0.07669  0.93077  1.0000
  C   C1842     1.0  0.80271  0.11170  0.87299  1.0000
  H   H2902     1.0  0.82557  0.23290  0.74308  1.0000
  H   H2903     1.0  0.88397  0.07647  0.77961  1.0000
  C   C1843     1.0  0.71633  0.01077  0.85292  1.0000
  H   H2904     1.0  0.88958  0.11384  0.96230  1.0000
  H   H2905     1.0  0.71958  0.04476  0.84927  1.0000
  C   C1844     1.0  0.81695  0.04756  0.94654  1.0000
  H   H2906     1.0  0.85986  0.08453  0.78332  1.0000
  C   C1845     1.0  0.79942  0.04668  0.94589  1.0000
  H   H2907     1.0  0.97703  0.29365  0.84858  1.0000
  C   C1846     1.0  0.85723  0.10086  0.81043  1.0000
  Fe  Fe367     1.0  0.71362  0.05974  0.76091  1.0000
  H   H2908     1.0  0.79230  0.07216  0.97424  1.0000
  H   H2909     1.0  0.84532  0.25419  0.73996  1.0000
  H   H2910     1.0  0.68276  0.03940  0.88095  1.0000
  N   N182      1.0  0.73880  0.10708  0.82054  1.0000
  C   C1847     1.0  0.75508  0.11213  0.82260  1.0000
  C   C1848     1.0  0.73097  0.12058  0.80607  1.0000
  C   C1849     1.0  0.72524  0.10656  0.83771  1.0000
  C   C1850     1.0  0.74390  0.08909  0.81576  1.0000
  H   H2911     1.0  0.76114  0.10253  0.83369  1.0000
  H   H2912     1.0  0.75178  0.12582  0.82579  1.0000
  H   H2913     1.0  0.76570  0.11242  0.80997  1.0000
  H   H2914     1.0  0.71855  0.11728  0.80423  1.0000
  H   H2915     1.0  0.72712  0.13435  0.80918  1.0000
  H   H2916     1.0  0.74077  0.12125  0.79288  1.0000
  H   H2917     1.0  0.71275  0.10281  0.83661  1.0000
  H   H2918     1.0  0.72108  0.11992  0.84173  1.0000
  H   H2919     1.0  0.73062  0.09654  0.84903  1.0000
  H   H2920     1.0  0.73193  0.08498  0.81395  1.0000
  H   H2921     1.0  0.74977  0.07858  0.82645  1.0000
  H   H2922     1.0  0.75414  0.08895  0.80289  1.0000
  C   C1851     1.0  0.81132  0.12641  0.89216  1.0000
  H   H2923     1.0  0.83255  0.07784  0.76608  1.0000
  C   C1852     1.0  0.90371  0.18392  0.84737  1.0000
  H   H2924     1.0  0.84889  0.21612  0.81662  1.0000
  C   C1853     1.0  0.82275  0.04217  0.96301  1.0000
  H   H2925     1.0  0.72439  0.01212  0.86221  1.0000
  H   H2926     1.0  0.80968  0.12012  0.86075  1.0000
  H   H2927     1.0  0.83624  0.04309  0.96342  1.0000
  H   H2928     1.0  0.82604  0.05248  0.93431  1.0000
  H   H2929     1.0  0.81196  0.06121  0.76113  1.0000
  S   S734      1.0  0.69299  0.08522  0.76373  1.0000
  C   C1854     1.0  0.81824  0.08374  0.76753  1.0000
  H   H2930     1.0  0.98839  0.19386  0.76484  1.0000
  H   H2931     1.0  0.90242  0.08665  0.79556  1.0000
  Fe  Fe368     1.0  0.74481  0.07689  0.76128  1.0000
  H   H2932     1.0  0.71182  0.00842  0.82062  1.0000
  H   H2933     1.0  0.69053  0.00578  0.75758  1.0000
  H   H2934     1.0  0.79723  0.13417  0.89568  1.0000
  N   N183      1.0  0.81138  0.10877  0.88852  1.0000
  H   H2935     1.0  0.88847  0.07848  0.81679  1.0000
  C   C1855     1.0  0.71776  0.02683  0.90298  1.0000
  S   S735      1.0  0.77449  0.06876  0.76214  1.0000
  C   C1856     1.0  0.86408  0.23034  0.77167  1.0000
  H   H2936     1.0  0.70809  0.03221  0.81134  1.0000
  C   C1857     1.0  0.87604  0.11141  0.78180  1.0000
  H   H2937     1.0  0.69673  0.07348  0.92826  1.0000
  Fe  Fe369     1.0  0.72815  0.08449  0.94864  1.0000
  N   N184      1.0  0.71828  0.02436  0.83591  1.0000
  C   C1858     1.0  0.71194  0.04263  0.84002  1.0000
  C   C1859     1.0  0.73754  0.02204  0.82660  1.0000
  H   H2938     1.0  0.71345  0.05330  0.82754  1.0000
  H   H2939     1.0  0.78776  0.27158  0.75199  1.0000
  H   H2940     1.0  0.67011  0.08469  0.84713  1.0000
  C   C1860     1.0  0.69811  0.03122  0.74390  1.0000
  C   C1861     1.0  0.67930  0.07623  0.82158  1.0000
  C   C1862     1.0  0.87181  0.08067  0.78989  1.0000
  H   H2941     1.0  0.87141  0.18603  0.83965  1.0000
  H   H2942     1.0  0.83830  0.10611  0.87223  1.0000
  H   H2943     1.0  0.83567  0.27715  0.74197  1.0000
  S   S736      1.0  0.69895  0.00372  0.89866  1.0000
  C   C1863     1.0  0.78805  0.08177  0.76607  1.0000
  H   H2944     1.0  0.80284  0.09871  0.86957  1.0000
  H   H2945     1.0  0.99199  0.15151  0.84436  1.0000
  H   H2946     1.0  0.91651  0.18862  0.84570  1.0000
  C   C1864     1.0  0.88323  0.17717  0.83264  1.0000
  S   S737      1.0  0.73750  0.06146  0.93397  1.0000
  H   H2947     1.0  0.78705  0.10567  0.90849  1.0000
  N   N185      1.0  0.87370  0.09580  0.79689  1.0000
  H   H2948     1.0  0.74278  0.00836  0.82335  1.0000
  H   H2949     1.0  0.88689  0.21169  0.82512  1.0000
  H   H2950     1.0  0.88011  0.17696  0.81958  1.0000
  H   H2951     1.0  0.92847  0.17591  0.81818  1.0000
  H   H2952     1.0  0.91079  0.20758  0.81603  1.0000
  H   H2953     1.0  0.80042  0.08517  0.90200  1.0000
  H   H2954     1.0  0.91324  0.17066  0.80727  1.0000
  H   H2955     1.0  0.85797  0.11248  0.81572  1.0000
  H   H2956     1.0  0.72306  0.11463  0.96536  1.0000
  C   C1865     1.0  0.89833  0.20212  0.81853  1.0000
  C   C1866     1.0  0.91546  0.17144  0.82052  1.0000
  S   S738      1.0  0.95545  0.17226  0.85180  1.0000
  H   H2957     1.0  0.91726  0.15746  0.82875  1.0000
  C   C1867     1.0  0.88967  0.09031  0.80542  1.0000
  S   S739      1.0  0.97602  0.11935  0.86637  1.0000
  H   H2958     1.0  0.72572  0.01493  0.90998  1.0000
  N   N186      1.0  0.90018  0.18367  0.82976  1.0000
  C   C1868     1.0  0.85097  0.21715  0.80221  1.0000
  C   C1869     1.0  0.99267  0.16510  0.84449  1.0000
  C   C1870     1.0  0.83024  0.09866  0.88438  1.0000
  H   H2959     1.0  0.96558  0.20545  0.85111  1.0000
  H   H2960     1.0  0.89128  0.10143  0.81100  1.0000
  H   H2961     1.0  0.67642  0.04605  0.92542  1.0000
  C   C1871     1.0  0.92767  0.31704  0.82168  1.0000
  H   H2962     1.0  0.85665  0.11735  0.97454  1.0000
  H   H2963     1.0  0.96586  0.22432  0.79778  1.0000
  N   N187      1.0  0.97806  0.19788  0.79211  1.0000
  C   C1872     1.0  0.80104  0.27272  0.75397  1.0000
  H   H2964     1.0  0.74619  0.02380  0.83509  1.0000
  C   C1873     1.0  0.69143  0.01582  0.74515  1.0000
  S   S740      1.0  0.87080  0.24233  0.79918  1.0000
  H   H2965     1.0  0.67515  0.07343  0.96673  1.0000
  C   C1874     1.0  0.97675  0.17787  0.84827  1.0000
  H   H2966     1.0  0.87214  0.14219  0.97218  1.0000
  N   N188      1.0  0.81626  0.26110  0.74395  1.0000
  H   H2967     1.0  0.80209  0.28718  0.74940  1.0000
  H   H2968     1.0  0.98589  0.16944  0.79199  1.0000
  H   H2969     1.0  0.83404  0.25922  0.76164  1.0000
  H   H2970     1.0  0.78095  0.09518  0.96852  1.0000
  N   N189      1.0  0.67388  0.06239  0.94463  1.0000
  C   C1875     1.0  0.97501  0.17923  0.79887  1.0000
  H   H2971     1.0  0.98401  0.31557  0.87219  1.0000
  C   C1876     1.0  0.96352  0.21026  0.80194  1.0000
  H   H2972     1.0  0.89354  0.09348  0.97861  1.0000
  C   C1877     1.0  0.83355  0.26303  0.74702  1.0000
  S   S741      1.0  0.86913  0.03510  0.98030  1.0000
  C   C1878     1.0  0.66606  0.05250  0.81868  1.0000
  H   H2973     1.0  0.94554  0.31275  0.77791  1.0000
  H   H2974     1.0  0.80080  0.26890  0.76874  1.0000
  H   H2975     1.0  0.66791  0.03944  0.78059  1.0000
  C   C1879     1.0  0.98581  0.25232  0.77399  1.0000
  S   S742      1.0  0.66828  0.99668  0.86881  1.0000
  C   C1880     1.0  0.67809  0.06429  0.81156  1.0000
  C   C1881     1.0  0.72005  0.11112  0.97996  1.0000
  H   H2976     1.0  0.80142  0.24003  0.74846  1.0000
  H   H2977     1.0  0.67704  0.08998  0.93493  1.0000
  H   H2978     1.0  0.96182  0.17804  0.79676  1.0000
  Fe  Fe370     1.0  0.89772  0.28724  0.74464  1.0000
  S   S743      1.0  0.87677  0.29156  0.76964  1.0000
  C   C1882     1.0  0.78699  0.08495  0.97930  1.0000
  Fe  Fe371     1.0  0.92629  0.26539  0.76634  1.0000
  S   S744      1.0  0.90776  0.26862  0.79292  1.0000
  Fe  Fe372     1.0  0.88742  0.26231  0.78078  1.0000
  Fe  Fe373     1.0  0.89910  0.29742  0.77920  1.0000
  S   S745      1.0  0.90659  0.25739  0.75484  1.0000
  S   S746      1.0  0.91952  0.29460  0.75362  1.0000
  C   C1883     1.0  0.96813  0.27969  0.79316  1.0000
  C   C1884     1.0  0.95835  0.27279  0.78468  1.0000
  H   H2979     1.0  0.96126  0.29018  0.80072  1.0000
  H   H2980     1.0  0.94397  0.27801  0.78567  1.0000
  S   S747      1.0  0.71039  0.08112  0.97637  1.0000
  H   H2981     1.0  0.99282  0.24206  0.76624  1.0000
  H   H2982     1.0  0.91880  0.29994  0.80934  1.0000
  H   H2983     1.0  0.93622  0.30589  0.82893  1.0000
  H   H2984     1.0  0.69270  0.02332  0.83103  1.0000
  H   H2985     1.0  0.68645  0.06405  0.79831  1.0000
  C   C1885     1.0  0.96719  0.25910  0.77506  1.0000
  H   H2986     1.0  0.67779  0.07834  0.91760  1.0000
  H   H2987     1.0  0.73948  0.03206  0.81365  1.0000
  S   S748      1.0  0.95506  0.25003  0.76474  1.0000
  H   H2988     1.0  0.87236  0.23933  0.76238  1.0000
  C   C1886     1.0  0.98675  0.27292  0.79204  1.0000
  C   C1887     1.0  0.81435  0.24207  0.75041  1.0000
  H   H2989     1.0  0.96271  0.20612  0.81679  1.0000
  H   H2990     1.0  0.69735  0.04491  0.84676  1.0000
  H   H2991     1.0  0.95004  0.21073  0.79931  1.0000
  C   C1888     1.0  0.97785  0.19550  0.84820  1.0000
  H   H2992     1.0  0.97485  0.17477  0.81358  1.0000
  C   C1889     1.0  0.99123  0.29356  0.84898  1.0000
  H   H2993     1.0  0.79880  0.08943  0.98098  1.0000
  C   C1890     1.0  0.66905  0.07566  0.83920  1.0000
  H   H2994     1.0  0.67163  0.06384  0.75363  1.0000
  H   H2995     1.0  0.97994  0.06679  0.87854  1.0000
  H   H2996     1.0  0.67400  0.04996  0.97255  1.0000
  H   H2997     1.0  0.66512  0.04337  0.81085  1.0000
  C   C1891     1.0  0.97798  0.20325  0.77260  1.0000
  H   H2998     1.0  0.67467  0.03399  0.94841  1.0000
  H   H2999     1.0  0.97991  0.31639  0.74890  1.0000
  C   C1892     1.0  0.68037  0.04510  0.93839  1.0000
  H   H3000     1.0  0.97954  0.31031  0.77264  1.0000
  H   H3001     1.0  0.98858  0.08336  0.89723  1.0000
  H   H3002     1.0  0.98898  0.05037  0.90682  1.0000
  C   C1893     1.0  0.81127  0.03523  0.97875  1.0000
  C   C1894     1.0  0.91783  0.31363  0.81058  1.0000
  H   H3003     1.0  0.99371  0.28615  0.86259  1.0000
  H   H3004     1.0  0.72331  0.38225  0.21030  1.0000
  C   C1895     1.0  0.69078  0.47090  0.15863  1.0000
  C   C1896     1.0  0.72878  0.35388  0.21020  1.0000
  S   S749      1.0  0.69603  0.36990  0.16596  1.0000
  C   C1897     1.0  0.66274  0.60980  0.18100  1.0000
  H   H3005     1.0  0.69085  0.45708  0.16572  1.0000
  C   C1898     1.0  0.71241  0.37721  0.18978  1.0000
  C   C1899     1.0  0.71802  0.34601  0.18729  1.0000
  C   C1900     1.0  0.71008  0.36414  0.18174  1.0000
  C   C1901     1.0  0.72725  0.34087  0.20159  1.0000
  H   H3006     1.0  0.71664  0.33584  0.18092  1.0000
  H   H3007     1.0  0.70694  0.39125  0.18517  1.0000
  C   C1902     1.0  0.72188  0.37212  0.20389  1.0000
  H   H3008     1.0  0.70349  0.61350  0.19021  1.0000
  H   H3009     1.0  0.89946  0.52975  0.98437  1.0000
  Fe  Fe374     1.0  0.66968  0.43816  0.15248  1.0000
  H   H3010     1.0  0.79421  0.64969  0.05288  1.0000
  H   H3011     1.0  0.68156  0.59497  0.21210  1.0000
  H   H3012     1.0  0.70251  0.47731  0.17778  1.0000
  C   C1903     1.0  0.67300  0.55573  0.06680  1.0000
  C   C1904     1.0  0.67532  0.63626  0.17693  1.0000
  H   H3013     1.0  0.73296  0.32678  0.20611  1.0000
  H   H3014     1.0  0.88077  0.56831  0.98945  1.0000
  H   H3015     1.0  0.82843  0.63248  0.00524  1.0000
  S   S750      1.0  0.67524  0.55771  0.14356  1.0000
  H   H3016     1.0  0.73240  0.59361  0.22410  1.0000
  C   C1905     1.0  0.67619  0.38044  0.23045  1.0000
  C   C1906     1.0  0.68457  0.47725  0.14246  1.0000
  H   H3017     1.0  0.88377  0.56500  0.01216  1.0000
  C   C1907     1.0  0.79608  0.64401  0.04114  1.0000
  H   H3018     1.0  0.72405  0.61358  0.19636  1.0000
  S   S751      1.0  0.67736  0.46296  0.13302  1.0000
  H   H3019     1.0  0.66070  0.41395  0.00253  1.0000
  S   S752      1.0  0.83196  0.55618  0.00434  1.0000
  S   S753      1.0  0.75487  0.59231  0.99330  1.0000
  H   H3020     1.0  0.69613  0.33270  0.15809  1.0000
  C   C1908     1.0  0.70968  0.61232  0.20187  1.0000
  H   H3021     1.0  0.70956  0.58073  0.19427  1.0000
  H   H3022     1.0  0.95242  0.61910  0.03832  1.0000
  Fe  Fe375     1.0  0.72068  0.57439  0.12844  1.0000
  S   S754      1.0  0.69439  0.59249  0.12305  1.0000
  S   S755      1.0  0.74798  0.58000  0.11311  1.0000
  Fe  Fe376     1.0  0.70262  0.54251  0.14832  1.0000
  S   S756      1.0  0.70599  0.51430  0.16469  1.0000
  Fe  Fe377     1.0  0.68968  0.56839  0.11568  1.0000
  H   H3023     1.0  0.91522  0.62233  0.04650  1.0000
  C   C1909     1.0  0.68448  0.49517  0.13336  1.0000
  S   S757      1.0  0.74196  0.55117  0.02953  1.0000
  S   S758      1.0  0.71641  0.55091  0.11976  1.0000
  S   S759      1.0  0.70953  0.56412  0.15778  1.0000
  H   H3024     1.0  0.66799  0.51378  0.22023  1.0000
  S   S760      1.0  0.73734  0.34719  0.23005  1.0000
  Fe  Fe378     1.0  0.84804  0.63777  0.09227  1.0000
  S   S761      1.0  0.87433  0.61963  0.09754  1.0000
  C   C1910     1.0  0.71655  0.57990  0.20533  1.0000
  H   H3025     1.0  0.68201  0.60627  0.22923  1.0000
  S   S762      1.0  0.78658  0.55528  0.98887  1.0000
  S   S763      1.0  0.82676  0.62771  0.08527  1.0000
  S   S764      1.0  0.67038  0.41518  0.13993  1.0000
  C   C1911     1.0  0.72830  0.53046  0.99355  1.0000
  C   C1912     1.0  0.88588  0.55809  0.00077  1.0000
  C   C1913     1.0  0.72998  0.54253  0.01861  1.0000
  H   H3026     1.0  0.81918  0.56117  0.06062  1.0000
  C   C1914     1.0  0.84284  0.53959  0.99155  1.0000
  H   H3027     1.0  0.92215  0.64921  0.99959  1.0000
  H   H3028     1.0  0.66405  0.54381  0.04968  1.0000
  S   S765      1.0  0.99286  0.53873  0.05142  1.0000
  Fe  Fe379     1.0  0.96847  0.59474  0.00932  1.0000
  C   C1915     1.0  0.83581  0.52416  0.99415  1.0000
  H   H3029     1.0  0.85357  0.58570  0.02858  1.0000
  S   S766      1.0  0.70012  0.51578  0.99302  1.0000
  H   H3030     1.0  0.85449  0.57206  0.06036  1.0000
  H   H3031     1.0  0.68224  0.61892  0.15758  1.0000
  C   C1916     1.0  0.89450  0.63504  0.02157  1.0000
  S   S767      1.0  0.67998  0.42018  0.17671  1.0000
  H   H3032     1.0  0.80429  0.60128  0.04553  1.0000
  C   C1917     1.0  0.69743  0.48233  0.16540  1.0000
  H   H3033     1.0  0.80478  0.59102  0.06878  1.0000
  C   C1918     1.0  0.95573  0.64005  0.04974  1.0000
  H   H3034     1.0  0.74797  0.63032  0.14023  1.0000
  C   C1919     1.0  0.80088  0.62886  0.01101  1.0000
  H   H3035     1.0  0.91037  0.54352  0.02205  1.0000
  C   C1920     1.0  0.78143  0.63916  0.03749  1.0000
  C   C1921     1.0  0.87432  0.60921  0.06676  1.0000
  C   C1922     1.0  0.88375  0.60731  0.08033  1.0000
  C   C1923     1.0  0.90093  0.59600  0.07971  1.0000
  C   C1924     1.0  0.90860  0.58663  0.06554  1.0000
  H   H3036     1.0  0.86149  0.61847  0.06662  1.0000
  H   H3037     1.0  0.90834  0.59457  0.09012  1.0000
  H   H3038     1.0  0.70258  0.62414  0.20825  1.0000
  H   H3039     1.0  0.82370  0.52227  0.00430  1.0000
  N   N190      1.0  0.90580  0.64488  0.02645  1.0000
  C   C1925     1.0  0.67427  0.62136  0.17057  1.0000
  C   C1926     1.0  0.70430  0.50973  0.07951  1.0000
  N   N191      1.0  0.83015  0.58527  0.05026  1.0000
  Fe  Fe380     1.0  0.97662  0.55688  0.03105  1.0000
  H   H3040     1.0  0.67934  0.50018  0.12104  1.0000
  H   H3041     1.0  0.92187  0.57791  0.06507  1.0000
  H   H3042     1.0  0.83248  0.59723  0.02202  1.0000
  C   C1927     1.0  0.73750  0.53873  0.00140  1.0000
  C   C1928     1.0  0.77103  0.62605  0.11850  1.0000
  C   C1929     1.0  0.77964  0.61588  0.10525  1.0000
  C   C1930     1.0  0.77230  0.60185  0.10381  1.0000
  C   C1931     1.0  0.75618  0.59805  0.11540  1.0000
  C   C1932     1.0  0.74725  0.60845  0.12843  1.0000
  C   C1933     1.0  0.75474  0.62240  0.13003  1.0000
  H   H3043     1.0  0.79201  0.61872  0.09619  1.0000
  H   H3044     1.0  0.77919  0.59383  0.09374  1.0000
  H   H3045     1.0  0.73475  0.60561  0.13736  1.0000
  H   H3046     1.0  0.87727  0.54774  0.00524  1.0000
  C   C1934     1.0  0.69768  0.50014  0.15611  1.0000
  C   C1935     1.0  0.69090  0.50666  0.14024  1.0000
  H   H3047     1.0  0.69352  0.51412  0.09084  1.0000
  H   H3048     1.0  0.69077  0.52049  0.13318  1.0000
  C   C1936     1.0  0.95958  0.62978  0.03640  1.0000
  C   C1937     1.0  0.82652  0.56849  0.04783  1.0000
  H   H3049     1.0  0.89207  0.64083  0.00764  1.0000
  H   H3050     1.0  0.73368  0.53497  0.08007  1.0000
  H   H3051     1.0  0.72766  0.48760  0.09909  1.0000
  C   C1938     1.0  0.71303  0.53857  0.02767  1.0000
  S   S768      1.0  0.68431  0.57142  0.08806  1.0000
  S   S769      1.0  0.78103  0.57449  0.02320  1.0000
  H   H3052     1.0  0.70690  0.54195  0.04071  1.0000
  H   H3053     1.0  0.69107  0.52684  0.02723  1.0000
  H   H3054     1.0  0.67545  0.38918  0.21684  1.0000
  C   C1939     1.0  0.78386  0.63139  0.02253  1.0000
  H   H3055     1.0  0.71733  0.50682  0.10927  1.0000
  S   S770      1.0  0.95724  0.58209  0.03773  1.0000
  H   H3056     1.0  0.84260  0.60731  0.03416  1.0000
  C   C1940     1.0  0.81307  0.64156  0.02954  1.0000
  S   S771      1.0  0.78062  0.64314  0.12097  1.0000
  H   H3057     1.0  0.68922  0.32405  0.18174  1.0000
  H   H3058     1.0  0.66908  0.34283  0.22148  1.0000
  C   C1941     1.0  0.67322  0.55607  0.08453  1.0000
  C   C1942     1.0  0.72719  0.50227  0.09747  1.0000
  H   H3059     1.0  0.99110  0.65091  0.00576  1.0000
  Fe  Fe381     1.0  0.68266  0.58006  0.15162  1.0000
  S   S772      1.0  0.76565  0.62454  0.01866  1.0000
  H   H3060     1.0  0.84378  0.59342  0.06655  1.0000
  N   N192      1.0  0.70825  0.59505  0.21482  1.0000
  H   H3061     1.0  0.69077  0.37571  0.23112  1.0000
  C   C1943     1.0  0.72064  0.53216  0.07932  1.0000
  H   H3062     1.0  0.80278  0.62312  0.99932  1.0000
  H   H3063     1.0  0.70472  0.49523  0.08036  1.0000
  H   H3064     1.0  0.94518  0.64842  0.12158  1.0000
  H   H3065     1.0  0.73752  0.49229  0.06540  1.0000
  S   S773      1.0  0.94783  0.58896  0.99720  1.0000
  S   S774      1.0  0.83193  0.64639  0.03434  1.0000
  H   H3066     1.0  0.74939  0.50944  0.06489  1.0000
  H   H3067     1.0  0.71689  0.54057  0.06652  1.0000
  H   H3068     1.0  0.69016  0.34923  0.21921  1.0000
  C   C1944     1.0  0.98134  0.64774  0.01811  1.0000
  Fe  Fe382     1.0  0.80335  0.56743  0.00018  1.0000
  H   H3069     1.0  0.67958  0.56482  0.05563  1.0000
  S   S775      1.0  0.97688  0.62163  0.00308  1.0000
  C   C1945     1.0  0.68894  0.59458  0.22263  1.0000
  H   H3070     1.0  0.68431  0.55809  0.99029  1.0000
  H   H3071     1.0  0.83884  0.49934  0.98538  1.0000
  H   H3072     1.0  0.94576  0.63709  0.06197  1.0000
  H   H3073     1.0  0.71005  0.53702  0.09055  1.0000
  H   H3074     1.0  0.76828  0.64126  0.04638  1.0000
  N   N193      1.0  0.73281  0.59674  0.06213  1.0000
  C   C1946     1.0  0.73507  0.57693  0.06795  1.0000
  C   C1947     1.0  0.71771  0.60549  0.07488  1.0000
  C   C1948     1.0  0.72878  0.60232  0.04382  1.0000
  C   C1949     1.0  0.74966  0.60222  0.06195  1.0000
  H   H3075     1.0  0.74630  0.56989  0.05856  1.0000
  H   H3076     1.0  0.72252  0.57246  0.06825  1.0000
  H   H3077     1.0  0.73811  0.57225  0.08174  1.0000
  H   H3078     1.0  0.71538  0.62046  0.07071  1.0000
  H   H3079     1.0  0.70482  0.60132  0.07577  1.0000
  H   H3080     1.0  0.72062  0.60182  0.08871  1.0000
  H   H3081     1.0  0.73983  0.59575  0.03394  1.0000
  H   H3082     1.0  0.72739  0.61717  0.03878  1.0000
  H   H3083     1.0  0.71601  0.59857  0.04354  1.0000
  H   H3084     1.0  0.76133  0.59603  0.05236  1.0000
  H   H3085     1.0  0.75314  0.59816  0.07554  1.0000
  H   H3086     1.0  0.74835  0.61712  0.05768  1.0000
  C   C1950     1.0  0.97222  0.63375  0.02042  1.0000
  C   C1951     1.0  0.84110  0.58095  0.06426  1.0000
  H   H3087     1.0  0.90375  0.52587  0.01586  1.0000
  Fe  Fe383     1.0  0.67761  0.39732  0.16547  1.0000
  C   C1952     1.0  0.81536  0.63424  0.01434  1.0000
  H   H3088     1.0  0.66119  0.49866  0.21085  1.0000
  C   C1953     1.0  0.70392  0.53022  0.01991  1.0000
  C   C1954     1.0  0.89886  0.58829  0.05227  1.0000
  C   C1955     1.0  0.88166  0.59941  0.05302  1.0000
  H   H3089     1.0  0.91335  0.57261  0.99921  1.0000
  H   H3090     1.0  0.81804  0.57141  0.03752  1.0000
  H   H3091     1.0  0.67637  0.38894  0.02336  1.0000
  Fe  Fe384     1.0  0.93821  0.57424  0.02532  1.0000
  H   H3092     1.0  0.87427  0.60101  0.04256  1.0000
  Fe  Fe385     1.0  0.77416  0.60101  0.00469  1.0000
  H   H3093     1.0  0.66991  0.43755  0.02390  1.0000
  C   C1956     1.0  0.71158  0.52606  0.00288  1.0000
  C   C1957     1.0  0.81279  0.59743  0.05592  1.0000
  N   N194      1.0  0.72202  0.51276  0.08030  1.0000
  S   S776      1.0  0.90798  0.57719  0.03420  1.0000
  H   H3094     1.0  0.81504  0.61015  0.05809  1.0000
  Fe  Fe386     1.0  0.76346  0.56516  0.01036  1.0000
  H   H3095     1.0  0.69993  0.51749  0.06676  1.0000
  H   H3096     1.0  0.83928  0.55914  0.04311  1.0000
  S   S777      1.0  0.95625  0.54765  0.02158  1.0000
  H   H3097     1.0  0.67620  0.54092  0.18511  1.0000
  H   H3098     1.0  0.89531  0.63772  0.05500  1.0000
  C   C1958     1.0  0.84016  0.59426  0.03300  1.0000
  H   H3099     1.0  0.75054  0.54182  0.99428  1.0000
  H   H3100     1.0  0.73237  0.51443  0.05181  1.0000
  C   C1959     1.0  0.73594  0.50692  0.06497  1.0000
  H   H3101     1.0  0.74072  0.50384  0.09833  1.0000
  H   H3102     1.0  0.83404  0.57401  0.07746  1.0000
  H   H3103     1.0  0.91701  0.64388  0.04919  1.0000
  C   C1960     1.0  0.90846  0.63685  0.04508  1.0000
  C   C1961     1.0  0.84440  0.51118  0.98350  1.0000
  H   H3104     1.0  0.71573  0.56665  0.21471  1.0000
  N   N195      1.0  0.90521  0.54990  0.99519  1.0000
  C   C1962     1.0  0.67447  0.42256  0.02701  1.0000
  H   H3105     1.0  0.90110  0.62054  0.02216  1.0000
  Fe  Fe387     1.0  0.67205  0.51417  0.00914  1.0000
  H   H3106     1.0  0.67250  0.33475  0.16815  1.0000
  Fe  Fe388     1.0  0.80668  0.64707  0.10109  1.0000
  Fe  Fe389     1.0  0.96721  0.56273  0.99406  1.0000
  H   H3107     1.0  0.67425  0.36303  0.20581  1.0000
  H   H3108     1.0  0.68510  0.41873  0.01531  1.0000
  S   S778      1.0  0.98910  0.56994  0.00323  1.0000
  C   C1963     1.0  0.91595  0.56420  0.98901  1.0000
  H   H3109     1.0  0.67124  0.38920  0.04709  1.0000
  H   H3110     1.0  0.68039  0.50843  0.19879  1.0000
  H   H3111     1.0  0.92620  0.53038  0.00690  1.0000
  H   H3112     1.0  0.88097  0.63567  0.03088  1.0000
  H   H3113     1.0  0.68090  0.41904  0.03895  1.0000
  C   C1964     1.0  0.68600  0.32562  0.16829  1.0000
  C   C1965     1.0  0.91162  0.53681  0.01070  1.0000
  C   C1966     1.0  0.92361  0.64360  0.01383  1.0000
  C   C1967     1.0  0.66546  0.63913  0.19403  1.0000
  C   C1968     1.0  0.71777  0.59340  0.22942  1.0000
  C   C1969     1.0  0.67547  0.35458  0.21943  1.0000
  H   H3114     1.0  0.73109  0.57992  0.19911  1.0000
  C   C1970     1.0  0.66563  0.39366  0.03456  1.0000
  H   H3115     1.0  0.93073  0.55834  0.98654  1.0000
  H   H3116     1.0  0.93110  0.62932  0.01458  1.0000
  C   C1971     1.0  0.66659  0.51123  0.20735  1.0000
  Fe  Fe390     1.0  0.82768  0.65158  0.06225  1.0000
  H   H3117     1.0  0.66492  0.54439  0.11265  1.0000
  H   H3118     1.0  0.66633  0.52076  0.17166  1.0000
  C   C1972     1.0  0.66477  0.54423  0.09891  1.0000
  H   H3119     1.0  0.68420  0.64525  0.16883  1.0000
  S   S779      1.0  0.66466  0.49356  0.03405  1.0000
  H   H3120     1.0  0.93240  0.65115  0.01690  1.0000
  S   S780      1.0  0.66129  0.59072  0.17399  1.0000
  C   C1973     1.0  0.66233  0.54296  0.19372  1.0000
  C   C1974     1.0  0.66416  0.54382  0.06339  1.0000
  Fe  Fe391     1.0  0.66596  0.65103  0.23262  1.0000
  H   H3121     1.0  0.66332  0.54674  0.20615  1.0000
  H   H3122     1.0  0.66119  0.45510  0.10313  1.0000
  H   H3123     1.0  0.70791  0.38577  0.27501  1.0000
  Fe  Fe392     1.0  0.67457  0.62168  0.26488  1.0000
  S   S781      1.0  0.93951  0.34917  0.39039  1.0000
  S   S782      1.0  0.70157  0.32853  0.40023  1.0000
  H   H3124     1.0  0.66607  0.33046  0.31806  1.0000
  Fe  Fe393     1.0  0.67838  0.35249  0.39926  1.0000
  Fe  Fe394     1.0  0.96818  0.34298  0.37485  1.0000
  H   H3125     1.0  0.82631  0.34966  0.38345  1.0000
  H   H3126     1.0  0.67693  0.44358  0.35276  1.0000
  C   C1975     1.0  0.85668  0.38590  0.47967  1.0000
  H   H3127     1.0  0.88081  0.36239  0.45353  1.0000
  H   H3128     1.0  0.71324  0.33455  0.31152  1.0000
  H   H3129     1.0  0.94867  0.44584  0.45536  1.0000
  C   C1976     1.0  0.66602  0.58089  0.27650  1.0000
  C   C1977     1.0  0.67475  0.53850  0.32104  1.0000
  H   H3130     1.0  0.97357  0.44626  0.48024  1.0000
  S   S783      1.0  0.71558  0.34532  0.35719  1.0000
  Fe  Fe395     1.0  0.71875  0.34839  0.38379  1.0000
  S   S784      1.0  0.74806  0.34321  0.38592  1.0000
  N   N196      1.0  0.67047  0.52053  0.32367  1.0000
  S   S785      1.0  0.68483  0.38634  0.33364  1.0000
  C   C1978     1.0  0.66094  0.43861  0.31816  1.0000
  Fe  Fe396     1.0  0.79262  0.33734  0.46282  1.0000
  S   S786      1.0  0.76311  0.34512  0.46108  1.0000
  S   S787      1.0  0.90718  0.33148  0.37227  1.0000
  S   S788      1.0  0.81554  0.34660  0.44135  1.0000
  C   C1979     1.0  0.83202  0.33463  0.35467  1.0000
  H   H3131     1.0  0.91935  0.33275  0.47622  1.0000
  C   C1980     1.0  0.79963  0.33670  0.36287  1.0000
  C   C1981     1.0  0.81504  0.34389  0.38244  1.0000
  H   H3132     1.0  0.71180  0.60465  0.23682  1.0000
  C   C1982     1.0  0.66770  0.56359  0.27340  1.0000
  S   S789      1.0  0.69097  0.64006  0.24408  1.0000
  H   H3133     1.0  0.70268  0.35870  0.26693  1.0000
  Fe  Fe397     1.0  0.69122  0.36770  0.35954  1.0000
  H   H3134     1.0  0.68808  0.41050  0.35495  1.0000
  C   C1983     1.0  0.70912  0.34951  0.30992  1.0000
  C   C1984     1.0  0.75180  0.34291  0.40725  1.0000
  H   H3135     1.0  0.95093  0.42177  0.46024  1.0000
  C   C1985     1.0  0.77282  0.33671  0.42739  1.0000
  C   C1986     1.0  0.75886  0.34391  0.44044  1.0000
  C   C1987     1.0  0.74128  0.35023  0.43703  1.0000
  C   C1988     1.0  0.73774  0.34974  0.42045  1.0000
  C   C1989     1.0  0.81182  0.36381  0.35377  1.0000
  H   H3136     1.0  0.84374  0.33999  0.35523  1.0000
  H   H3137     1.0  0.73045  0.35579  0.44710  1.0000
  H   H3138     1.0  0.72423  0.35496  0.41776  1.0000
  S   S790      1.0  0.84217  0.32305  0.46966  1.0000
  H   H3139     1.0  0.69121  0.38219  0.29556  1.0000
  C   C1990     1.0  0.66753  0.41997  0.31922  1.0000
  H   H3140     1.0  0.68375  0.34765  0.25197  1.0000
  H   H3141     1.0  0.86565  0.38986  0.46697  1.0000
  N   N197      1.0  0.95206  0.43276  0.48237  1.0000
  S   S791      1.0  0.67209  0.34905  0.37404  1.0000
  H   H3142     1.0  0.71346  0.38348  0.29655  1.0000
  H   H3143     1.0  0.80094  0.32253  0.37064  1.0000
  H   H3144     1.0  0.87594  0.32327  0.36595  1.0000
  H   H3145     1.0  0.66251  0.34164  0.25448  1.0000
  H   H3146     1.0  0.69467  0.35263  0.31696  1.0000
  H   H3147     1.0  0.90507  0.37605  0.40658  1.0000
  C   C1991     1.0  0.93329  0.37263  0.46646  1.0000
  C   C1992     1.0  0.94297  0.37215  0.44875  1.0000
  C   C1993     1.0  0.94414  0.35747  0.44092  1.0000
  C   C1994     1.0  0.93561  0.34325  0.45084  1.0000
  C   C1995     1.0  0.92591  0.34375  0.46851  1.0000
  H   H3148     1.0  0.89655  0.34972  0.40110  1.0000
  H   H3149     1.0  0.94966  0.38308  0.44107  1.0000
  H   H3150     1.0  0.95167  0.35715  0.42727  1.0000
  H   H3151     1.0  0.71668  0.58066  0.23963  1.0000
  Fe  Fe398     1.0  0.93457  0.32798  0.37870  1.0000
  H   H3152     1.0  0.89715  0.34225  0.44955  1.0000
  H   H3153     1.0  0.66889  0.54829  0.30991  1.0000
  H   H3154     1.0  0.68600  0.35561  0.28775  1.0000
  C   C1996     1.0  0.70583  0.37840  0.28932  1.0000
  S   S792      1.0  0.98246  0.36502  0.35721  1.0000
  S   S793      1.0  0.69597  0.37287  0.38475  1.0000
  N   N198      1.0  0.81463  0.34476  0.36344  1.0000
  N   N199      1.0  0.71168  0.35865  0.29069  1.0000
  H   H3155     1.0  0.68056  0.55677  0.26660  1.0000
  Fe  Fe399     1.0  0.82541  0.35088  0.46415  1.0000
  S   S794      1.0  0.96222  0.32395  0.36092  1.0000
  C   C1997     1.0  0.88479  0.35159  0.44554  1.0000
  C   C1998     1.0  0.84262  0.37753  0.48020  1.0000
  H   H3156     1.0  0.82294  0.37029  0.35390  1.0000
  N   N200      1.0  0.88806  0.35923  0.42595  1.0000
  Fe  Fe400     1.0  0.69697  0.32707  0.37353  1.0000
  C   C1999     1.0  0.87126  0.37119  0.42106  1.0000
  H   H3157     1.0  0.79881  0.37181  0.36010  1.0000
  H   H3158     1.0  0.70450  0.33759  0.28273  1.0000
  H   H3159     1.0  0.89894  0.38069  0.42900  1.0000
  Fe  Fe401     1.0  0.94877  0.32611  0.41188  1.0000
  H   H3160     1.0  0.97048  0.43129  0.45682  1.0000
  H   H3161     1.0  0.86675  0.38271  0.42819  1.0000
  H   H3162     1.0  0.67468  0.32669  0.34744  1.0000
  H   H3163     1.0  0.87318  0.37688  0.40630  1.0000
  H   H3164     1.0  0.71718  0.35392  0.31723  1.0000
  C   C2000     1.0  0.67870  0.51308  0.30717  1.0000
  S   S795      1.0  0.93206  0.39113  0.47603  1.0000
  C   C2001     1.0  0.67723  0.40975  0.33254  1.0000
  C   C2002     1.0  0.92474  0.35840  0.47628  1.0000
  H   H3165     1.0  0.95195  0.46102  0.47845  1.0000
  H   H3166     1.0  0.67545  0.49963  0.30865  1.0000
  H   H3167     1.0  0.79931  0.33647  0.34880  1.0000
  H   H3168     1.0  0.73602  0.33941  0.28324  1.0000
  S   S796      1.0  0.83990  0.37338  0.46018  1.0000
  H   H3169     1.0  0.81700  0.32973  0.39014  1.0000
  C   C2003     1.0  0.73103  0.35424  0.28195  1.0000
  H   H3170     1.0  0.80213  0.35142  0.38949  1.0000
  H   H3171     1.0  0.91547  0.36101  0.42420  1.0000
  C   C2004     1.0  0.68049  0.41827  0.34473  1.0000
  H   H3172     1.0  0.81136  0.36495  0.33941  1.0000
  H   H3173     1.0  0.73336  0.36030  0.26721  1.0000
  H   H3174     1.0  0.85993  0.36380  0.42484  1.0000
  H   H3175     1.0  0.68964  0.53786  0.31758  1.0000
  H   H3176     1.0  0.88303  0.33634  0.41895  1.0000
  H   H3177     1.0  0.73969  0.35924  0.28809  1.0000
  S   S797      1.0  0.68469  0.59149  0.26963  1.0000
  H   H3178     1.0  0.90631  0.33501  0.41937  1.0000
  C   C2005     1.0  0.70069  0.35245  0.28158  1.0000
  C   C2006     1.0  0.89372  0.34440  0.41592  1.0000
  C   C2007     1.0  0.90248  0.36975  0.42121  1.0000
  H   H3179     1.0  0.78621  0.34437  0.36880  1.0000
  N   N201      1.0  0.66712  0.36511  0.23375  1.0000
  C   C2008     1.0  0.76926  0.33612  0.41088  1.0000
  S   S798      1.0  0.66457  0.64048  0.28449  1.0000
  C   C2009     1.0  0.67420  0.43699  0.34344  1.0000
  C   C2010     1.0  0.95572  0.43298  0.46283  1.0000
  H   H3180     1.0  0.67361  0.52207  0.29525  1.0000
  H   H3181     1.0  0.68731  0.58214  0.23312  1.0000
  H   H3182     1.0  0.66910  0.54432  0.33338  1.0000
  H   H3183     1.0  0.69371  0.51133  0.30402  1.0000
  C   C2011     1.0  0.67777  0.50816  0.33906  1.0000
  H   H3184     1.0  0.87366  0.34394  0.44965  1.0000
  S   S799      1.0  0.93593  0.32506  0.44134  1.0000
  H   H3185     1.0  0.83233  0.33523  0.34023  1.0000
  C   C2012     1.0  0.66922  0.35336  0.25150  1.0000
  H   H3186     1.0  0.66497  0.41347  0.30974  1.0000
  H   H3187     1.0  0.69273  0.50659  0.33677  1.0000
  H   H3188     1.0  0.67484  0.49444  0.34122  1.0000
  H   H3189     1.0  0.78634  0.33155  0.43005  1.0000
  H   H3190     1.0  0.67165  0.51317  0.35183  1.0000
  H   H3191     1.0  0.66745  0.32354  0.46641  1.0000
  H   H3192     1.0  0.66319  0.36086  0.26265  1.0000
  H   H3193     1.0  0.66968  0.38927  0.24044  1.0000
  H   H3194     1.0  0.78002  0.33024  0.40101  1.0000
  C   C2013     1.0  0.66432  0.44719  0.33023  1.0000
  S   S800      1.0  0.97799  0.32150  0.39745  1.0000
  H   H3195     1.0  0.83429  0.32013  0.36137  1.0000
  Fe  Fe402     1.0  0.83622  0.34107  0.63177  1.0000
  S   S801      1.0  0.84620  0.36697  0.62617  1.0000
  H   H3196     1.0  0.89517  0.36740  0.61995  1.0000
  H   H3197     1.0  0.87136  0.34980  0.50319  1.0000
  S   S802      1.0  0.82732  0.33555  0.60909  1.0000
  Fe  Fe403     1.0  0.91176  0.37413  0.54439  1.0000
  S   S803      1.0  0.88794  0.39552  0.55258  1.0000
  S   S804      1.0  0.92182  0.34967  0.56416  1.0000
  Fe  Fe404     1.0  0.90388  0.41477  0.53227  1.0000
  S   S805      1.0  0.90364  0.44211  0.53712  1.0000
  Fe  Fe405     1.0  0.87854  0.39248  0.52894  1.0000
  S   S806      1.0  0.92866  0.39348  0.52600  1.0000
  S   S807      1.0  0.90114  0.36954  0.52234  1.0000
  C   C2014     1.0  0.93572  0.46658  0.71164  1.0000
  Fe  Fe406     1.0  0.88237  0.40507  0.68993  1.0000
  S   S808      1.0  0.91140  0.39218  0.69081  1.0000
  S   S809      1.0  0.86363  0.38643  0.69257  1.0000
  Fe  Fe407     1.0  0.88681  0.44084  0.69533  1.0000
  S   S810      1.0  0.91587  0.43044  0.69754  1.0000
  Fe  Fe408     1.0  0.91757  0.41855  0.67394  1.0000
  S   S811      1.0  0.94184  0.42113  0.65155  1.0000
  Fe  Fe409     1.0  0.90676  0.40527  0.71432  1.0000
  S   S812      1.0  0.88895  0.43036  0.67049  1.0000
  S   S813      1.0  0.87739  0.41688  0.71449  1.0000
  H   H3198     1.0  0.94042  0.42123  0.53601  1.0000
  H   H3199     1.0  0.89227  0.32254  0.61533  1.0000
  C   C2015     1.0  0.94475  0.44354  0.64369  1.0000
  H   H3200     1.0  0.91815  0.45539  0.65706  1.0000
  H   H3201     1.0  0.88511  0.64670  0.58436  1.0000
  H   H3202     1.0  0.92918  0.45497  0.71352  1.0000
  C   C2016     1.0  0.93271  0.47582  0.64027  1.0000
  H   H3203     1.0  0.86065  0.33777  0.58502  1.0000
  C   C2017     1.0  0.92380  0.44739  0.53855  1.0000
  C   C2018     1.0  0.95558  0.43867  0.54036  1.0000
  C   C2019     1.0  0.95500  0.45558  0.54379  1.0000
  C   C2020     1.0  0.93890  0.46857  0.54414  1.0000
  C   C2021     1.0  0.92334  0.46448  0.54148  1.0000
  H   H3204     1.0  0.91083  0.47449  0.54203  1.0000
  H   H3205     1.0  0.93739  0.46062  0.60435  1.0000
  H   H3206     1.0  0.91736  0.35859  0.48989  1.0000
  H   H3207     1.0  0.91362  0.42408  0.59001  1.0000
  C   C2022     1.0  0.87481  0.33197  0.58114  1.0000
  H   H3208     1.0  0.91610  0.58997  0.72989  1.0000
  H   H3209     1.0  0.96401  0.45903  0.68495  1.0000
  H   H3210     1.0  0.88493  0.37373  0.72105  1.0000
  C   C2023     1.0  0.88748  0.34319  0.57522  1.0000
  C   C2024     1.0  0.88014  0.33671  0.50808  1.0000
  H   H3211     1.0  0.90168  0.34224  0.72650  1.0000
  H   H3212     1.0  0.88302  0.35754  0.57478  1.0000
  C   C2025     1.0  0.85140  0.37212  0.64456  1.0000
  C   C2026     1.0  0.84674  0.36216  0.66200  1.0000
  C   C2027     1.0  0.85082  0.36658  0.67657  1.0000
  C   C2028     1.0  0.85974  0.38082  0.67376  1.0000
  C   C2029     1.0  0.86486  0.39050  0.65624  1.0000
  C   C2030     1.0  0.86056  0.38621  0.64165  1.0000
  H   H3213     1.0  0.83970  0.35127  0.66433  1.0000
  H   H3214     1.0  0.84686  0.35905  0.69011  1.0000
  H   H3215     1.0  0.87165  0.40155  0.65404  1.0000
  H   H3216     1.0  0.86418  0.39394  0.62815  1.0000
  N   N202      1.0  0.92636  0.44001  0.59978  1.0000
  C   C2031     1.0  0.91221  0.44031  0.61645  1.0000
  C   C2032     1.0  0.91891  0.43678  0.58561  1.0000
  C   C2033     1.0  0.94212  0.42538  0.60322  1.0000
  C   C2034     1.0  0.93224  0.45751  0.59371  1.0000
  C   C2035     1.0  0.73250  0.33088  0.50269  1.0000
  H   H3217     1.0  0.90010  0.45112  0.61421  1.0000
  H   H3218     1.0  0.88860  0.34858  0.65073  1.0000
  H   H3219     1.0  0.95964  0.48796  0.69516  1.0000
  H   H3220     1.0  0.82382  0.37297  0.52506  1.0000
  H   H3221     1.0  0.95285  0.42459  0.59073  1.0000
  H   H3222     1.0  0.93819  0.41201  0.60840  1.0000
  H   H3223     1.0  0.92096  0.46886  0.59020  1.0000
  H   H3224     1.0  0.95916  0.41468  0.50643  1.0000
  C   C2036     1.0  0.87784  0.47746  0.71387  1.0000
  H   H3225     1.0  0.97636  0.41300  0.48634  1.0000
  S   S814      1.0  0.98975  0.48224  0.57875  1.0000
  C   C2037     1.0  0.94632  0.49221  0.69096  1.0000
  H   H3226     1.0  0.94486  0.45262  0.68145  1.0000
  S   S815      1.0  0.98761  0.50694  0.53858  1.0000
  C   C2038     1.0  0.90593  0.33576  0.57045  1.0000
  H   H3227     1.0  0.95660  0.40378  0.48990  1.0000
  H   H3228     1.0  0.76875  0.32604  0.49738  1.0000
  N   N203      1.0  0.82348  0.39266  0.58286  1.0000
  C   C2039     1.0  0.81362  0.38380  0.57498  1.0000
  C   C2040     1.0  0.81417  0.39339  0.60175  1.0000
  C   C2041     1.0  0.82390  0.41119  0.57227  1.0000
  C   C2042     1.0  0.84225  0.38226  0.58247  1.0000
  H   H3229     1.0  0.82028  0.38298  0.56074  1.0000
  H   H3230     1.0  0.81305  0.36980  0.58268  1.0000
  H   H3231     1.0  0.82146  0.39961  0.60831  1.0000
  H   H3232     1.0  0.80004  0.40133  0.60261  1.0000
  H   H3233     1.0  0.81349  0.37961  0.61007  1.0000
  H   H3234     1.0  0.83133  0.41820  0.57783  1.0000
  H   H3235     1.0  0.80999  0.41947  0.57222  1.0000
  H   H3236     1.0  0.83085  0.41108  0.55794  1.0000
  H   H3237     1.0  0.84249  0.36820  0.59020  1.0000
  H   H3238     1.0  0.85001  0.38845  0.58853  1.0000
  H   H3239     1.0  0.84978  0.38150  0.56849  1.0000
  C   C2043     1.0  0.93073  0.45797  0.64809  1.0000
  H   H3240     1.0  0.87634  0.33753  0.64200  1.0000
  C   C2044     1.0  0.94002  0.43455  0.53783  1.0000
  H   H3241     1.0  0.91080  0.49157  0.69604  1.0000
  H   H3242     1.0  0.87017  0.39552  0.49506  1.0000
  H   H3243     1.0  0.94345  0.45747  0.58157  1.0000
  H   H3244     1.0  0.79942  0.39133  0.57503  1.0000
  C   C2045     1.0  0.94877  0.47927  0.62825  1.0000
  S   S816      1.0  0.97437  0.45947  0.54859  1.0000
  H   H3245     1.0  0.92690  0.47549  0.72090  1.0000
  H   H3246     1.0  0.96800  0.42854  0.54022  1.0000
  H   H3247     1.0  0.88407  0.35524  0.61104  1.0000
  C   C2046     1.0  0.85452  0.32227  0.52097  1.0000
  H   H3248     1.0  0.90771  0.42720  0.62162  1.0000
  C   C2047     1.0  0.96287  0.46483  0.62422  1.0000
  C   C2048     1.0  0.92112  0.33879  0.63009  1.0000
  S   S817      1.0  0.89209  0.41376  0.50927  1.0000
  N   N204      1.0  0.93833  0.47649  0.69266  1.0000
  S   S818      1.0  0.93508  0.64435  0.62635  1.0000
  C   C2049     1.0  0.89721  0.35526  0.61417  1.0000
  H   H3249     1.0  0.92954  0.43546  0.57329  1.0000
  H   H3250     1.0  0.97177  0.43592  0.62851  1.0000
  C   C2050     1.0  0.96086  0.44702  0.63189  1.0000
  H   H3251     1.0  0.66813  0.34866  0.54446  1.0000
  H   H3252     1.0  0.73174  0.32773  0.48984  1.0000
  H   H3253     1.0  0.87616  0.34120  0.54167  1.0000
  H   H3254     1.0  0.94858  0.49992  0.67676  1.0000
  H   H3255     1.0  0.92022  0.35050  0.63614  1.0000
  H   H3256     1.0  0.97544  0.46736  0.61529  1.0000
  H   H3257     1.0  0.90769  0.44804  0.58171  1.0000
  H   H3258     1.0  0.73740  0.34380  0.49894  1.0000
  C   C2051     1.0  0.83310  0.37645  0.51244  1.0000
  C   C2052     1.0  0.84726  0.38468  0.51190  1.0000
  S   S819      1.0  0.87424  0.46991  0.69607  1.0000
  H   H3259     1.0  0.87532  0.34879  0.71299  1.0000
  H   H3260     1.0  0.85301  0.35601  0.72543  1.0000
  H   H3261     1.0  0.90626  0.62060  0.71296  1.0000
  C   C2053     1.0  0.88826  0.46592  0.72598  1.0000
  S   S820      1.0  0.85032  0.38861  0.53188  1.0000
  Fe  Fe410     1.0  0.91575  0.39092  0.50443  1.0000
  H   H3262     1.0  0.87399  0.32438  0.68930  1.0000
  H   H3263     1.0  0.94850  0.42762  0.61339  1.0000
  H   H3264     1.0  0.98471  0.57839  0.50856  1.0000
  H   H3265     1.0  0.92905  0.43446  0.50443  1.0000
  H   H3266     1.0  0.95328  0.47158  0.66654  1.0000
  H   H3267     1.0  0.91725  0.44283  0.62742  1.0000
  H   H3268     1.0  0.89365  0.45200  0.72482  1.0000
  H   H3269     1.0  0.90714  0.35687  0.60108  1.0000
  H   H3270     1.0  0.94883  0.46117  0.71618  1.0000
  S   S821      1.0  0.78027  0.32963  0.62007  1.0000
  H   H3271     1.0  0.93727  0.50169  0.69955  1.0000
  H   H3272     1.0  0.93836  0.48168  0.54668  1.0000
  H   H3273     1.0  0.67115  0.32256  0.51337  1.0000
  H   H3274     1.0  0.73208  0.32282  0.53845  1.0000
  H   H3275     1.0  0.85481  0.34996  0.53493  1.0000
  H   H3276     1.0  0.87803  0.64236  0.55712  1.0000
  S   S822      1.0  0.81334  0.33094  0.65268  1.0000
  C   C2054     1.0  0.92062  0.48283  0.68713  1.0000
  S   S823      1.0  0.97927  0.52663  0.57346  1.0000
  Fe  Fe411     1.0  0.97429  0.48500  0.55726  1.0000
  H   H3277     1.0  0.92164  0.48694  0.64319  1.0000
  H   H3278     1.0  0.75654  0.32807  0.59815  1.0000
  H   H3279     1.0  0.89246  0.33982  0.51031  1.0000
  H   H3280     1.0  0.81998  0.36632  0.49708  1.0000
  C   C2055     1.0  0.86647  0.34716  0.72671  1.0000
  Fe  Fe412     1.0  0.95179  0.63943  0.59936  1.0000
  C   C2056     1.0  0.90522  0.32279  0.61872  1.0000
  S   S824      1.0  0.98025  0.64396  0.58702  1.0000
  Fe  Fe413     1.0  0.92720  0.61785  0.62908  1.0000
  S   S825      1.0  0.90300  0.63053  0.61643  1.0000
  S   S826      1.0  0.92834  0.59376  0.65245  1.0000
  Fe  Fe414     1.0  0.92214  0.62642  0.59038  1.0000
  S   S827      1.0  0.91137  0.61846  0.57015  1.0000
  C   C2057     1.0  0.87090  0.49547  0.71549  1.0000
  S   S828      1.0  0.94580  0.61193  0.60315  1.0000
  C   C2058     1.0  0.93233  0.43506  0.48963  1.0000
  Fe  Fe415     1.0  0.96489  0.52601  0.55232  1.0000
  H   H3281     1.0  0.88386  0.61678  0.71605  1.0000
  S   S829      1.0  0.95175  0.55087  0.53489  1.0000
  H   H3282     1.0  0.92593  0.55788  0.59175  1.0000
  H   H3283     1.0  0.91432  0.47135  0.68775  1.0000
  H   H3284     1.0  0.98573  0.55506  0.53608  1.0000
  H   H3285     1.0  0.91380  0.58737  0.62527  1.0000
  C   C2059     1.0  0.83096  0.37260  0.49664  1.0000
  C   C2060     1.0  0.95065  0.46441  0.68091  1.0000
  H   H3286     1.0  0.92544  0.53756  0.64026  1.0000
  H   H3287     1.0  0.90294  0.55094  0.64022  1.0000
  H   H3288     1.0  0.84506  0.33481  0.51596  1.0000
  C   C2061     1.0  0.94296  0.56178  0.61609  1.0000
  N   N205      1.0  0.92368  0.56100  0.61882  1.0000
  C   C2062     1.0  0.96146  0.41531  0.49168  1.0000
  S   S830      1.0  0.95013  0.50420  0.56904  1.0000
  C   C2063     1.0  0.92160  0.55105  0.60600  1.0000
  H   H3289     1.0  0.94818  0.56865  0.60210  1.0000
  Fe  Fe416     1.0  0.96644  0.50308  0.58930  1.0000
  H   H3290     1.0  0.92196  0.49079  0.67306  1.0000
  C   C2064     1.0  0.85920  0.38918  0.49556  1.0000
  S   S831      1.0  0.95104  0.50157  0.61816  1.0000
  C   C2065     1.0  0.90957  0.59221  0.67060  1.0000
  C   C2066     1.0  0.89379  0.60563  0.67103  1.0000
  C   C2067     1.0  0.87908  0.60399  0.68573  1.0000
  C   C2068     1.0  0.88006  0.58897  0.70009  1.0000
  C   C2069     1.0  0.89581  0.57549  0.69958  1.0000
  C   C2070     1.0  0.91052  0.57713  0.68488  1.0000
  H   H3291     1.0  0.89293  0.61731  0.66010  1.0000
  H   H3292     1.0  0.86693  0.61446  0.68604  1.0000
  H   H3293     1.0  0.89666  0.56381  0.71050  1.0000
  H   H3294     1.0  0.92270  0.56670  0.68460  1.0000
  C   C2071     1.0  0.92344  0.59977  0.56051  1.0000
  C   C2072     1.0  0.91678  0.59579  0.54732  1.0000
  C   C2073     1.0  0.92568  0.58083  0.53953  1.0000
  C   C2074     1.0  0.94104  0.56941  0.54520  1.0000
  C   C2075     1.0  0.94783  0.57333  0.55841  1.0000
  C   C2076     1.0  0.93916  0.58870  0.56587  1.0000
  H   H3295     1.0  0.90469  0.60432  0.54306  1.0000
  H   H3296     1.0  0.92048  0.57794  0.52924  1.0000
  H   H3297     1.0  0.95990  0.56477  0.56260  1.0000
  H   H3298     1.0  0.94463  0.59202  0.57567  1.0000
  S   S832      1.0  0.86170  0.58803  0.71877  1.0000
  H   H3299     1.0  0.89806  0.57944  0.61758  1.0000
  H   H3300     1.0  0.93153  0.33980  0.61730  1.0000
  H   H3301     1.0  0.92995  0.53710  0.60775  1.0000
  H   H3302     1.0  0.91904  0.55881  0.64752  1.0000
  H   H3303     1.0  0.91705  0.58710  0.60181  1.0000
  H   H3304     1.0  0.95161  0.54800  0.61843  1.0000
  C   C2077     1.0  0.91267  0.57952  0.61573  1.0000
  Fe  Fe417     1.0  0.80646  0.32256  0.63007  1.0000
  H   H3305     1.0  0.94498  0.56935  0.62548  1.0000
  H   H3306     1.0  0.90727  0.54992  0.60787  1.0000
  N   N206      1.0  0.90338  0.33849  0.62677  1.0000
  H   H3307     1.0  0.86293  0.50447  0.70607  1.0000
  H   H3308     1.0  0.71854  0.33326  0.51107  1.0000
  C   C2078     1.0  0.91750  0.55164  0.63754  1.0000
  H   H3309     1.0  0.85768  0.32973  0.55189  1.0000
  C   C2079     1.0  0.86450  0.33729  0.53894  1.0000
  C   C2080     1.0  0.89002  0.33715  0.64407  1.0000
  S   S833      1.0  0.80110  0.34441  0.48511  1.0000
  H   H3310     1.0  0.75047  0.33396  0.52629  1.0000
  H   H3311     1.0  0.95590  0.44792  0.50000  1.0000
  N   N207      1.0  0.87049  0.32642  0.52476  1.0000
  C   C2081     1.0  0.66162  0.33742  0.54651  1.0000
  H   H3312     1.0  0.88693  0.63574  0.72299  1.0000
  C   C2082     1.0  0.89278  0.62132  0.72233  1.0000
  H   H3313     1.0  0.86475  0.33290  0.73073  1.0000
  H   H3314     1.0  0.91564  0.32315  0.60594  1.0000
  H   H3315     1.0  0.67388  0.33532  0.49060  1.0000
  H   H3316     1.0  0.92680  0.42431  0.48723  1.0000
  H   H3317     1.0  0.89387  0.32438  0.65376  1.0000
  C   C2083     1.0  0.87414  0.50188  0.72932  1.0000
  H   H3318     1.0  0.86868  0.51578  0.73048  1.0000
  C   C2084     1.0  0.95869  0.44764  0.48536  1.0000
  H   H3319     1.0  0.92614  0.32630  0.63955  1.0000
  H   H3320     1.0  0.98769  0.54616  0.50751  1.0000
  H   H3321     1.0  0.88457  0.32905  0.49699  1.0000
  C   C2085     1.0  0.74565  0.32109  0.52923  1.0000
  H   H3322     1.0  0.92521  0.42169  0.73231  1.0000
  H   H3323     1.0  0.92480  0.44826  0.48325  1.0000
  C   C2086     1.0  0.67528  0.32137  0.49894  1.0000
  H   H3324     1.0  0.89920  0.34388  0.74957  1.0000
  Fe  Fe418     1.0  0.94124  0.39877  0.85150  1.0000
  S   S834      1.0  0.96432  0.40844  0.83059  1.0000
  S   S835      1.0  0.92440  0.41326  0.87382  1.0000
  Fe  Fe419     1.0  0.94431  0.36612  0.83503  1.0000
  S   S836      1.0  0.96696  0.37393  0.81258  1.0000
  S   S837      1.0  0.93912  0.33842  0.83739  1.0000
  Fe  Fe420     1.0  0.97808  0.37913  0.83403  1.0000
  H   H3325     1.0  0.81359  0.61698  0.86053  1.0000
  Fe  Fe421     1.0  0.95092  0.40217  0.81140  1.0000
  S   S838      1.0  0.94685  0.42173  0.78559  1.0000
  S   S839      1.0  0.95625  0.36988  0.85676  1.0000
  S   S840      1.0  0.92696  0.39408  0.83201  1.0000
  H   H3326     1.0  0.79467  0.61184  0.87827  1.0000
  H   H3327     1.0  0.91319  0.44560  0.79734  1.0000
  C   C2087     1.0  0.89267  0.34048  0.74011  1.0000
  N   N208      1.0  0.88704  0.44240  0.79581  1.0000
  C   C2088     1.0  0.92648  0.33474  0.82344  1.0000
  C   C2089     1.0  0.91540  0.34907  0.81403  1.0000
  C   C2090     1.0  0.90537  0.34564  0.80313  1.0000
  H   H3328     1.0  0.73421  0.52735  0.98032  1.0000
  H   H3329     1.0  0.91441  0.36274  0.81532  1.0000
  H   H3330     1.0  0.89668  0.35675  0.79601  1.0000
  C   C2091     1.0  0.93809  0.41215  0.77267  1.0000
  C   C2092     1.0  0.93349  0.39522  0.77961  1.0000
  C   C2093     1.0  0.92586  0.38789  0.76950  1.0000
  H   H3331     1.0  0.88108  0.37506  0.74429  1.0000
  C   C2094     1.0  0.82147  0.55281  0.91915  1.0000
  C   C2095     1.0  0.93497  0.42177  0.75565  1.0000
  H   H3332     1.0  0.93560  0.38784  0.79285  1.0000
  H   H3333     1.0  0.92201  0.37494  0.77498  1.0000
  C   C2096     1.0  0.85857  0.54192  0.97849  1.0000
  H   H3334     1.0  0.68367  0.58999  0.94603  1.0000
  C   C2097     1.0  0.93303  0.46750  0.87864  1.0000
  C   C2098     1.0  0.94513  0.45802  0.86592  1.0000
  C   C2099     1.0  0.94221  0.44177  0.86377  1.0000
  C   C2100     1.0  0.92736  0.43465  0.87464  1.0000
  C   C2101     1.0  0.91522  0.44417  0.88731  1.0000
  C   C2102     1.0  0.91794  0.46062  0.88922  1.0000
  H   H3335     1.0  0.95686  0.46326  0.85773  1.0000
  H   H3336     1.0  0.95172  0.43455  0.85404  1.0000
  H   H3337     1.0  0.90375  0.43870  0.89585  1.0000
  C   C2103     1.0  0.95944  0.42343  0.90922  1.0000
  C   C2104     1.0  0.90565  0.61673  0.74859  1.0000
  C   C2105     1.0  0.78792  0.58632  0.86498  1.0000
  C   C2106     1.0  0.90311  0.45075  0.78844  1.0000
  C   C2107     1.0  0.97583  0.39364  0.92044  1.0000
  N   N209      1.0  0.96245  0.40398  0.90922  1.0000
  H   H3338     1.0  0.78156  0.58525  0.87956  1.0000
  C   C2108     1.0  0.87361  0.45039  0.78413  1.0000
  C   C2109     1.0  0.80111  0.53806  0.94405  1.0000
  C   C2110     1.0  0.88444  0.49033  0.74151  1.0000
  H   H3339     1.0  0.70234  0.55733  0.97084  1.0000
  C   C2111     1.0  0.98218  0.32228  0.85823  1.0000
  H   H3340     1.0  0.87895  0.44727  0.77042  1.0000
  H   H3341     1.0  0.98908  0.39798  0.91518  1.0000
  H   H3342     1.0  0.87466  0.46045  0.81414  1.0000
  H   H3343     1.0  0.93178  0.48392  0.83529  1.0000
  H   H3344     1.0  0.90334  0.41640  0.80449  1.0000
  H   H3345     1.0  0.93467  0.40550  0.90858  1.0000
  C   C2112     1.0  0.92743  0.41435  0.74548  1.0000
  C   C2113     1.0  0.67390  0.54842  0.96452  1.0000
  H   H3346     1.0  0.90014  0.46358  0.74862  1.0000
  H   H3347     1.0  0.86992  0.46539  0.78239  1.0000
  C   C2114     1.0  0.67682  0.57131  0.84150  1.0000
  H   H3348     1.0  0.95844  0.32865  0.79332  1.0000
  H   H3349     1.0  0.89815  0.41977  0.78271  1.0000
  H   H3350     1.0  0.93189  0.33334  0.76836  1.0000
  C   C2115     1.0  0.94512  0.39778  0.91663  1.0000
  H   H3351     1.0  0.98468  0.33619  0.85561  1.0000
  H   H3352     1.0  0.86673  0.43963  0.82026  1.0000
  C   C2116     1.0  0.87892  0.44572  0.81423  1.0000
  H   H3353     1.0  0.91022  0.44770  0.77499  1.0000
  H   H3354     1.0  0.86092  0.44509  0.78979  1.0000
  H   H3355     1.0  0.89939  0.46571  0.78681  1.0000
  C   C2117     1.0  0.81343  0.59320  0.84122  1.0000
  N   N210      1.0  0.80500  0.59296  0.86048  1.0000
  C   C2118     1.0  0.92305  0.39732  0.75235  1.0000
  H   H3356     1.0  0.83081  0.58524  0.86853  1.0000
  H   H3357     1.0  0.88871  0.43976  0.82339  1.0000
  S   S841      1.0  0.89388  0.32430  0.78742  1.0000
  C   C2119     1.0  0.95772  0.34024  0.78161  1.0000
  H   H3358     1.0  0.90861  0.46774  0.89917  1.0000
  S   S842      1.0  0.86925  0.49861  0.95543  1.0000
  C   C2120     1.0  0.89257  0.42274  0.79649  1.0000
  H   H3359     1.0  0.69559  0.56882  0.94014  1.0000
  H   H3360     1.0  0.90363  0.58225  0.75219  1.0000
  H   H3361     1.0  0.91319  0.48118  0.82726  1.0000
  H   H3362     1.0  0.93846  0.43491  0.75033  1.0000
  H   H3363     1.0  0.94677  0.38326  0.91645  1.0000
  H   H3364     1.0  0.98222  0.40604  0.88432  1.0000
  C   C2121     1.0  0.68210  0.57615  0.94634  1.0000
  H   H3365     1.0  0.88096  0.41582  0.80263  1.0000
  H   H3366     1.0  0.91177  0.53063  0.81388  1.0000
  H   H3367     1.0  0.96775  0.32344  0.85781  1.0000
  H   H3368     1.0  0.86225  0.37998  0.73324  1.0000
  S   S843      1.0  0.97252  0.54702  0.97195  1.0000
  H   H3369     1.0  0.91302  0.51082  0.80577  1.0000
  N   N211      1.0  0.96002  0.33412  0.76463  1.0000
  H   H3370     1.0  0.96910  0.35803  0.74822  1.0000
  H   H3371     1.0  0.95954  0.40820  0.88180  1.0000
  C   C2122     1.0  0.81758  0.58092  0.87183  1.0000
  H   H3372     1.0  0.90311  0.55007  0.96820  1.0000
  C   C2123     1.0  0.87588  0.61086  0.75207  1.0000
  C   C2124     1.0  0.95885  0.34991  0.74951  1.0000
  C   C2125     1.0  0.90236  0.59117  0.73877  1.0000
  H   H3373     1.0  0.91275  0.57341  0.97631  1.0000
  S   S844      1.0  0.93734  0.48773  0.88097  1.0000
  H   H3374     1.0  0.93198  0.51336  0.81340  1.0000
  C   C2126     1.0  0.91674  0.48708  0.83709  1.0000
  H   H3375     1.0  0.97849  0.37891  0.92066  1.0000
  H   H3376     1.0  0.79146  0.62086  0.85555  1.0000
  C   C2127     1.0  0.67285  0.56410  0.82870  1.0000
  H   H3377     1.0  0.87639  0.60212  0.76572  1.0000
  Fe  Fe422     1.0  0.73528  0.61387  0.84397  1.0000
  S   S845      1.0  0.71984  0.63127  0.86421  1.0000
  S   S846      1.0  0.76296  0.61668  0.82668  1.0000
  Fe  Fe423     1.0  0.70532  0.59341  0.85081  1.0000
  S   S847      1.0  0.68752  0.60854  0.87168  1.0000
  Fe  Fe424     1.0  0.69571  0.63324  0.85242  1.0000
  H   H3378     1.0  0.79950  0.52929  0.95779  1.0000
  Fe  Fe425     1.0  0.71291  0.60534  0.88178  1.0000
  S   S848      1.0  0.71137  0.59688  0.91193  1.0000
  S   S849      1.0  0.71174  0.61818  0.83068  1.0000
  S   S850      1.0  0.73010  0.58786  0.86249  1.0000
  Fe  Fe426     1.0  0.83995  0.54997  0.77918  1.0000
  S   S851      1.0  0.85191  0.57470  0.77017  1.0000
  S   S852      1.0  0.81267  0.54808  0.79757  1.0000
  Fe  Fe427     1.0  0.87678  0.55644  0.77842  1.0000
  S   S853      1.0  0.89245  0.56574  0.79342  1.0000
  S   S854      1.0  0.86421  0.53218  0.78955  1.0000
  Fe  Fe428     1.0  0.88159  0.53542  0.89297  1.0000
  S   S855      1.0  0.88620  0.50541  0.90305  1.0000
  S   S856      1.0  0.85950  0.54831  0.87694  1.0000
  Fe  Fe429     1.0  0.90866  0.53977  0.91319  1.0000
  S   S857      1.0  0.91570  0.51005  0.92467  1.0000
  S   S858      1.0  0.91722  0.56229  0.92012  1.0000
  Fe  Fe430     1.0  0.91567  0.50644  0.89697  1.0000
  Fe  Fe431     1.0  0.88575  0.51158  0.92965  1.0000
  H   H3379     1.0  0.94436  0.34940  0.78468  1.0000
  S   S859      1.0  0.91119  0.53626  0.88489  1.0000
  S   S860      1.0  0.87858  0.54148  0.92009  1.0000
  H   H3380     1.0  0.82058  0.56678  0.86987  1.0000
  H   H3381     1.0  0.88495  0.50515  0.82793  1.0000
  C   C2128     1.0  0.94307  0.54044  0.93906  1.0000
  H   H3382     1.0  0.88376  0.52501  0.83584  1.0000
  H   H3383     1.0  0.92985  0.51090  0.84646  1.0000
  N   N212      1.0  0.90952  0.50676  0.83463  1.0000
  H   H3384     1.0  0.79120  0.55098  0.94505  1.0000
  H   H3385     1.0  0.86935  0.62486  0.75390  1.0000
  Fe  Fe432     1.0  0.77936  0.58340  0.97263  1.0000
  S   S861      1.0  0.78187  0.58802  0.94236  1.0000
  H   H3386     1.0  0.91127  0.47996  0.85092  1.0000
  C   C2129     1.0  0.95543  0.53738  0.95038  1.0000
  H   H3387     1.0  0.91025  0.52879  0.84599  1.0000
  C   C2130     1.0  0.96943  0.40104  0.89056  1.0000
  N   N213      1.0  0.81988  0.54103  0.93731  1.0000
  H   H3388     1.0  0.94956  0.58009  0.95665  1.0000
  C   C2131     1.0  0.93308  0.55783  0.93404  1.0000
  C   C2132     1.0  0.95760  0.55158  0.95702  1.0000
  C   C2133     1.0  0.94774  0.56900  0.95185  1.0000
  C   C2134     1.0  0.93556  0.57210  0.94035  1.0000
  H   H3389     1.0  0.94141  0.52939  0.93411  1.0000
  H   H3390     1.0  0.92801  0.58562  0.93634  1.0000
  C   C2135     1.0  0.85986  0.51377  0.97009  1.0000
  C   C2136     1.0  0.86708  0.52902  0.96779  1.0000
  H   H3391     1.0  0.86681  0.60618  0.74609  1.0000
  H   H3392     1.0  0.96318  0.52391  0.95417  1.0000
  H   H3393     1.0  0.81205  0.56614  0.91950  1.0000
  H   H3394     1.0  0.87923  0.53091  0.95773  1.0000
  S   S862      1.0  0.88836  0.49782  0.75925  1.0000
  H   H3395     1.0  0.97213  0.38646  0.89010  1.0000
  C   C2137     1.0  0.90651  0.32792  0.80142  1.0000
  C   C2138     1.0  0.88221  0.56333  0.81646  1.0000
  C   C2139     1.0  0.89205  0.56392  0.82889  1.0000
  C   C2140     1.0  0.88485  0.55994  0.84750  1.0000
  C   C2141     1.0  0.86777  0.55544  0.85374  1.0000
  C   C2142     1.0  0.85749  0.55584  0.84128  1.0000
  C   C2143     1.0  0.86475  0.55968  0.82266  1.0000
  H   H3396     1.0  0.90546  0.56698  0.82417  1.0000
  H   H3397     1.0  0.89262  0.56020  0.85702  1.0000
  H   H3398     1.0  0.84429  0.55234  0.84599  1.0000
  H   H3399     1.0  0.85696  0.55941  0.81315  1.0000
  C   C2144     1.0  0.77694  0.59754  0.81884  1.0000
  C   C2145     1.0  0.79126  0.59971  0.80391  1.0000
  C   C2146     1.0  0.80264  0.58460  0.79748  1.0000
  C   C2147     1.0  0.79975  0.56725  0.80600  1.0000
  C   C2148     1.0  0.78569  0.56508  0.82115  1.0000
  C   C2149     1.0  0.77427  0.58016  0.82750  1.0000
  H   H3400     1.0  0.79343  0.61313  0.79716  1.0000
  H   H3401     1.0  0.81331  0.58643  0.78566  1.0000
  H   H3402     1.0  0.78353  0.55166  0.82790  1.0000
  H   H3403     1.0  0.76350  0.57828  0.83916  1.0000
  H   H3404     1.0  0.67262  0.57750  0.93738  1.0000
  H   H3405     1.0  0.79018  0.57276  0.86174  1.0000
  H   H3406     1.0  0.79714  0.53154  0.93500  1.0000
  H   H3407     1.0  0.81183  0.58081  0.88640  1.0000
  C   C2150     1.0  0.73108  0.59448  0.92019  1.0000
  C   C2151     1.0  0.73045  0.58914  0.93885  1.0000
  C   C2152     1.0  0.74591  0.58718  0.94583  1.0000
  C   C2153     1.0  0.76211  0.59056  0.93416  1.0000
  C   C2154     1.0  0.76279  0.59578  0.91550  1.0000
  C   C2155     1.0  0.74731  0.59777  0.90850  1.0000
  H   H3408     1.0  0.71795  0.58664  0.94796  1.0000
  H   H3409     1.0  0.74528  0.58309  0.96023  1.0000
  H   H3410     1.0  0.77523  0.59860  0.90653  1.0000
  H   H3411     1.0  0.74783  0.60204  0.89413  1.0000
  S   S863      1.0  0.69956  0.57176  0.84025  1.0000
  N   N214      1.0  0.87437  0.35179  0.73980  1.0000
  H   H3412     1.0  0.84876  0.35666  0.75818  1.0000
  C   C2156     1.0  0.94556  0.32437  0.76626  1.0000
  H   H3413     1.0  0.86186  0.33402  0.76270  1.0000
  H   H3414     1.0  0.81833  0.54659  0.90933  1.0000
  H   H3415     1.0  0.83549  0.55535  0.91381  1.0000
  N   N215      1.0  0.67563  0.56667  0.96491  1.0000
  H   H3416     1.0  0.94529  0.35904  0.75145  1.0000
  C   C2157     1.0  0.88954  0.51031  0.83763  1.0000
  C   C2158     1.0  0.83244  0.52345  0.93634  1.0000
  H   H3417     1.0  0.68362  0.55913  0.81824  1.0000
  H   H3418     1.0  0.80476  0.60304  0.83231  1.0000
  N   N216      1.0  0.74033  0.57616  0.79580  1.0000
  C   C2159     1.0  0.74201  0.56463  0.81371  1.0000
  C   C2160     1.0  0.72108  0.58472  0.79583  1.0000
  C   C2161     1.0  0.74720  0.56494  0.78192  1.0000
  C   C2162     1.0  0.75106  0.59032  0.79175  1.0000
  H   H3419     1.0  0.73782  0.57277  0.82443  1.0000
  H   H3420     1.0  0.75617  0.55716  0.81390  1.0000
  H   H3421     1.0  0.73324  0.55446  0.81771  1.0000
  H   H3422     1.0  0.71920  0.59339  0.78250  1.0000
  H   H3423     1.0  0.71248  0.57443  0.79928  1.0000
  H   H3424     1.0  0.71555  0.59333  0.80611  1.0000
  H   H3425     1.0  0.73944  0.55406  0.78468  1.0000
  H   H3426     1.0  0.76174  0.55834  0.78155  1.0000
  H   H3427     1.0  0.74613  0.57317  0.76821  1.0000
  H   H3428     1.0  0.74652  0.59879  0.80222  1.0000
  H   H3429     1.0  0.74985  0.59951  0.77850  1.0000
  H   H3430     1.0  0.76571  0.58432  0.79128  1.0000
  Fe  Fe433     1.0  0.87413  0.52646  0.76162  1.0000
  C   C2163     1.0  0.91486  0.51392  0.84779  1.0000
  H   H3431     1.0  0.86388  0.55397  0.97622  1.0000
  S   S864      1.0  0.84877  0.54241  0.75190  1.0000
  C   C2164     1.0  0.91692  0.51574  0.81610  1.0000
  H   H3432     1.0  0.77780  0.59560  0.85730  1.0000
  C   C2165     1.0  0.80104  0.61147  0.86386  1.0000
  H   H3433     1.0  0.83162  0.51422  0.94983  1.0000
  H   H3434     1.0  0.83881  0.55155  0.94547  1.0000
  H   H3435     1.0  0.82949  0.51651  0.92698  1.0000
  H   H3436     1.0  0.84675  0.52507  0.93146  1.0000
  Fe  Fe434     1.0  0.86319  0.56574  0.74367  1.0000
  H   H3437     1.0  0.81565  0.56335  0.95030  1.0000
  H   H3438     1.0  0.82279  0.54163  0.96365  1.0000
  S   S865      1.0  0.88918  0.54919  0.75137  1.0000
  H   H3439     1.0  0.90892  0.50796  0.86192  1.0000
  H   H3440     1.0  0.97735  0.32178  0.82548  1.0000
  H   H3441     1.0  0.89206  0.32595  0.74452  1.0000
  H   H3442     1.0  0.98917  0.32908  0.75927  1.0000
  C   C2166     1.0  0.82450  0.54978  0.94970  1.0000
  H   H3443     1.0  0.92196  0.53416  0.97589  1.0000
  H   H3444     1.0  0.88346  0.50398  0.85158  1.0000
  C   C2167     1.0  0.86275  0.34851  0.75799  1.0000
  H   H3445     1.0  0.91958  0.61624  0.74016  1.0000
  H   H3446     1.0  0.66403  0.54895  0.95625  1.0000
  H   H3447     1.0  0.68717  0.54025  0.95893  1.0000
  H   H3448     1.0  0.86830  0.35203  0.76813  1.0000
  C   C2168     1.0  0.68877  0.56518  0.97616  1.0000
  H   H3449     1.0  0.89987  0.63095  0.75012  1.0000
  H   H3450     1.0  0.97217  0.42868  0.90353  1.0000
  H   H3451     1.0  0.90692  0.60841  0.76227  1.0000
  H   H3452     1.0  0.82687  0.59713  0.83759  1.0000
  C   C2169     1.0  0.89174  0.47243  0.73960  1.0000
  H   H3453     1.0  0.93952  0.39957  0.93079  1.0000
  H   H3454     1.0  0.81557  0.57972  0.83782  1.0000
  H   H3455     1.0  0.97103  0.39548  0.93466  1.0000
  H   H3456     1.0  0.95418  0.42617  0.92309  1.0000
  C   C2170     1.0  0.87569  0.37099  0.73440  1.0000
  H   H3457     1.0  0.94937  0.43159  0.90094  1.0000
  H   H3458     1.0  0.69059  0.57869  0.97664  1.0000
  H   H3459     1.0  0.66915  0.54094  0.97834  1.0000
  N   N217      1.0  0.89418  0.61005  0.74043  1.0000
  H   H3460     1.0  0.96834  0.34771  0.78091  1.0000
  C   C2171     1.0  0.97794  0.32197  0.76115  1.0000
  H   H3461     1.0  0.96097  0.34573  0.73643  1.0000
  S   S866      1.0  0.91445  0.38726  0.73970  1.0000
  H   H3462     1.0  0.66599  0.58251  0.86536  1.0000
  C   C2172     1.0  0.90750  0.54054  0.98030  1.0000
  C   C2173     1.0  0.66282  0.57747  0.85516  1.0000
  C   C2174     1.0  0.99147  0.32119  0.82656  1.0000
  H   H3463     1.0  0.99366  0.33530  0.82310  1.0000
  S   S867      1.0  0.79793  0.59480  0.98245  1.0000
  H   H3464     1.0  0.89393  0.58573  0.73279  1.0000
  H   H3465     1.0  0.96644  0.73176  0.05467  1.0000
  C   C2175     1.0  0.94865  0.71067  0.16059  1.0000
  S   S868      1.0  0.80558  0.67022  0.07730  1.0000
  H   H3466     1.0  0.98661  0.88562  0.13321  1.0000
  Fe  Fe435     1.0  0.82792  0.67686  0.08624  1.0000
  S   S869      1.0  0.82478  0.70509  0.09048  1.0000
  S   S870      1.0  0.97733  0.69633  0.08578  1.0000
  H   H3467     1.0  0.88660  0.69088  0.10109  1.0000
  C   C2176     1.0  0.95357  0.69304  0.17009  1.0000
  C   C2177     1.0  0.87391  0.70057  0.10170  1.0000
  C   C2178     1.0  0.97466  0.68504  0.14322  1.0000
  H   H3468     1.0  0.78364  0.70532  0.10767  1.0000
  C   C2179     1.0  0.85931  0.69673  0.09698  1.0000
  C   C2180     1.0  0.84296  0.70932  0.09722  1.0000
  H   H3469     1.0  0.86082  0.68417  0.09281  1.0000
  H   H3470     1.0  0.76840  0.71855  0.13471  1.0000
  C   C2181     1.0  0.87220  0.71686  0.10702  1.0000
  N   N218      1.0  0.86173  0.97711  0.01249  1.0000
  H   H3471     1.0  0.94185  0.68460  0.09474  1.0000
  S   S871      1.0  0.93126  0.72596  0.17135  1.0000
  C   C2182     1.0  0.98512  0.92010  0.11628  1.0000
  C   C2183     1.0  0.80053  0.80986  0.22499  1.0000
  H   H3472     1.0  0.92770  0.66862  0.09893  1.0000
  H   H3473     1.0  0.89178  0.98217  0.15847  1.0000
  S   S872      1.0  0.89138  0.72133  0.11173  1.0000
  H   H3474     1.0  0.78438  0.67256  0.16054  1.0000
  N   N219      1.0  0.93063  0.67559  0.12279  1.0000
  H   H3475     1.0  0.79535  0.66312  0.14087  1.0000
  H   H3476     1.0  0.97097  0.92328  0.11423  1.0000
  H   H3477     1.0  0.81326  0.68728  0.12936  1.0000
  H   H3478     1.0  0.83490  0.97748  0.00977  1.0000
  C   C2184     1.0  0.78374  0.67327  0.14634  1.0000
  H   H3479     1.0  0.98829  0.77366  0.09034  1.0000
  N   N220      1.0  0.78414  0.69161  0.13523  1.0000
  H   H3480     1.0  0.98482  0.66859  0.02970  1.0000
  H   H3481     1.0  0.82851  0.73537  0.10286  1.0000
  C   C2185     1.0  0.76846  0.70460  0.14284  1.0000
  H   H3482     1.0  0.94708  0.68918  0.18408  1.0000
  H   H3483     1.0  0.85190  0.95883  0.00280  1.0000
  C   C2186     1.0  0.84113  0.72556  0.10270  1.0000
  H   H3484     1.0  0.80236  0.69689  0.14893  1.0000
  H   H3485     1.0  0.94491  0.69664  0.11960  1.0000
  H   H3486     1.0  0.97711  0.70678  0.12002  1.0000
  C   C2187     1.0  0.96647  0.68022  0.16139  1.0000
  H   H3487     1.0  0.88305  0.66541  0.03465  1.0000
  C   C2188     1.0  0.95730  0.71569  0.14256  1.0000
  H   H3488     1.0  0.75543  0.70107  0.14304  1.0000
  H   H3489     1.0  0.80684  0.77661  0.21803  1.0000
  C   C2189     1.0  0.97040  0.70289  0.13389  1.0000
  S   S873      1.0  0.95934  0.66708  0.06403  1.0000
  H   H3490     1.0  0.97868  0.78891  0.07220  1.0000
  H   H3491     1.0  0.77120  0.66882  0.14650  1.0000
  H   H3492     1.0  0.95410  0.72948  0.13543  1.0000
  C   C2190     1.0  0.84742  0.96767  0.01290  1.0000
  C   C2191     1.0  0.98765  0.86842  0.08063  1.0000
  H   H3493     1.0  0.93175  0.97180  0.13495  1.0000
  H   H3494     1.0  0.80204  0.71044  0.12659  1.0000
  C   C2192     1.0  0.91384  0.66992  0.13391  1.0000
  C   C2193     1.0  0.86393  0.79240  0.22017  1.0000
  S   S874      1.0  0.92559  0.98080  0.16976  1.0000
  H   H3495     1.0  0.88929  0.97058  0.01597  1.0000
  C   C2194     1.0  0.94643  0.66073  0.12542  1.0000
  H   H3496     1.0  0.79490  0.68220  0.11050  1.0000
  C   C2195     1.0  0.85569  0.72929  0.10772  1.0000
  C   C2196     1.0  0.78321  0.69176  0.11658  1.0000
  C   C2197     1.0  0.80115  0.69678  0.13511  1.0000
  H   H3497     1.0  0.84365  0.95904  0.02642  1.0000
  H   H3498     1.0  0.85428  0.74192  0.11171  1.0000
  C   C2198     1.0  0.85937  0.79077  0.18606  1.0000
  Fe  Fe436     1.0  0.91239  0.89092  0.10609  1.0000
  S   S875      1.0  0.94146  0.88325  0.10845  1.0000
  S   S876      1.0  0.89459  0.87038  0.11517  1.0000
  Fe  Fe437     1.0  0.91286  0.93116  0.09392  1.0000
  S   S877      1.0  0.94224  0.92674  0.09478  1.0000
  S   S878      1.0  0.89496  0.95906  0.09060  1.0000
  Fe  Fe438     1.0  0.94601  0.90295  0.08209  1.0000
  H   H3499     1.0  0.95926  0.66461  0.11703  1.0000
  Fe  Fe439     1.0  0.93533  0.90748  0.12086  1.0000
  S   S879      1.0  0.94487  0.90565  0.14612  1.0000
  S   S880      1.0  0.91703  0.90910  0.07870  1.0000
  S   S881      1.0  0.90574  0.91343  0.12109  1.0000
  S   S882      1.0  0.92901  0.79203  0.09966  1.0000
  N   N221      1.0  0.94599  0.74967  0.06973  1.0000
  S   S883      1.0  0.89320  0.95609  0.20427  1.0000
  H   H3500     1.0  0.87141  0.83049  0.17203  1.0000
  H   H3501     1.0  0.91602  0.83359  0.14047  1.0000
  C   C2199     1.0  0.87321  0.77758  0.21220  1.0000
  C   C2200     1.0  0.88316  0.82850  0.16066  1.0000
  C   C2201     1.0  0.99222  0.80754  0.08798  1.0000
  C   C2202     1.0  0.90398  0.84944  0.10869  1.0000
  C   C2203     1.0  0.89344  0.83621  0.11388  1.0000
  C   C2204     1.0  0.90111  0.81867  0.11097  1.0000
  C   C2205     1.0  0.91925  0.81435  0.10231  1.0000
  C   C2206     1.0  0.92966  0.82775  0.09640  1.0000
  C   C2207     1.0  0.92207  0.84526  0.09971  1.0000
  H   H3502     1.0  0.87934  0.83944  0.12044  1.0000
  H   H3503     1.0  0.89290  0.80852  0.11543  1.0000
  H   H3504     1.0  0.94366  0.82453  0.08961  1.0000
  H   H3505     1.0  0.93025  0.85545  0.09547  1.0000
  C   C2208     1.0  0.94066  0.92663  0.15227  1.0000
  C   C2209     1.0  0.93954  0.92722  0.17025  1.0000
  C   C2210     1.0  0.93506  0.94387  0.17562  1.0000
  C   C2211     1.0  0.93219  0.95998  0.16292  1.0000
  C   C2212     1.0  0.93377  0.95940  0.14484  1.0000
  C   C2213     1.0  0.93765  0.94273  0.13959  1.0000
  H   H3506     1.0  0.94183  0.91481  0.18013  1.0000
  H   H3507     1.0  0.93404  0.94422  0.18958  1.0000
  C   C2214     1.0  0.92604  0.75359  0.07572  1.0000
  H   H3508     1.0  0.93837  0.94242  0.12571  1.0000
  H   H3509     1.0  0.88162  0.81747  0.15487  1.0000
  C   C2215     1.0  0.95200  0.76614  0.05831  1.0000
  C   C2216     1.0  0.90996  0.96617  0.05422  1.0000
  C   C2217     1.0  0.89720  0.97239  0.06862  1.0000
  C   C2218     1.0  0.81431  0.77814  0.22773  1.0000
  C   C2219     1.0  0.85254  0.80655  0.21089  1.0000
  Fe  Fe440     1.0  0.89130  0.74311  0.12609  1.0000
  H   H3510     1.0  0.91875  0.95300  0.05652  1.0000
  S   S884      1.0  0.96999  0.89781  0.05928  1.0000
  H   H3511     1.0  0.95085  0.75449  0.09376  1.0000
  H   H3512     1.0  0.87830  0.76530  0.18912  1.0000
  C   C2220     1.0  0.87105  0.77681  0.19514  1.0000
  Fe  Fe441     1.0  0.98286  0.67524  0.06922  1.0000
  H   H3513     1.0  0.91455  0.81034  0.14494  1.0000
  H   H3514     1.0  0.91508  0.83649  0.17845  1.0000
  C   C2221     1.0  0.85006  0.80559  0.19402  1.0000
  S   S885      1.0  0.98930  0.66823  0.13229  1.0000
  H   H3515     1.0  0.90964  0.90256  0.18482  1.0000
  H   H3516     1.0  0.89033  0.89869  0.20272  1.0000
  H   H3517     1.0  0.88212  0.76662  0.21924  1.0000
  H   H3518     1.0  0.85699  0.93432  0.17955  1.0000
  Fe  Fe442     1.0  0.87868  0.77135  0.14967  1.0000
  H   H3519     1.0  0.89534  0.94201  0.17091  1.0000
  H   H3520     1.0  0.90514  0.92569  0.15686  1.0000
  H   H3521     1.0  0.87212  0.91086  0.16061  1.0000
  S   S886      1.0  0.90683  0.77384  0.14895  1.0000
  H   H3522     1.0  0.88317  0.93938  0.15536  1.0000
  H   H3523     1.0  0.87546  0.95535  0.03048  1.0000
  H   H3524     1.0  0.88334  0.95457  0.00690  1.0000
  C   C2222     1.0  0.95456  0.74379  0.08564  1.0000
  H   H3525     1.0  0.89417  0.89765  0.16311  1.0000
  H   H3526     1.0  0.97972  0.81569  0.08325  1.0000
  C   C2223     1.0  0.90210  0.83932  0.17379  1.0000
  C   C2224     1.0  0.88110  0.90456  0.17052  1.0000
  H   H3527     1.0  0.97664  0.87146  0.09162  1.0000
  C   C2225     1.0  0.86631  0.92683  0.18886  1.0000
  S   S887      1.0  0.88290  0.77345  0.11956  1.0000
  H   H3528     1.0  0.87471  0.89400  0.18077  1.0000
  Fe  Fe443     1.0  0.91158  0.77378  0.11957  1.0000
  C   C2226     1.0  0.91573  0.82115  0.15121  1.0000
  H   H3529     1.0  0.82764  0.78119  0.21981  1.0000
  C   C2227     1.0  0.90122  0.80762  0.18100  1.0000
  H   H3530     1.0  0.94583  0.77102  0.04615  1.0000
  H   H3531     1.0  0.84111  0.81648  0.18695  1.0000
  H   H3532     1.0  0.96702  0.76360  0.05359  1.0000
  Fe  Fe444     1.0  0.87132  0.97612  0.21722  1.0000
  H   H3533     1.0  0.91432  0.80359  0.18560  1.0000
  H   H3534     1.0  0.84753  0.91949  0.23117  1.0000
  H   H3535     1.0  0.93459  0.68820  0.14252  1.0000
  H   H3536     1.0  0.89870  0.91895  0.19855  1.0000
  C   C2228     1.0  0.91141  0.97704  0.03679  1.0000
  S   S888      1.0  0.85633  0.79010  0.16475  1.0000
  C   C2229     1.0  0.99169  0.78187  0.07650  1.0000
  H   H3537     1.0  0.94542  0.73928  0.04699  1.0000
  H   H3538     1.0  0.84564  0.81821  0.21669  1.0000
  Fe  Fe445     1.0  0.91039  0.97646  0.19849  1.0000
  H   H3539     1.0  0.79276  0.82094  0.23221  1.0000
  N   N222      1.0  0.88395  0.91815  0.17905  1.0000
  C   C2230     1.0  0.89222  0.93196  0.16495  1.0000
  S   S889      1.0  0.92100  0.96550  0.22419  1.0000
  C   C2231     1.0  0.98762  0.87897  0.06330  1.0000
  C   C2232     1.0  0.89618  0.90917  0.19182  1.0000
  H   H3540     1.0  0.89083  0.84192  0.18548  1.0000
  H   H3541     1.0  0.88205  0.84112  0.15012  1.0000
  S   S890      1.0  0.85000  0.66075  0.06850  1.0000
  H   H3542     1.0  0.89953  0.79603  0.17624  1.0000
  H   H3543     1.0  0.90466  0.67185  0.02913  1.0000
  H   H3544     1.0  0.85934  0.91665  0.19903  1.0000
  Fe  Fe446     1.0  0.91324  0.74378  0.15294  1.0000
  H   H3545     1.0  0.86795  0.93663  0.19615  1.0000
  H   H3546     1.0  0.97350  0.89062  0.11624  1.0000
  S   S891      1.0  0.88462  0.74093  0.15623  1.0000
  H   H3547     1.0  0.89440  0.67059  0.01147  1.0000
  H   H3548     1.0  0.96990  0.66649  0.16870  1.0000
  H   H3549     1.0  0.92090  0.70272  0.12730  1.0000
  H   H3550     1.0  0.99102  0.93228  0.10967  1.0000
  N   N223      1.0  0.90056  0.82413  0.16667  1.0000
  H   H3551     1.0  0.90161  0.85199  0.16326  1.0000
  H   H3552     1.0  0.94807  0.65706  0.13971  1.0000
  H   H3553     1.0  0.89023  0.80955  0.19304  1.0000
  H   H3554     1.0  0.92905  0.81712  0.15535  1.0000
  H   H3555     1.0  0.90172  0.68096  0.13214  1.0000
  C   C2233     1.0  0.92941  0.68030  0.10355  1.0000
  H   H3556     1.0  0.96960  0.74064  0.08161  1.0000
  H   H3557     1.0  0.79264  0.80918  0.21526  1.0000
  S   S892      1.0  0.92043  0.74385  0.12356  1.0000
  C   C2234     1.0  0.89659  0.66404  0.02535  1.0000
  S   S893      1.0  0.84450  0.97642  0.21166  1.0000
  C   C2235     1.0  0.98755  0.88832  0.11835  1.0000
  H   H3558     1.0  0.92098  0.74149  0.08448  1.0000
  H   H3559     1.0  0.91779  0.69158  0.10099  1.0000
  H   H3560     1.0  0.95033  0.73142  0.09464  1.0000
  H   H3561     1.0  0.77075  0.68759  0.11607  1.0000
  H   H3562     1.0  0.94803  0.77733  0.06586  1.0000
  C   C2236     1.0  0.87814  0.96378  0.01665  1.0000
  C   C2237     1.0  0.95143  0.73520  0.05924  1.0000
  C   C2238     1.0  0.93287  0.69148  0.12827  1.0000
  H   H3563     1.0  0.94692  0.72263  0.06740  1.0000
  H   H3564     1.0  0.91912  0.75806  0.06407  1.0000
  H   H3565     1.0  0.98246  0.90971  0.08669  1.0000
  H   H3566     1.0  0.92144  0.76454  0.08361  1.0000
  S   S894      1.0  0.66814  0.65682  0.20251  1.0000
  C   C2239     1.0  0.97784  0.65771  0.03167  1.0000
  H   H3567     1.0  0.76868  0.70483  0.15694  1.0000
  H   H3568     1.0  0.82258  0.97898  0.18661  1.0000
  H   H3569     1.0  0.91164  0.65797  0.13015  1.0000
  H   H3570     1.0  0.98808  0.80028  0.10210  1.0000
  Fe  Fe447     1.0  0.90143  0.94692  0.23087  1.0000
  H   H3571     1.0  0.91426  0.66638  0.14853  1.0000
  H   H3572     1.0  0.92132  0.97215  0.02569  1.0000
  H   H3573     1.0  0.98421  0.91790  0.13111  1.0000
  H   H3574     1.0  0.81343  0.81384  0.21701  1.0000
  H   H3575     1.0  0.87095  0.98027  0.98369  1.0000
  H   H3576     1.0  0.85189  0.98059  0.03997  1.0000
  H   H3577     1.0  0.87793  0.98365  0.12495  1.0000
  H   H3578     1.0  0.90124  0.97978  0.12642  1.0000
  C   C2240     1.0  0.96485  0.65403  0.04741  1.0000
  S   S895      1.0  0.82800  0.65457  0.11075  1.0000
  H   H3579     1.0  0.87224  0.93308  0.23271  1.0000
  C   C2241     1.0  0.69399  0.69789  0.31485  1.0000
  C   C2242     1.0  0.70357  0.70548  0.29813  1.0000
  C   C2243     1.0  0.77866  0.75311  0.34283  1.0000
  H   H3580     1.0  0.69805  0.89069  0.39635  1.0000
  S   S896      1.0  0.69337  0.70515  0.33460  1.0000
  C   C2244     1.0  0.70393  0.69954  0.28254  1.0000
  H   H3581     1.0  0.94386  0.98287  0.32445  1.0000
  H   H3582     1.0  0.74789  0.74230  0.36183  1.0000
  C   C2245     1.0  0.68458  0.68445  0.31584  1.0000
  C   C2246     1.0  0.68477  0.67864  0.30017  1.0000
  C   C2247     1.0  0.69459  0.68610  0.28349  1.0000
  C   C2248     1.0  0.94069  0.96912  0.35228  1.0000
  H   H3583     1.0  0.76373  0.73020  0.33414  1.0000
  S   S897      1.0  0.69575  0.67900  0.26352  1.0000
  C   C2249     1.0  0.76026  0.73596  0.36754  1.0000
  H   H3584     1.0  0.71163  0.70528  0.26968  1.0000
  C   C2250     1.0  0.83489  0.79433  0.45101  1.0000
  Fe  Fe448     1.0  0.70138  0.73184  0.33099  1.0000
  H   H3585     1.0  0.68658  0.91455  0.43462  1.0000
  H   H3586     1.0  0.71109  0.71561  0.29723  1.0000
  S   S898      1.0  0.72450  0.73575  0.34071  1.0000
  C   C2251     1.0  0.78645  0.78781  0.24819  1.0000
  H   H3587     1.0  0.76641  0.76026  0.33710  1.0000
  H   H3588     1.0  0.96883  0.89763  0.37353  1.0000
  H   H3589     1.0  0.78056  0.76147  0.35151  1.0000
  H   H3590     1.0  0.76070  0.74429  0.37698  1.0000
  H   H3591     1.0  0.75836  0.72242  0.37565  1.0000
  C   C2252     1.0  0.77546  0.72386  0.34084  1.0000
  N   N224      1.0  0.77679  0.73478  0.35315  1.0000
  H   H3592     1.0  0.79049  0.75269  0.33133  1.0000
  H   H3593     1.0  0.77663  0.81809  0.47750  1.0000
  C   C2253     1.0  0.78513  0.80437  0.48083  1.0000
  H   H3594     1.0  0.79407  0.73418  0.37080  1.0000
  Fe  Fe449     1.0  0.84111  0.85525  0.25492  1.0000
  S   S899      1.0  0.86434  0.83388  0.26351  1.0000
  C   C2254     1.0  0.93623  0.97444  0.33524  1.0000
  Fe  Fe450     1.0  0.84539  0.82962  0.29056  1.0000
  H   H3595     1.0  0.80753  0.80536  0.25740  1.0000
  S   S900      1.0  0.82310  0.85237  0.28239  1.0000
  H   H3596     1.0  0.77809  0.78646  0.23921  1.0000
  Fe  Fe451     1.0  0.90228  0.88294  0.34452  1.0000
  S   S901      1.0  0.87734  0.90380  0.35128  1.0000
  S   S902      1.0  0.90659  0.87208  0.31952  1.0000
  Fe  Fe452     1.0  0.91858  0.88574  0.37506  1.0000
  S   S903      1.0  0.89510  0.90724  0.38384  1.0000
  S   S904      1.0  0.94250  0.87432  0.38876  1.0000
  Fe  Fe453     1.0  0.87828  0.88970  0.38001  1.0000
  S   S905      1.0  0.85583  0.88195  0.40297  1.0000
  Fe  Fe454     1.0  0.89683  0.91899  0.35437  1.0000
  S   S906      1.0  0.89641  0.94798  0.34049  1.0000
  S   S907      1.0  0.90163  0.86740  0.37295  1.0000
  S   S908      1.0  0.92180  0.89900  0.34572  1.0000
  H   H3597     1.0  0.73749  0.79446  0.29755  1.0000
  H   H3598     1.0  0.74651  0.77631  0.40983  1.0000
  Fe  Fe455     1.0  0.77751  0.79963  0.40271  1.0000
  S   S909      1.0  0.75988  0.82600  0.40819  1.0000
  S   S910      1.0  0.77518  0.78785  0.38018  1.0000
  Fe  Fe456     1.0  0.80366  0.80004  0.42587  1.0000
  S   S911      1.0  0.78853  0.82666  0.43267  1.0000
  S   S912      1.0  0.82862  0.78441  0.43642  1.0000
  Fe  Fe457     1.0  0.76394  0.81510  0.43675  1.0000
  S   S913      1.0  0.74271  0.81594  0.46232  1.0000
  Fe  Fe458     1.0  0.78616  0.83482  0.40355  1.0000
  S   S914      1.0  0.79288  0.85910  0.38274  1.0000
  S   S915      1.0  0.77926  0.78772  0.43169  1.0000
  S   S916      1.0  0.80359  0.80915  0.39645  1.0000
  S   S917      1.0  0.78338  0.83144  0.28152  1.0000
  C   C2255     1.0  0.79280  0.72624  0.36137  1.0000
  C   C2256     1.0  0.85969  0.91087  0.23525  1.0000
  C   C2257     1.0  0.78252  0.77799  0.29619  1.0000
  C   C2258     1.0  0.84979  0.89171  0.31213  1.0000
  C   C2259     1.0  0.84508  0.90745  0.28237  1.0000
  H   H3599     1.0  0.87933  0.91174  0.27761  1.0000
  H   H3600     1.0  0.66857  0.77068  0.37513  1.0000
  H   H3601     1.0  0.86038  0.85299  0.46352  1.0000
  H   H3602     1.0  0.84826  0.89457  0.27748  1.0000
  C   C2260     1.0  0.93825  0.87581  0.41157  1.0000
  C   C2261     1.0  0.95043  0.86543  0.42257  1.0000
  C   C2262     1.0  0.94740  0.86706  0.44066  1.0000
  C   C2263     1.0  0.93234  0.87932  0.44760  1.0000
  C   C2264     1.0  0.92043  0.88987  0.43650  1.0000
  C   C2265     1.0  0.92326  0.88798  0.41865  1.0000
  H   H3603     1.0  0.74803  0.82336  0.28947  1.0000
  H   H3604     1.0  0.90891  0.89955  0.44177  1.0000
  H   H3605     1.0  0.91407  0.89635  0.41031  1.0000
  C   C2266     1.0  0.91335  0.95605  0.34522  1.0000
  C   C2267     1.0  0.92221  0.96842  0.33190  1.0000
  H   H3606     1.0  0.82809  0.79675  0.24308  1.0000
  H   H3607     1.0  0.91864  0.97299  0.31878  1.0000
  S   S918      1.0  0.68125  0.75195  0.34577  1.0000
  C   C2268     1.0  0.83800  0.87669  0.39687  1.0000
  C   C2269     1.0  0.83799  0.87751  0.37879  1.0000
  C   C2270     1.0  0.82379  0.87262  0.37438  1.0000
  C   C2271     1.0  0.80980  0.86663  0.38807  1.0000
  C   C2272     1.0  0.80985  0.86582  0.40610  1.0000
  C   C2273     1.0  0.82387  0.87095  0.41048  1.0000
  H   H3608     1.0  0.84893  0.88184  0.36825  1.0000
  H   H3609     1.0  0.82384  0.87312  0.36042  1.0000
  H   H3610     1.0  0.79893  0.86150  0.41668  1.0000
  H   H3611     1.0  0.82382  0.87036  0.42447  1.0000
  C   C2274     1.0  0.86561  0.83983  0.31894  1.0000
  C   C2275     1.0  0.86479  0.84587  0.33460  1.0000
  C   C2276     1.0  0.87746  0.85567  0.33495  1.0000
  C   C2277     1.0  0.89104  0.85927  0.31972  1.0000
  C   C2278     1.0  0.89185  0.85321  0.30412  1.0000
  C   C2279     1.0  0.87908  0.84364  0.30368  1.0000
  H   H3612     1.0  0.85411  0.84334  0.34627  1.0000
  H   H3613     1.0  0.87664  0.86069  0.34684  1.0000
  H   H3614     1.0  0.90235  0.85599  0.29230  1.0000
  H   H3615     1.0  0.96212  0.85600  0.41716  1.0000
  H   H3616     1.0  0.98891  0.92836  0.36580  1.0000
  H   H3617     1.0  0.84714  0.76879  0.46570  1.0000
  H   H3618     1.0  0.80553  0.72529  0.35089  1.0000
  H   H3619     1.0  0.97127  0.94297  0.37817  1.0000
  H   H3620     1.0  0.66290  0.76812  0.39907  1.0000
  H   H3621     1.0  0.79858  0.80418  0.47154  1.0000
  C   C2280     1.0  0.87372  0.91858  0.23609  1.0000
  H   H3622     1.0  0.89215  0.94757  0.30115  1.0000
  H   H3623     1.0  0.85284  0.87842  0.30810  1.0000
  S   S919      1.0  0.70506  0.76173  0.38040  1.0000
  C   C2281     1.0  0.92733  0.93426  0.30114  1.0000
  H   H3624     1.0  0.90258  0.96568  0.30040  1.0000
  H   H3625     1.0  0.94067  0.92561  0.29663  1.0000
  C   C2282     1.0  0.73189  0.83773  0.46576  1.0000
  C   C2283     1.0  0.73933  0.85273  0.45607  1.0000
  C   C2284     1.0  0.73040  0.87005  0.45903  1.0000
  H   H3626     1.0  0.94925  0.93032  0.40380  1.0000
  H   H3627     1.0  0.66740  0.83378  0.34384  1.0000
  H   H3628     1.0  0.75195  0.85099  0.44631  1.0000
  H   H3629     1.0  0.73615  0.88165  0.45147  1.0000
  C   C2285     1.0  0.85079  0.92337  0.30238  1.0000
  H   H3630     1.0  0.84860  0.91821  0.27047  1.0000
  C   C2286     1.0  0.84877  0.79095  0.47648  1.0000
  H   H3631     1.0  0.89505  0.96480  0.28094  1.0000
  H   H3632     1.0  0.83016  0.91074  0.28738  1.0000
  H   H3633     1.0  0.67978  0.80981  0.32594  1.0000
  C   C2287     1.0  0.87505  0.84869  0.45776  1.0000
  H   H3634     1.0  0.83331  0.83529  0.45962  1.0000
  C   C2288     1.0  0.75401  0.78347  0.38084  1.0000
  C   C2289     1.0  0.74920  0.78455  0.36451  1.0000
  C   C2290     1.0  0.73387  0.77843  0.36438  1.0000
  H   H3635     1.0  0.87854  0.88823  0.28459  1.0000
  C   C2291     1.0  0.72736  0.77115  0.39701  1.0000
  C   C2292     1.0  0.74284  0.77719  0.39716  1.0000
  H   H3636     1.0  0.75759  0.78973  0.35186  1.0000
  S   S920      1.0  0.66216  0.78984  0.31151  1.0000
  H   H3637     1.0  0.86050  0.79597  0.38640  1.0000
  H   H3638     1.0  0.77830  0.79837  0.25592  1.0000
  S   S921      1.0  0.70621  0.75151  0.30469  1.0000
  H   H3639     1.0  0.71905  0.76574  0.40961  1.0000
  S   S922      1.0  0.75733  0.75727  0.30240  1.0000
  H   H3640     1.0  0.70893  0.88612  0.43253  1.0000
  C   C2293     1.0  0.83630  0.82076  0.46100  1.0000
  S   S923      1.0  0.92713  0.88130  0.47024  1.0000
  H   H3641     1.0  0.88518  0.88028  0.45178  1.0000
  N   N225      1.0  0.68384  0.89322  0.42332  1.0000
  H   H3642     1.0  0.92611  0.96635  0.26265  1.0000
  H   H3643     1.0  0.78844  0.77482  0.25814  1.0000
  H   H3644     1.0  0.70296  0.90803  0.40452  1.0000
  S   S924      1.0  0.86682  0.79270  0.24171  1.0000
  C   C2294     1.0  0.70644  0.85743  0.48105  1.0000
  N   N226      1.0  0.97270  0.91461  0.38936  1.0000
  H   H3645     1.0  0.67470  0.87343  0.41503  1.0000
  C   C2295     1.0  0.71559  0.84008  0.47845  1.0000
  H   H3646     1.0  0.87990  0.83893  0.29161  1.0000
  H   H3647     1.0  0.73076  0.77876  0.35167  1.0000
  H   H3648     1.0  0.81715  0.76484  0.23703  1.0000
  C   C2296     1.0  0.75167  0.79435  0.29619  1.0000
  S   S925      1.0  0.84949  0.82790  0.31854  1.0000
  H   H3649     1.0  0.79188  0.71235  0.36920  1.0000
  C   C2297     1.0  0.76414  0.77795  0.29819  1.0000
  C   C2298     1.0  0.93157  0.95787  0.27460  1.0000
  S   S926      1.0  0.83434  0.80853  0.28441  1.0000
  H   H3650     1.0  0.91486  0.85005  0.46710  1.0000
  C   C2299     1.0  0.72308  0.77138  0.38059  1.0000
  H   H3651     1.0  0.93481  0.95301  0.37902  1.0000
  H   H3652     1.0  0.67758  0.66821  0.30104  1.0000
  Fe  Fe459     1.0  0.81327  0.83162  0.27440  1.0000
  C   C2300     1.0  0.97757  0.89750  0.38284  1.0000
  C   C2301     1.0  0.84399  0.78330  0.46444  1.0000
  H   H3653     1.0  0.66839  0.72567  0.28845  1.0000
  N   N227      1.0  0.78996  0.83295  0.34033  1.0000
  C   C2302     1.0  0.80062  0.81441  0.34007  1.0000
  C   C2303     1.0  0.77527  0.83279  0.35659  1.0000
  C   C2304     1.0  0.78202  0.83985  0.32403  1.0000
  C   C2305     1.0  0.80194  0.84474  0.34062  1.0000
  H   H3654     1.0  0.81206  0.81412  0.32812  1.0000
  H   H3655     1.0  0.79203  0.80518  0.33965  1.0000
  H   H3656     1.0  0.80651  0.80865  0.35237  1.0000
  H   H3657     1.0  0.76708  0.84658  0.35737  1.0000
  H   H3658     1.0  0.76596  0.82400  0.35686  1.0000
  H   H3659     1.0  0.78083  0.82756  0.36909  1.0000
  H   H3660     1.0  0.77390  0.85382  0.32370  1.0000
  H   H3661     1.0  0.77299  0.83120  0.32328  1.0000
  H   H3662     1.0  0.79274  0.84010  0.31152  1.0000
  H   H3663     1.0  0.80886  0.83938  0.35228  1.0000
  H   H3664     1.0  0.79421  0.85861  0.34183  1.0000
  H   H3665     1.0  0.81267  0.84587  0.32813  1.0000
  Fe  Fe460     1.0  0.85092  0.81514  0.25632  1.0000
  Fe  Fe461     1.0  0.72790  0.75723  0.31553  1.0000
  S   S927      1.0  0.84331  0.88307  0.23844  1.0000
  H   H3666     1.0  0.83603  0.92736  0.30794  1.0000
  H   H3667     1.0  0.83504  0.89480  0.31804  1.0000
  H   H3668     1.0  0.93314  0.96723  0.28243  1.0000
  C   C2306     1.0  0.66939  0.88431  0.42294  1.0000
  Fe  Fe462     1.0  0.89683  0.98513  0.23566  1.0000
  H   H3669     1.0  0.94534  0.95028  0.26950  1.0000
  H   H3670     1.0  0.85724  0.89010  0.32301  1.0000
  H   H3671     1.0  0.77362  0.71005  0.34815  1.0000
  H   H3672     1.0  0.79223  0.76533  0.29768  1.0000
  S   S928      1.0  0.70179  0.89433  0.47342  1.0000
  S   S929      1.0  0.70942  0.77979  0.32821  1.0000
  H   H3673     1.0  0.67717  0.67849  0.32876  1.0000
  H   H3674     1.0  0.81673  0.78144  0.26069  1.0000
  H   H3675     1.0  0.95664  0.85883  0.44921  1.0000
  N   N228      1.0  0.85510  0.90595  0.29654  1.0000
  H   H3676     1.0  0.90940  0.85400  0.44530  1.0000
  Fe  Fe463     1.0  0.68733  0.77196  0.32011  1.0000
  N   N229      1.0  0.91946  0.94558  0.28566  1.0000
  H   H3677     1.0  0.88280  0.89970  0.29967  1.0000
  H   H3678     1.0  0.92943  0.94264  0.30966  1.0000
  C   C2307     1.0  0.83106  0.81308  0.44930  1.0000
  H   H3679     1.0  0.87751  0.85537  0.44321  1.0000
  C   C2308     1.0  0.88253  0.87308  0.46613  1.0000
  H   H3680     1.0  0.97575  0.88576  0.39422  1.0000
  H   H3681     1.0  0.85817  0.92263  0.31308  1.0000
  H   H3682     1.0  0.66885  0.73405  0.31680  1.0000
  C   C2309     1.0  0.95370  0.91714  0.39941  1.0000
  H   H3683     1.0  0.91825  0.92520  0.31003  1.0000
  C   C2310     1.0  0.69793  0.87978  0.43184  1.0000
  H   H3684     1.0  0.90923  0.83234  0.46027  1.0000
  N   N230      1.0  0.86265  0.81934  0.39476  1.0000
  C   C2311     1.0  0.86952  0.80869  0.41105  1.0000
  C   C2312     1.0  0.87121  0.83521  0.38725  1.0000
  C   C2313     1.0  0.84282  0.82549  0.39965  1.0000
  C   C2314     1.0  0.86694  0.80798  0.38114  1.0000
  H   H3685     1.0  0.88451  0.80409  0.40795  1.0000
  H   H3686     1.0  0.86348  0.79647  0.41692  1.0000
  H   H3687     1.0  0.86608  0.81674  0.42177  1.0000
  H   H3688     1.0  0.86566  0.84394  0.37548  1.0000
  H   H3689     1.0  0.86871  0.84376  0.39740  1.0000
  H   H3690     1.0  0.88615  0.83117  0.38269  1.0000
  H   H3691     1.0  0.83700  0.83305  0.38761  1.0000
  H   H3692     1.0  0.83916  0.83460  0.40940  1.0000
  H   H3693     1.0  0.83597  0.81391  0.40604  1.0000
  H   H3694     1.0  0.88181  0.80305  0.37712  1.0000
  H   H3695     1.0  0.86196  0.81561  0.36864  1.0000
  C   C2315     1.0  0.93160  0.95700  0.36574  1.0000
  C   C2316     1.0  0.91821  0.95017  0.36211  1.0000
  H   H3696     1.0  0.91131  0.94073  0.37251  1.0000
  S   S930      1.0  0.87818  0.96539  0.24454  1.0000
  H   H3697     1.0  0.82418  0.82171  0.43892  1.0000
  H   H3698     1.0  0.91118  0.94191  0.26292  1.0000
  H   H3699     1.0  0.90864  0.92411  0.28250  1.0000
  C   C2317     1.0  0.87478  0.90123  0.28929  1.0000
  C   C2318     1.0  0.78844  0.79434  0.29203  1.0000
  C   C2319     1.0  0.77611  0.81076  0.28918  1.0000
  C   C2320     1.0  0.75768  0.81071  0.29158  1.0000
  H   H3700     1.0  0.80260  0.79420  0.29060  1.0000
  H   H3701     1.0  0.98134  0.92660  0.40672  1.0000
  C   C2321     1.0  0.67605  0.90763  0.43384  1.0000
  H   H3702     1.0  0.69220  0.87351  0.44594  1.0000
  H   H3703     1.0  0.87765  0.83385  0.45863  1.0000
  C   C2322     1.0  0.66533  0.81477  0.32914  1.0000
  C   C2323     1.0  0.91740  0.93384  0.27454  1.0000
  Fe  Fe464     1.0  0.67884  0.65996  0.26239  1.0000
  H   H3704     1.0  0.90282  0.88029  0.25085  1.0000
  Fe  Fe465     1.0  0.70490  0.75802  0.35277  1.0000
  H   H3705     1.0  0.78773  0.72259  0.32985  1.0000
  C   C2324     1.0  0.90151  0.95634  0.29230  1.0000
  C   C2325     1.0  0.69200  0.90119  0.40468  1.0000
  H   H3706     1.0  0.93069  0.92578  0.26889  1.0000
  H   H3707     1.0  0.85465  0.93440  0.29089  1.0000
  H   H3708     1.0  0.87790  0.86667  0.24941  1.0000
  C   C2326     1.0  0.89079  0.88885  0.24647  1.0000
  S   S931      1.0  0.90684  0.91729  0.24285  1.0000
  H   H3709     1.0  0.68169  0.91141  0.39789  1.0000
  C   C2327     1.0  0.71377  0.87246  0.47125  1.0000
  H   H3710     1.0  0.98356  0.90253  0.41333  1.0000
  S   S932      1.0  0.95705  0.97800  0.35711  1.0000
  N   N231      1.0  0.80395  0.79245  0.23780  1.0000
  C   C2328     1.0  0.87664  0.88113  0.24576  1.0000
  N   N232      1.0  0.88653  0.85331  0.46761  1.0000
  C   C2329     1.0  0.84492  0.80969  0.47477  1.0000
  C   C2330     1.0  0.88937  0.90759  0.24156  1.0000
  C   C2331     1.0  0.90584  0.84714  0.45970  1.0000
  H   H3711     1.0  0.66519  0.91796  0.42798  1.0000
  H   H3712     1.0  0.66293  0.87817  0.43682  1.0000
  C   C2332     1.0  0.81451  0.79404  0.25031  1.0000
  H   H3713     1.0  0.95194  0.90640  0.41179  1.0000
  H   H3714     1.0  0.70425  0.86869  0.42429  1.0000
  H   H3715     1.0  0.66979  0.90207  0.44793  1.0000
  H   H3716     1.0  0.89106  0.87709  0.47327  1.0000
  H   H3717     1.0  0.99190  0.89494  0.37543  1.0000
  S   S933      1.0  0.82890  0.83685  0.24586  1.0000
  C   C2333     1.0  0.86112  0.89214  0.24000  1.0000
  H   H3718     1.0  0.86810  0.87813  0.47212  1.0000
  H   H3719     1.0  0.77865  0.79477  0.47758  1.0000
  C   C2334     1.0  0.98475  0.91394  0.40145  1.0000
  H   H3720     1.0  0.94428  0.91663  0.39105  1.0000
  H   H3721     1.0  0.96575  0.93081  0.36444  1.0000
  C   C2335     1.0  0.97476  0.92982  0.37377  1.0000
  S   S934      1.0  0.89170  0.68237  0.61484  1.0000
  C   C2336     1.0  0.79525  0.81281  0.50368  1.0000
  H   H3722     1.0  0.97626  0.69618  0.57217  1.0000
  H   H3723     1.0  0.69373  0.85915  0.49066  1.0000
  H   H3724     1.0  0.68930  0.85688  0.67285  1.0000
  H   H3725     1.0  0.66379  0.76001  0.73139  1.0000
  H   H3726     1.0  0.93896  0.76795  0.56385  1.0000
  H   H3727     1.0  0.67207  0.95895  0.59608  1.0000
  H   H3728     1.0  0.85572  0.78235  0.48689  1.0000
  H   H3729     1.0  0.86305  0.71342  0.60886  1.0000
  H   H3730     1.0  0.80905  0.81297  0.49514  1.0000
  H   H3731     1.0  0.96665  0.79525  0.57334  1.0000
  C   C2337     1.0  0.88898  0.69996  0.59580  1.0000
  H   H3732     1.0  0.91451  0.69036  0.57923  1.0000
  C   C2338     1.0  0.86991  0.72654  0.58086  1.0000
  S   S935      1.0  0.66088  0.88961  0.51528  1.0000
  Fe  Fe466     1.0  0.97597  0.86458  0.50663  1.0000
  H   H3733     1.0  0.86455  0.69282  0.54679  1.0000
  H   H3734     1.0  0.66430  0.79643  0.73161  1.0000
  C   C2339     1.0  0.86463  0.68632  0.56120  1.0000
  C   C2340     1.0  0.87311  0.71342  0.59642  1.0000
  H   H3735     1.0  0.98011  0.87614  0.53978  1.0000
  H   H3736     1.0  0.90857  0.71282  0.55160  1.0000
  S   S936      1.0  0.97776  0.79941  0.50643  1.0000
  H   H3737     1.0  0.68111  0.93704  0.57594  1.0000
  C   C2341     1.0  0.89868  0.71310  0.56413  1.0000
  H   H3738     1.0  0.94618  0.79943  0.53389  1.0000
  H   H3739     1.0  0.89520  0.67519  0.53825  1.0000
  C   C2342     1.0  0.66508  0.80880  0.68023  1.0000
  C   C2343     1.0  0.88255  0.72615  0.56457  1.0000
  C   C2344     1.0  0.97649  0.66849  0.60840  1.0000
  H   H3740     1.0  0.67975  0.84545  0.70480  1.0000
  H   H3741     1.0  0.88268  0.66890  0.58803  1.0000
  H   H3742     1.0  0.86934  0.69541  0.56705  1.0000
  C   C2345     1.0  0.90197  0.70020  0.57972  1.0000
  S   S937      1.0  0.87787  0.74021  0.54409  1.0000
  H   H3743     1.0  0.79670  0.80955  0.51803  1.0000
  C   C2346     1.0  0.89498  0.66936  0.55282  1.0000
  H   H3744     1.0  0.85738  0.73650  0.58133  1.0000
  H   H3745     1.0  0.90422  0.65586  0.55388  1.0000
  C   C2347     1.0  0.98511  0.70505  0.56244  1.0000
  N   N233      1.0  0.98931  0.70130  0.54406  1.0000
  H   H3746     1.0  0.68822  0.76658  0.70489  1.0000
  H   H3747     1.0  0.96519  0.71933  0.53689  1.0000
  H   H3748     1.0  0.68261  0.86604  0.70888  1.0000
  H   H3749     1.0  0.70612  0.91325  0.65672  1.0000
  Fe  Fe467     1.0  0.70914  0.85132  0.60537  1.0000
  S   S938      1.0  0.73430  0.85452  0.58371  1.0000
  Fe  Fe468     1.0  0.85822  0.76710  0.54401  1.0000
  S   S939      1.0  0.83866  0.77685  0.56775  1.0000
  C   C2348     1.0  0.95997  0.80175  0.56166  1.0000
  Fe  Fe469     1.0  0.84810  0.80231  0.51795  1.0000
  S   S940      1.0  0.82817  0.81524  0.53950  1.0000
  H   H3750     1.0  0.93579  0.79063  0.59148  1.0000
  Fe  Fe470     1.0  0.84916  0.80250  0.55633  1.0000
  S   S941      1.0  0.85317  0.81669  0.57613  1.0000
  Fe  Fe471     1.0  0.81924  0.78885  0.54893  1.0000
  S   S942      1.0  0.78961  0.78715  0.55682  1.0000
  S   S943      1.0  0.87016  0.79206  0.53386  1.0000
  S   S944      1.0  0.83774  0.77662  0.52608  1.0000
  H   H3751     1.0  0.86874  0.66148  0.54145  1.0000
  S   S945      1.0  0.93783  0.84015  0.50858  1.0000
  N   N234      1.0  0.87641  0.66812  0.56308  1.0000
  S   S946      1.0  0.97078  0.84021  0.52800  1.0000
  C   C2349     1.0  0.67895  0.80668  0.70521  1.0000
  Fe  Fe472     1.0  0.96772  0.82921  0.50547  1.0000
  H   H3752     1.0  0.96301  0.66603  0.61432  1.0000
  Fe  Fe473     1.0  0.94126  0.85277  0.52975  1.0000
  S   S947      1.0  0.92301  0.85055  0.55735  1.0000
  H   H3753     1.0  0.69045  0.87863  0.67533  1.0000
  S   S948      1.0  0.94670  0.87853  0.51077  1.0000
  H   H3754     1.0  0.70326  0.83464  0.52226  1.0000
  H   H3755     1.0  0.68854  0.85307  0.56409  1.0000
  H   H3756     1.0  0.97036  0.80017  0.54909  1.0000
  C   C2350     1.0  0.87677  0.66060  0.58236  1.0000
  H   H3757     1.0  0.90089  0.67804  0.55799  1.0000
  H   H3758     1.0  0.82472  0.79754  0.60067  1.0000
  H   H3759     1.0  0.96099  0.77148  0.55114  1.0000
  H   H3760     1.0  0.76949  0.79615  0.52629  1.0000
  S   S949      1.0  0.69712  0.82090  0.67186  1.0000
  Fe  Fe474     1.0  0.69201  0.83647  0.64437  1.0000
  H   H3761     1.0  0.66359  0.96822  0.56612  1.0000
  H   H3762     1.0  0.70078  0.87536  0.51571  1.0000
  H   H3763     1.0  0.82597  0.81470  0.61135  1.0000
  C   C2351     1.0  0.87230  0.82662  0.57001  1.0000
  C   C2352     1.0  0.88239  0.82922  0.55228  1.0000
  C   C2353     1.0  0.89763  0.83722  0.54798  1.0000
  C   C2354     1.0  0.90299  0.84227  0.56146  1.0000
  C   C2355     1.0  0.89273  0.83978  0.57908  1.0000
  C   C2356     1.0  0.87742  0.83208  0.58332  1.0000
  H   H3764     1.0  0.87832  0.82530  0.54187  1.0000
  H   H3765     1.0  0.90516  0.83944  0.53427  1.0000
  H   H3766     1.0  0.89671  0.84374  0.58955  1.0000
  H   H3767     1.0  0.86963  0.83022  0.59701  1.0000
  S   S950      1.0  0.66394  0.85012  0.64045  1.0000
  H   H3768     1.0  0.71990  0.87437  0.52493  1.0000
  C   C2357     1.0  0.69379  0.86263  0.55178  1.0000
  C   C2358     1.0  0.95043  0.77424  0.56331  1.0000
  H   H3769     1.0  0.79264  0.77103  0.50067  1.0000
  S   S951      1.0  0.70387  0.86122  0.63119  1.0000
  H   H3770     1.0  0.97409  0.68826  0.62424  1.0000
  H   H3771     1.0  0.70993  0.75145  0.70284  1.0000
  H   H3772     1.0  0.78705  0.82674  0.50097  1.0000
  H   H3773     1.0  0.86295  0.66002  0.59066  1.0000
  H   H3774     1.0  0.96280  0.69640  0.54658  1.0000
  H   H3775     1.0  0.66518  0.81232  0.66590  1.0000
  C   C2359     1.0  0.68112  0.87052  0.67418  1.0000
  H   H3776     1.0  0.70982  0.82848  0.48596  1.0000
  C   C2360     1.0  0.69215  0.91700  0.65519  1.0000
  H   H3777     1.0  0.68306  0.85119  0.52729  1.0000
  H   H3778     1.0  0.68942  0.83245  0.54469  1.0000
  H   H3779     1.0  0.79350  0.83849  0.58157  1.0000
  S   S952      1.0  0.70000  0.82536  0.61906  1.0000
  H   H3780     1.0  0.69589  0.89855  0.63765  1.0000
  C   C2361     1.0  0.74918  0.83560  0.57622  1.0000
  C   C2362     1.0  0.74505  0.81839  0.58176  1.0000
  C   C2363     1.0  0.75736  0.80364  0.57542  1.0000
  C   C2364     1.0  0.77396  0.80598  0.56379  1.0000
  C   C2365     1.0  0.77787  0.82326  0.55799  1.0000
  C   C2366     1.0  0.76548  0.83801  0.56409  1.0000
  H   H3781     1.0  0.73242  0.81641  0.59093  1.0000
  H   H3782     1.0  0.75417  0.79032  0.57987  1.0000
  H   H3783     1.0  0.79033  0.82536  0.54866  1.0000
  H   H3784     1.0  0.76860  0.85136  0.55951  1.0000
  N   N235      1.0  0.80028  0.81777  0.60425  1.0000
  C   C2367     1.0  0.79006  0.82918  0.61745  1.0000
  C   C2368     1.0  0.80554  0.82944  0.58650  1.0000
  C   C2369     1.0  0.78878  0.80613  0.60264  1.0000
  H   H3785     1.0  0.77755  0.83798  0.61317  1.0000
  H   H3786     1.0  0.79838  0.83816  0.61894  1.0000
  H   H3787     1.0  0.78582  0.82084  0.63102  1.0000
  H   H3788     1.0  0.81467  0.83806  0.58706  1.0000
  H   H3789     1.0  0.77600  0.81432  0.59857  1.0000
  H   H3790     1.0  0.78494  0.79677  0.61565  1.0000
  H   H3791     1.0  0.79584  0.79776  0.59231  1.0000
  N   N236      1.0  0.94434  0.79386  0.56262  1.0000
  H   H3792     1.0  0.79973  0.77723  0.51799  1.0000
  H   H3793     1.0  0.73001  0.83265  0.53479  1.0000
  C   C2370     1.0  0.97230  0.70497  0.53751  1.0000
  N   N237      1.0  0.78686  0.79956  0.49994  1.0000
  H   H3794     1.0  0.69056  0.74498  0.69971  1.0000
  S   S953      1.0  0.68772  0.93966  0.67802  1.0000
  C   C2371     1.0  0.66828  0.91316  0.64266  1.0000
  C   C2372     1.0  0.69511  0.75210  0.70784  1.0000
  C   C2373     1.0  0.76869  0.79967  0.51173  1.0000
  H   H3795     1.0  0.93294  0.81729  0.54489  1.0000
  H   H3796     1.0  0.92599  0.81188  0.57893  1.0000
  Fe  Fe475     1.0  0.66946  0.96263  0.69054  1.0000
  H   H3797     1.0  0.95640  0.76732  0.57540  1.0000
  H   H3798     1.0  0.68976  0.80880  0.71026  1.0000
  C   C2374     1.0  0.67270  0.85950  0.70622  1.0000
  C   C2375     1.0  0.79838  0.78137  0.50359  1.0000
  C   C2376     1.0  0.71213  0.86596  0.52161  1.0000
  H   H3799     1.0  0.81229  0.78089  0.49510  1.0000
  H   H3800     1.0  0.70137  0.87058  0.55603  1.0000
  Fe  Fe476     1.0  0.67271  0.84108  0.61396  1.0000
  N   N238      1.0  0.70545  0.85286  0.53772  1.0000
  C   C2377     1.0  0.68636  0.90861  0.64444  1.0000
  C   C2378     1.0  0.68001  0.93022  0.66396  1.0000
  H   H3801     1.0  0.72120  0.85906  0.51080  1.0000
  C   C2379     1.0  0.98277  0.68110  0.61400  1.0000
  H   H3802     1.0  0.71644  0.83080  0.55730  1.0000
  C   C2380     1.0  0.69489  0.84230  0.53277  1.0000
  H   H3803     1.0  0.72936  0.84820  0.54844  1.0000
  S   S954      1.0  0.68227  0.86642  0.59855  1.0000
  C   C2381     1.0  0.67922  0.81138  0.68663  1.0000
  H   H3804     1.0  0.97817  0.71931  0.56271  1.0000
  H   H3805     1.0  0.97492  0.70215  0.52372  1.0000
  C   C2382     1.0  0.72101  0.84055  0.54483  1.0000
  S   S955      1.0  0.67707  0.97002  0.71329  1.0000
  Fe  Fe477     1.0  0.67617  0.87422  0.62556  1.0000
  H   H3806     1.0  0.81304  0.82125  0.57617  1.0000
  C   C2383     1.0  0.66458  0.79951  0.71734  1.0000
  H   H3807     1.0  0.75964  0.81319  0.50920  1.0000
  H   H3808     1.0  0.85040  0.68589  0.56837  1.0000
  C   C2384     1.0  0.93648  0.80240  0.54644  1.0000
  H   H3809     1.0  0.67623  0.87660  0.66139  1.0000
  H   H3810     1.0  0.81341  0.79746  0.62379  1.0000
  C   C2385     1.0  0.81676  0.80635  0.61036  1.0000
  H   H3811     1.0  0.91817  0.79198  0.57984  1.0000
  H   H3812     1.0  0.92391  0.79776  0.54715  1.0000
  Fe  Fe478     1.0  0.67231  0.89507  0.48567  1.0000
  H   H3813     1.0  0.95565  0.81648  0.56167  1.0000
  C   C2386     1.0  0.98766  0.65929  0.59509  1.0000
  H   H3814     1.0  0.68185  0.87209  0.54700  1.0000
  S   S956      1.0  0.85032  0.81948  0.48998  1.0000
  H   H3815     1.0  0.76203  0.78976  0.50931  1.0000
  C   C2387     1.0  0.93048  0.79716  0.57896  1.0000
  C   C2388     1.0  0.66203  0.93522  0.66172  1.0000
  H   H3816     1.0  0.98963  0.67290  0.55380  1.0000
  N   N239      1.0  0.69081  0.74417  0.72734  1.0000
  C   C2389     1.0  0.86929  0.65617  0.55596  1.0000
  C   C2390     1.0  0.69985  0.72492  0.73076  1.0000
  N   N240      1.0  0.66580  0.86967  0.68982  1.0000
  H   H3817     1.0  0.66604  0.89576  0.69402  1.0000
  C   C2391     1.0  0.88271  0.84435  0.48686  1.0000
  H   H3818     1.0  0.71484  0.72320  0.72641  1.0000
  H   H3819     1.0  0.66558  0.73883  0.72565  1.0000
  H   H3820     1.0  0.99242  0.76334  0.52309  1.0000
  Fe  Fe479     1.0  0.94539  0.86490  0.48925  1.0000
  H   H3821     1.0  0.66154  0.85852  0.71835  1.0000
  H   H3822     1.0  0.69521  0.71702  0.72348  1.0000
  Fe  Fe480     1.0  0.91242  0.65665  0.61110  1.0000
  S   S957      1.0  0.97511  0.85263  0.48363  1.0000
  H   H3823     1.0  0.98891  0.88020  0.56664  1.0000
  H   H3824     1.0  0.67030  0.92139  0.59388  1.0000
  H   H3825     1.0  0.85538  0.65473  0.56352  1.0000
  C   C2392     1.0  0.66798  0.93269  0.58219  1.0000
  C   C2393     1.0  0.99295  0.87981  0.53841  1.0000
  H   H3826     1.0  0.66429  0.92715  0.57217  1.0000
  H   H3827     1.0  0.86820  0.84849  0.49326  1.0000
  H   H3828     1.0  0.89107  0.84772  0.49467  1.0000
  H   H3829     1.0  0.88561  0.82939  0.48851  1.0000
  S   S958      1.0  0.92970  0.65340  0.58401  1.0000
  C   C2394     1.0  0.66486  0.93892  0.79415  1.0000
  C   C2395     1.0  0.67469  0.70529  0.80134  1.0000
  C   C2396     1.0  0.67359  0.67548  0.83067  1.0000
  H   H3830     1.0  0.69683  0.71871  0.74545  1.0000
  C   C2397     1.0  0.68882  0.67561  0.81656  1.0000
  H   H3831     1.0  0.67427  0.92553  0.79559  1.0000
  H   H3832     1.0  0.70118  0.69051  0.79111  1.0000
  C   C2398     1.0  0.69720  0.75398  0.73753  1.0000
  H   H3833     1.0  0.69080  0.76860  0.73515  1.0000
  C   C2399     1.0  0.68933  0.69046  0.80193  1.0000
  S   S959      1.0  0.67574  0.72370  0.78274  1.0000
  H   H3834     1.0  0.66660  0.92345  0.82899  1.0000
  H   H3835     1.0  0.69388  0.74853  0.75236  1.0000
  H   H3836     1.0  0.70021  0.66431  0.81696  1.0000
  H   H3837     1.0  0.66724  0.73956  0.74790  1.0000
  S   S960      1.0  0.67219  0.65707  0.84921  1.0000
  H   H3838     1.0  0.67293  0.94949  0.79167  1.0000
  H   H3839     1.0  0.66610  0.94724  0.82502  1.0000
  C   C2400     1.0  0.67100  0.74568  0.73333  1.0000
  H   H3840     1.0  0.71214  0.75289  0.73358  1.0000
