data_image0
_chemical_formula_structural       FeS2FeS2FeSFeS3FeS2FeS2FeSFeS3FeS2FeS2FeSFeS3FeS2FeS2FeSFeS3FeS2FeS2FeSFeS3FeS2FeS2FeSFeS3FeS2FeS2FeSFeS3FeS2FeS2FeSFeS3FeS2FeS2FeSFeS3FeS2FeS2FeSFeS3FeS2FeS2FeSFeS3FeS2FeS2FeSFeS3FeS2FeS2FeSFeS3FeS2FeS2FeSFeS3FeS2FeS2FeSFeS3FeS2FeS2FeSFeS3FeS2FeS2FeSFeS3FeS2FeS2FeSFeS3FeS2FeS2FeSFeS3FeS2FeS2FeSFeS3FeS2FeS2FeSFeS3FeS2FeS2FeSFeS3FeS2FeS2FeSFeS3FeS2FeS2FeSFeS3FeS2FeS2FeSFeS3FeS2FeS2FeSFeS3FeS2FeS2FeSFeS3FeS2FeS2FeSFeS3FeS2FeS2FeSFeS3FeS2FeS2FeSFeS3FeS2FeS2FeSFeS3FeS2FeS2FeSFeS3C6H4C6H4C6H4C6H4C6H4C6H4C6H4C6H4C6H4C6H4C6H4C6H4C6H4C6H4C6H4C6H4C6H4C6H4C6H4C6H4C6H4C6H4C6H4C6H4C6H4C6H4C6H4C6H4C6H4C6H4C6H4C6H4C6H4C6H4C6H4C6H4C6H4C6H4C6H4C6H4C6H4C6H4C6H4C6H4C6H4C6H4C6H4C6H4C6H4C6H4C6H4C6H4C6H4C6H4C6H4C6H4C6H4C6H4C6H4C6H4C6H4C6H4C6H4C6H4NC4H12NC4H12NC4H12NC4H12NC4H12NC4H12NC4H12NC4H12NC4H12NC4H12NC4H12NC4H12NC4H12NC4H12NC4H12NC4H12NC4H12NC4H12NC4H12NC4H12NC4H12NC4H12NC4H12NC4H12NC4H12NC4H12NC4H12NC4H12NC4H12NC4H12NC4H12NC4H12NC4H12NC4H12NC4H12NC4H12NC4H12NC4H12NC4H12NC4H12NC4H12NC4H12NC4H12NC4H12NC4H12NC4H12NC4H12NC4H12NC4H12NC4H12NC4H12NC4H12NC4H12NC4H12NC4H12NC4H12NC4H12NC4H12NC4H12NC4H12NC4H12NC4H12NC4H12NC4H12
_chemical_formula_sum              "Fe128 S256 C640 H1024 N64"
_cell_length_a       42.07938539484918
_cell_length_b       43.41542503369469
_cell_length_c       44.482118311723944
_cell_angle_alpha    90.06735076620289
_cell_angle_beta     87.36113730286267
_cell_angle_gamma    88.70630348300115

_space_group_name_H-M_alt    "P 1"
_space_group_IT_number       1

loop_
  _space_group_symop_operation_xyz
  'x, y, z'

loop_
  _atom_site_type_symbol
  _atom_site_label
  _atom_site_symmetry_multiplicity
  _atom_site_fract_x
  _atom_site_fract_y
  _atom_site_fract_z
  _atom_site_occupancy
  Fe  Fe1       1.0  0.3261951933208946  0.3200827457473868  0.19373962674898132  1.0000
  S   S1        1.0  0.2922718122859172  0.3249768936544966  0.23387788459191902  1.0000
  S   S2        1.0  0.31906777796365404  0.2865849457059142  0.1558283911624057  1.0000
  Fe  Fe2       1.0  0.3652714711371244  0.37458594514532084  0.2128390381057299  1.0000
  S   S3        1.0  0.3335258736708919  0.3843701217551265  0.2537967678388565  1.0000
  S   S4        1.0  0.41008461950285324  0.40101432576697144  0.20279690809267806  1.0000
  Fe  Fe3       1.0  0.3356619057754038  0.33330624965896777  0.2600056960640611  1.0000
  S   S5        1.0  0.3441297435509212  0.31126780653968394  0.3047890475048972  1.0000
  Fe  Fe4       1.0  0.2935193592996523  0.37543402769511625  0.2238027613667629  1.0000
  S   S6        1.0  0.24634841956208253  0.4007142540273448  0.22385804876003454  1.0000
  S   S7        1.0  0.369812348066564  0.323727849348276  0.22073350427308722  1.0000
  S   S8        1.0  0.3248378718021094  0.3703642939059916  0.18193797418386223  1.0000
  Fe  Fe5       1.0  0.1652679850452228  0.19224587774354163  0.1377987674894034  1.0000
  S   S9        1.0  0.11892524172704488  0.216742700334831  0.12962622990605774  1.0000
  S   S10       1.0  0.19460329046270236  0.20902299000911398  0.1753870359263481  1.0000
  Fe  Fe6       1.0  0.15130272880526138  0.13961250273303305  0.09582202990980926  1.0000
  S   S11       1.0  0.10373773577507082  0.1594038297832259  0.08451220389682897  1.0000
  S   S12       1.0  0.17197914140287954  0.09474078088932347  0.07758656342476292  1.0000
  Fe  Fe7       1.0  0.1290800881395552  0.20402263088476105  0.08120993801415799  1.0000
  S   S13       1.0  0.11620715771842774  0.2363389090781692  0.044022362165559326  1.0000
  Fe  Fe8       1.0  0.09784837231069421  0.17003970200436544  0.13371021612420786  1.0000
  S   S14       1.0  0.05130166438560346  0.16350445856553714  0.15912412906749654  1.0000
  S   S15       1.0  0.17769277135774025  0.18367639729155658  0.08871098712748463  1.0000
  S   S16       1.0  0.14313037548861948  0.14614235444897683  0.14552807760500855  1.0000
  Fe  Fe9       1.0  0.05885520102252895  0.6148402635590573  0.5621449527597435  1.0000
  S   S17       1.0  0.04023592134195786  0.6629241528981737  0.5561239515758718  1.0000
  S   S18       1.0  0.09157317190250748  0.5899538022201556  0.5289285610307886  1.0000
  Fe  Fe10      1.0  0.02795034483110137  0.608990966692877  0.6245060901494704  1.0000
  S   S19       1.0  0.005650400975907077  0.6562621405499792  0.624161224182392  1.0000
  S   S20       1.0  0.02573182232687099  0.5772550491270865  0.6641128995320097  1.0000
  Fe  Fe11      1.0  0.9946814022907394  0.644852685884898  0.5765961126564503  1.0000
  S   S21       1.0  0.9484165487311828  0.6555138909242044  0.5553534763325648  1.0000
  Fe  Fe12      1.0  0.052979171919385504  0.6700269736140225  0.6038538437177158  1.0000
  S   S22       1.0  0.0760724865478497  0.7124130681132197  0.620250347805185  1.0000
  S   S23       1.0  0.012471125036298769  0.595818478626451  0.578744353685978  1.0000
  S   S24       1.0  0.07627406008456128  0.6234805861590463  0.6079461651657744  1.0000
  Fe  Fe13      1.0  0.9236471460479868  0.7877134277462876  0.367657828642678  1.0000
  S   S25       1.0  0.9176167516513861  0.7448355670110323  0.3954185164266586  1.0000
  S   S26       1.0  0.94185741261445  0.7898967240370358  0.3196812639063295  1.0000
  Fe  Fe14      1.0  0.8948363919806057  0.8295178133813954  0.4168395406234752  1.0000
  S   S27       1.0  0.8868832334955078  0.7909089137187307  0.44921396503323885  1.0000
  S   S28       1.0  0.878496982429745  0.877740194540094  0.4274982852973019  1.0000
  Fe  Fe15      1.0  0.9353653292266075  0.7743272189874569  0.4325048943578706  1.0000
  S   S29       1.0  0.9737716536860413  0.7637419300283034  0.4645673455327  1.0000
  Fe  Fe16      1.0  0.869589074913858  0.7657175527278196  0.4093204817594978  1.0000
  S   S30       1.0  0.8207750009073286  0.7456623774201306  0.41005715289223715  1.0000
  S   S31       1.0  0.9449171600648454  0.8155850160381847  0.4035023665573624  1.0000
  S   S32       1.0  0.8743867136559547  0.8057044517809607  0.3780569001776864  1.0000
  Fe  Fe17      1.0  0.6123441541049002  0.4990153642774358  0.07032285652082693  1.0000
  S   S33       1.0  0.5609380232534551  0.49478105326173255  0.08452671581139404  1.0000
  S   S34       1.0  0.636559088961975  0.5447106476619908  0.06849121257973034  1.0000
  Fe  Fe18      1.0  0.6227221594005043  0.43021406594734474  0.06283124418701935  1.0000
  S   S35       1.0  0.5722125903721185  0.4200597103459482  0.07689299986539555  1.0000
  S   S36       1.0  0.6537876043691149  0.3885090217476072  0.05211150381089569  1.0000
  Fe  Fe19      1.0  0.5598168643976146  0.4599083742262191  0.04773330222352645  1.0000
  S   S37       1.0  0.5146603517083853  0.4591603483179173  0.023416678621315246  1.0000
  Fe  Fe20      1.0  0.5776560341934585  0.45555215890857903  0.11238614299969596  1.0000
  S   S38       1.0  0.5598310908134285  0.44633622146945534  0.15953666696712068  1.0000
  S   S39       1.0  0.6099413196686192  0.4675031409315336  0.030216453248449238  1.0000
  S   S40       1.0  0.6295248572251249  0.4622007984225433  0.10144335484172395  1.0000
  Fe  Fe21      1.0  0.7829440953765119  0.37603669071319734  0.8970509165587265  1.0000
  S   S41       1.0  0.7703270911527252  0.35270941619708657  0.9405998710633893  1.0000
  S   S42       1.0  0.7485054452102389  0.39326252947378554  0.8638191326216155  1.0000
  Fe  Fe22      1.0  0.8540696593306345  0.37436852951749244  0.9065465380859029  1.0000
  S   S43       1.0  0.8481294966833426  0.35154434230465564  0.9517203428457303  1.0000
  S   S44       1.0  0.8971292226330632  0.38237600385372295  0.8759121645758329  1.0000
  Fe  Fe23      1.0  0.8128478460665306  0.3219512076192183  0.9295377249481496  1.0000
  S   S45       1.0  0.8148488074958934  0.27043471301435695  0.9357151874594417  1.0000
  Fe  Fe24      1.0  0.8060842230353261  0.3842732215356092  0.9592650256851241  1.0000
  S   S46       1.0  0.7932550864655887  0.41306935331857203  0.0003307292463190503  1.0000
  S   S47       1.0  0.8219404068386476  0.34241223405133775  0.8839562659362784  1.0000
  S   S48       1.0  0.8155651209206695  0.40994797090251733  0.9160702020358907  1.0000
  Fe  Fe25      1.0  0.5297628059647449  0.008389765971180907  0.6284821653015997  1.0000
  S   S49       1.0  0.5404642906935105  0.9790551230586217  0.5877851161398955  1.0000
  S   S50       1.0  0.4917863674003535  0.9918199609828271  0.6613668679132608  1.0000
  Fe  Fe26      1.0  0.5755539801315829  0.05735775471305993  0.6077140436808098  1.0000
  S   S51       1.0  0.5903689397294876  0.03255862778522767  0.5651221967222976  1.0000
  S   S52       1.0  0.5963122838467879  0.10223374560312821  0.6214530768941224  1.0000
  Fe  Fe27      1.0  0.538654687501494  0.023033029467309563  0.562045298997468  1.0000
  S   S53       1.0  0.5202048259703802  0.021828966447242193  0.5157553345338476  1.0000
  Fe  Fe28      1.0  0.5911476939041593  0.99043127960546  0.5939776999067957  1.0000
  S   S54       1.0  0.627360213710643  0.9531378785680283  0.5829157191816031  1.0000
  S   S55       1.0  0.5231690210289744  0.05202885918928124  0.6020489488222236  1.0000
  S   S56       1.0  0.5811324292161076  0.015779921210988812  0.6374248466941366  1.0000
  Fe  Fe29      1.0  0.46447021023395096  0.8541357784859739  0.8508329785722286  1.0000
  S   S57       1.0  0.4936277530651069  0.8343090335966454  0.8117704451101484  1.0000
  S   S58       1.0  0.47495787170462245  0.8462893527716483  0.8993534076052547  1.0000
  Fe  Fe30      1.0  0.418342048859065  0.8873886940264271  0.8111447172645565  1.0000
  S   S59       1.0  0.4424682077255677  0.8699882822445764  0.7683313459272166  1.0000
  S   S60       1.0  0.3745358146435858  0.9178074173567203  0.813490587129624  1.0000
  Fe  Fe31      1.0  0.4463219470622725  0.8250452696052155  0.792835484778905  1.0000
  S   S61       1.0  0.4366343792228257  0.7797793519947409  0.7712204663814329  1.0000
  Fe  Fe32      1.0  0.487664781452397  0.8809918704213985  0.7906762717669588  1.0000
  S   S62       1.0  0.5288620746775522  0.9062586416034133  0.7687539228298561  1.0000
  S   S63       1.0  0.4174394342873002  0.8413715602261795  0.8334861005847459  1.0000
  S   S64       1.0  0.46302225280845727  0.9019217136461046  0.8319343740521064  1.0000
  Fe  Fe33      1.0  0.591771069316598  0.5590376487921171  0.2974342063006827  1.0000
  S   S65       1.0  0.5440048308718527  0.5378190304488801  0.3039387626258071  1.0000
  S   S66       1.0  0.6378282316693121  0.5320534514253046  0.2922968721160392  1.0000
  Fe  Fe34      1.0  0.5635560810686768  0.6243589626686986  0.29602865813347373  1.0000
  S   S67       1.0  0.5134892280565568  0.6083283104261287  0.3029914284360854  1.0000
  S   S68       1.0  0.5704959699735983  0.6739145150325289  0.283423882204983  1.0000
  Fe  Fe35      1.0  0.5341343980601959  0.5761878389880131  0.3368281057728667  1.0000
  S   S69       1.0  0.5118281267683523  0.5624417577868863  0.38134643368220006  1.0000
  Fe  Fe36      1.0  0.5286654109484271  0.5717856200372238  0.2694934046879603  1.0000
  S   S70       1.0  0.5006423953645448  0.5617648185725919  0.2292859508846873  1.0000
  S   S71       1.0  0.5832420414191279  0.5953936824785497  0.33300596695063095  1.0000
  S   S72       1.0  0.5773418126499178  0.5898036117541229  0.2600651087058555  1.0000
  Fe  Fe37      1.0  0.2887624768476196  0.5467324471808991  0.30633915281995644  1.0000
  S   S73       1.0  0.29813673462877527  0.59718154354015  0.30042314980359175  1.0000
  S   S74       1.0  0.24258001106697344  0.527886047387481  0.29174507619134554  1.0000
  Fe  Fe38      1.0  0.3493510253987647  0.534799903499101  0.33897786036472793  1.0000
  S   S75       1.0  0.3639546304344579  0.5838485881088231  0.33549485118840694  1.0000
  S   S76       1.0  0.37934019273066694  0.5015673327526603  0.3644849340223501  1.0000
  Fe  Fe39      1.0  0.3130361519320652  0.5947856092939184  0.3480641394148999  1.0000
  S   S77       1.0  0.30174148924666727  0.6296488497570478  0.3841639691241732  1.0000
  Fe  Fe40      1.0  0.3481667602383099  0.5812504659942951  0.2882541329291842  1.0000
  S   S78       1.0  0.3798047433019305  0.6037269068940486  0.2529375968053675  1.0000
  S   S79       1.0  0.2993370458538789  0.5457914634922358  0.35524992040414  1.0000
  S   S80       1.0  0.33787390663033573  0.5307840349788011  0.29054122272385857  1.0000
  Fe  Fe41      1.0  0.32536262773416647  0.5976591947827976  0.5441402372379675  1.0000
  S   S81       1.0  0.27580164534057133  0.5797706016721668  0.5444440185331554  1.0000
  S   S82       1.0  0.35845868771351186  0.5837900181608733  0.5052615202765662  1.0000
  Fe  Fe42      1.0  0.31499434079897426  0.6290233844041158  0.6046607331802397  1.0000
  S   S83       1.0  0.2647319601383355  0.6134065037028679  0.6103309614435505  1.0000
  S   S84       1.0  0.33258437060893936  0.6591523332287906  0.6410409035918442  1.0000
  Fe  Fe43      1.0  0.2841265533933246  0.5681539341253283  0.592558931430913  1.0000
  S   S85       1.0  0.2689904298408764  0.5224118562248343  0.611428704873082  1.0000
  Fe  Fe44      1.0  0.26130412464660907  0.6266792068081751  0.561990000106912  1.0000
  S   S86       1.0  0.21989865718352808  0.6569047680403881  0.5497570942082515  1.0000
  S   S87       1.0  0.33494613364303805  0.5825673400522211  0.5911037088300647  1.0000
  S   S88       1.0  0.31031271270345306  0.6458666436397313  0.5575219148557927  1.0000
  Fe  Fe45      1.0  0.31234131371774476  0.372257671094243  0.4618996214115391  1.0000
  S   S89       1.0  0.30054518421069093  0.3235499441609853  0.47431003225017754  1.0000
  S   S90       1.0  0.3105136934160324  0.396650130845554  0.41748164771042195  1.0000
  Fe  Fe46      1.0  0.3364322367831691  0.38696986373909426  0.5230648290581459  1.0000
  S   S91       1.0  0.32758979759074286  0.3398344291045065  0.5412660958617975  1.0000
  S   S92       1.0  0.36163377750549924  0.4237198467841975  0.547286096459365  1.0000
  Fe  Fe47      1.0  0.34738389229112815  0.3228998652968133  0.49651208364766247  1.0000
  S   S93       1.0  0.38391125005786636  0.28503678952320083  0.4879254500004004  1.0000
  Fe  Fe48      1.0  0.28144214973902304  0.3442849795260164  0.5179722684452662  1.0000
  S   S94       1.0  0.23876976571620573  0.3267010341566545  0.5442713621003236  1.0000
  S   S95       1.0  0.36066670926677447  0.36982826455874523  0.48044574170448645  1.0000
  S   S96       1.0  0.28866065250896566  0.39326007442361505  0.5035445234800631  1.0000
  Fe  Fe49      1.0  0.5871250826793778  0.24953066514260994  0.545344404097463  1.0000
  S   S97       1.0  0.569093567519301  0.24911575266748218  0.5935091203960687  1.0000
  S   S98       1.0  0.6112224146488238  0.20733359277927935  0.5244309805450211  1.0000
  Fe  Fe50      1.0  0.5609622322650175  0.3144392441239326  0.5354563130728627  1.0000
  S   S99       1.0  0.5419965185317264  0.31920302589387384  0.5831148053637588  1.0000
  S   S100      1.0  0.5459183579685627  0.35114614512259423  0.5032785102073409  1.0000
  Fe  Fe51      1.0  0.588356280490113  0.2968049892795874  0.5947548300196559  1.0000
  S   S101      1.0  0.6142534783356097  0.3088693319620722  0.6360924965782178  1.0000
  Fe  Fe52      1.0  0.5250011897283372  0.27134527827447263  0.5767670813037158  1.0000
  S   S102      1.0  0.4758404355749534  0.25854637096602046  0.5932057448340455  1.0000
  S   S103      1.0  0.6092409500330044  0.2959504175176407  0.5473336111217093  1.0000
  S   S104      1.0  0.5411471829381944  0.2677845320124927  0.528298435315888  1.0000
  Fe  Fe53      1.0  0.538346268197563  0.37658540690712405  0.3097800658307939  1.0000
  S   S105      1.0  0.5517273223918364  0.35652382588350967  0.264437726156134  1.0000
  S   S106      1.0  0.4937871359509096  0.40524646238766493  0.3171084044394317  1.0000
  Fe  Fe54      1.0  0.5950617325841846  0.3468177793824936  0.33925691280803316  1.0000
  S   S107      1.0  0.6132243731096243  0.32460912547254345  0.2962788818064327  1.0000
  S   S108      1.0  0.623692125073133  0.33789455645799327  0.37961626352840816  1.0000
  Fe  Fe55      1.0  0.6010089834458908  0.37006282530204887  0.2754313566540988  1.0000
  S   S109      1.0  0.6347706197780832  0.3952105259414989  0.24427227569231127  1.0000
  Fe  Fe56      1.0  0.562106062779482  0.31356740871725763  0.2903739691579288  1.0000
  S   S110      1.0  0.5440240115737641  0.26668204475652507  0.28064066918769154  1.0000
  S   S111      1.0  0.5868157351781104  0.39328882094063783  0.3190765184806693  1.0000
  S   S112      1.0  0.5447632132537561  0.3324828190366907  0.33506075812833624  1.0000
  Fe  Fe57      1.0  0.8637284235799669  0.1656426321489602  0.8065905552726244  1.0000
  S   S113      1.0  0.8230140301236344  0.13665701698637073  0.8222779888668258  1.0000
  S   S114      1.0  0.8573008618147697  0.21684886345641644  0.808747738711733  1.0000
  Fe  Fe58      1.0  0.9022442950207927  0.11131991864088718  0.7812268178200785  1.0000
  S   S115      1.0  0.8645507250614578  0.07746852359004319  0.7940990644806125  1.0000
  S   S116      1.0  0.945434556062196  0.09540995593147691  0.7538323265545092  1.0000
  Fe  Fe59      1.0  0.8303522944090497  0.11312909880486072  0.7775642535850269  1.0000
  S   S117      1.0  0.7878915744576575  0.10804917892320638  0.7492585826417713  1.0000
  Fe  Fe60      1.0  0.860921233636969  0.10410674058747779  0.8374920655073989  1.0000
  S   S118      1.0  0.8549929004851032  0.07775711696215737  0.8806173925053599  1.0000
  S   S119      1.0  0.8684962944549951  0.14463373538362417  0.7607217804882029  1.0000
  S   S120      1.0  0.901569554455675  0.1353545011172463  0.8259586370578313  1.0000
  Fe  Fe61      1.0  0.07687612582631397  0.13459310018092774  0.9147454824740089  1.0000
  S   S121      1.0  0.12976064714071056  0.13299668385342076  0.9189280955888495  1.0000
  S   S122      1.0  0.04575267715409748  0.16813751689169232  0.9415035360897401  1.0000
  Fe  Fe62      1.0  0.07843058091828237  0.08625776999203572  0.8657085630794981  1.0000
  S   S123      1.0  0.13151362665550348  0.08162821271026321  0.8649647907097813  1.0000
  S   S124      1.0  0.05560072493518331  0.05183961380353575  0.8363931100173887  1.0000
  Fe  Fe63      1.0  0.12496827334521378  0.08182019635922377  0.9150569142831344  1.0000
  S   S125      1.0  0.15286832225514943  0.04576903133750876  0.9394276498944706  1.0000
  Fe  Fe64      1.0  0.1308226893133877  0.13292680039570848  0.8686046560326568  1.0000
  S   S126      1.0  0.16619198993730486  0.16169027459352908  0.8430791198048481  1.0000
  S   S127      1.0  0.07165949285179264  0.08328049453762154  0.915897424357549  1.0000
  S   S128      1.0  0.0781634358748664  0.1379136106782942  0.8642991883828425  1.0000
  Fe  Fe65      1.0  0.022967673553754286  0.4197603746590857  0.6102976632174665  1.0000
  S   S129      1.0  0.02481160803426885  0.37917523601872777  0.5795216550474385  1.0000
  S   S130      1.0  0.9834319286290681  0.45419765985884464  0.6053752935210657  1.0000
  Fe  Fe66      1.0  0.08067172157320446  0.39769442779521114  0.6432510221720081  1.0000
  S   S131      1.0  0.08717278564657716  0.3549691991931681  0.6152999674299416  1.0000
  S   S132      1.0  0.11374738956783581  0.40751024920503615  0.679829332091239  1.0000
  Fe  Fe67      1.0  0.07740211288034304  0.38653714508791975  0.5765865388853502  1.0000
  S   S133      1.0  0.10546281123606338  0.39266800467166063  0.5328179381949235  1.0000
  Fe  Fe68      1.0  0.03390204566964239  0.35229043554756545  0.6214689895457066  1.0000
  S   S134      1.0  0.006230404949084001  0.30930294141729103  0.6308495208183181  1.0000
  S   S135      1.0  0.07485384090259206  0.4295835904437819  0.6044675858994418  1.0000
  S   S136      1.0  0.028263788788701172  0.3929457948852086  0.652476114851951  1.0000
  Fe  Fe69      1.0  0.07202987872807531  0.360176017396105  0.8933306328164301  1.0000
  S   S137      1.0  0.12218544663475939  0.37081956650640074  0.9042599740476849  1.0000
  S   S138      1.0  0.03270151754550921  0.3623651657197405  0.9292895755088841  1.0000
  Fe  Fe70      1.0  0.09069888348244604  0.3396375348840584  0.8303951714845711  1.0000
  S   S139      1.0  0.14254675877233103  0.3473875033752522  0.835508905758762  1.0000
  S   S140      1.0  0.07136181125235197  0.32215958042152243  0.7877723289903039  1.0000
  Fe  Fe71      1.0  0.13470227062781204  0.326215563491682  0.8808823733192725  1.0000
  S   S141      1.0  0.17199468905196413  0.2946934806200036  0.8991324080544041  1.0000
  Fe  Fe72      1.0  0.1258344657978876  0.39143540280325023  0.8580952844855194  1.0000
  S   S142      1.0  0.15418363437830407  0.43342017461899923  0.8467412584599646  1.0000
  S   S143      1.0  0.08434896703854133  0.3136685028310163  0.8736488629433927  1.0000
  S   S144      1.0  0.07433271711194545  0.38542291495221714  0.8491738497527592  1.0000
  Fe  Fe73      1.0  0.3268145586355086  0.6602886340713703  0.813039595055652  1.0000
  S   S145      1.0  0.3158897903360399  0.6102387442982399  0.8079898307038772  1.0000
  S   S146      1.0  0.29801793274016813  0.697423523106499  0.7913907448607264  1.0000
  Fe  Fe74      1.0  0.38964074057141224  0.6468918185603661  0.8415999195147449  1.0000
  S   S147      1.0  0.3849949999902144  0.5957044294814181  0.8381809201183437  1.0000
  S   S148      1.0  0.42888731023026216  0.6717592725503713  0.8632057137222078  1.0000
  Fe  Fe75      1.0  0.366938895100063  0.6053301307506778  0.7923043705182353  1.0000
  S   S149      1.0  0.37874913917982045  0.5792179009267944  0.7496348330389943  1.0000
  Fe  Fe76      1.0  0.33440074054359764  0.6053561519989226  0.8541783769612292  1.0000
  S   S150      1.0  0.31275576881648104  0.5748063444847075  0.8898211372711636  1.0000
  S   S151      1.0  0.37656738894768976  0.6557049448448781  0.7941627261032742  1.0000
  S   S152      1.0  0.3402963155863154  0.6560618686976438  0.861000423205909  1.0000
  Fe  Fe77      1.0  0.10560012191969026  0.6532174146776805  0.7720585261328042  1.0000
  S   S153      1.0  0.09572353811445167  0.6269658485077041  0.8146331502213219  1.0000
  S   S154      1.0  0.08120462374716952  0.6978150145143677  0.7608575605795743  1.0000
  Fe  Fe78      1.0  0.16413279480843596  0.614416710880803  0.754292463851075  1.0000
  S   S155      1.0  0.16021694089408237  0.5849200036249359  0.795508926376605  1.0000
  S   S156      1.0  0.20530574439319643  0.6153575828548512  0.7208039101950918  1.0000
  Fe  Fe79      1.0  0.10807094794999395  0.5852659975288308  0.7861861072325629  1.0000
  S   S157      1.0  0.0767672928900367  0.5441343518016245  0.7913241991628731  1.0000
  Fe  Fe80      1.0  0.14829609579772818  0.6289678942826524  0.8201783431221926  1.0000
  S   S158      1.0  0.1725151768047275  0.6435014293635615  0.8616017068463864  1.0000
  S   S159      1.0  0.11317761916597903  0.6113482675699125  0.7426799987714069  1.0000
  S   S160      1.0  0.15696934874842897  0.6584184782008443  0.7798341435921009  1.0000
  Fe  Fe81      1.0  0.17065390493306  0.8850097725284886  0.8719621134574952  1.0000
  S   S161      1.0  0.22291407953730943  0.8839771969189939  0.8794417273530628  1.0000
  S   S162      1.0  0.14117675653448347  0.9265755099991323  0.8601445880253175  1.0000
  Fe  Fe82      1.0  0.16419719689393755  0.8165416223831341  0.8832252952524319  1.0000
  S   S163      1.0  0.2158790290476633  0.8090730401147641  0.8917317331650092  1.0000
  S   S164      1.0  0.12641612279708558  0.7811887306409594  0.8823999903625157  1.0000
  Fe  Fe83      1.0  0.21018223146448772  0.8530019590878227  0.9180667333012695  1.0000
  S   S165      1.0  0.23199406068327574  0.861068158789642  0.96219758375279  1.0000
  Fe  Fe84      1.0  0.22402564424169932  0.8403612346250836  0.8521663986596704  1.0000
  S   S166      1.0  0.26112369400282837  0.825823811188362  0.8167214904060262  1.0000
  S   S167      1.0  0.15755960091815163  0.8579010273903195  0.913122371908167  1.0000
  S   S168      1.0  0.17276341851704183  0.844052384927748  0.8412438814598008  1.0000
  Fe  Fe85      1.0  0.106126043177519  0.8865372362428424  0.08426364247806073  1.0000
  S   S169      1.0  0.10933907005678341  0.8870596850240619  0.13439310338076438  1.0000
  S   S170      1.0  0.1170938727167378  0.8445636434576017  0.05596032288997366  1.0000
  Fe  Fe86      1.0  0.08603430951930126  0.9535483451313167  0.08132451848010275  1.0000
  S   S171      1.0  0.08765415096452302  0.9603577461386986  0.13111835347857678  1.0000
  S   S172      1.0  0.07307938064452779  0.9923599813201337  0.05101571125348236  1.0000
  Fe  Fe87      1.0  0.1330018549686252  0.9323544753087203  0.1267268839220652  1.0000
  S   S173      1.0  0.1780142005861448  0.9432443395465822  0.14948108118991235  1.0000
  Fe  Fe88      1.0  0.06354536139478273  0.9146970277778491  0.13410783296541806  1.0000
  S   S174      1.0  0.023652643330118517  0.909118947957013  0.1692147758883959  1.0000
  S   S175      1.0  0.13336948006733793  0.9295028431971574  0.07657365429612062  1.0000
  S   S176      1.0  0.05820311935950073  0.9103425258351953  0.08432376051653592  1.0000
  Fe  Fe89      1.0  0.40692554582972534  0.6520109708291043  0.08707756779497888  1.0000
  S   S177      1.0  0.35971304306889884  0.6293145281376922  0.09246810731081956  1.0000
  S   S178      1.0  0.42203513202615495  0.6934221939429944  0.11275586622616007  1.0000
  Fe  Fe90      1.0  0.43086331049227317  0.6077754508154534  0.037808181159674215  1.0000
  S   S179      1.0  0.3861253250752407  0.5807288860144075  0.03915244284801633  1.0000
  S   S180      1.0  0.4736739596306152  0.5982957976685924  0.007255715680573704  1.0000
  Fe  Fe91      1.0  0.36173921456751496  0.6271372295353955  0.042016675894162914  1.0000
  S   S181      1.0  0.3218495343533233  0.6436828407349482  0.013887122303714916  1.0000
  Fe  Fe92      1.0  0.38862327863444757  0.5852843833837638  0.0893021770088327  1.0000
  S   S182      1.0  0.3800761102178255  0.5468146243349276  0.12205798352227792  1.0000
  S   S183      1.0  0.4065128859746433  0.6539380496402475  0.036804345741316524  1.0000
  S   S184      1.0  0.4357969633319091  0.6081359338219308  0.08759521922664626  1.0000
  Fe  Fe93      1.0  0.3866936448902505  0.8593284452394521  0.0651244786721128  1.0000
  S   S185      1.0  0.3704994992668522  0.8126985522494741  0.052201752694476466  1.0000
  S   S186      1.0  0.4366406151077859  0.866373833965744  0.07988779190642781  1.0000
  Fe  Fe94      1.0  0.32183685205499396  0.8889687201507586  0.05589016061202856  1.0000
  S   S187      1.0  0.30034778023353587  0.8445576006829102  0.04246533961583987  1.0000
  S   S188      1.0  0.29155180311131834  0.9317873347507825  0.0518030133181282  1.0000
  Fe  Fe95      1.0  0.3267966098801385  0.8245562463597886  0.08062714020403416  1.0000
  S   S189      1.0  0.30648791467272146  0.7872339611119022  0.10988827018050928  1.0000
  Fe  Fe96      1.0  0.3459522976822774  0.836612622536094  0.015389007700944646  1.0000
  S   S190      1.0  0.3479401135081604  0.811911256106372  0.9709005279552951  1.0000
  S   S191      1.0  0.3444928978053633  0.8696411466393782  0.0967986069833  1.0000
  S   S192      1.0  0.36560873368786134  0.8829674000670034  0.025528912875805165  1.0000
  Fe  Fe97      1.0  0.6855284180029843  0.8513802986370044  0.37477744059963547  1.0000
  S   S193      1.0  0.6429899551800918  0.843206920796034  0.405227280486708  1.0000
  S   S194      1.0  0.7325918919633094  0.8623530207837155  0.39294643228385917  1.0000
  Fe  Fe98      1.0  0.6478098710692729  0.8496244441827827  0.31858038234655656  1.0000
  S   S195      1.0  0.6012916822771324  0.8417356622736438  0.3440705137274108  1.0000
  S   S196      1.0  0.6568804665043377  0.8514543510323754  0.26856207739553856  1.0000
  Fe  Fe99      1.0  0.6184332051330487  0.877227800535572  0.37598527676310234  1.0000
  S   S197      1.0  0.5905335596754474  0.9153372468355692  0.3997175373860727  1.0000
  Fe  Fe100     1.0  0.6300916001489268  0.8083861077670731  0.37080033323940154  1.0000
  S   S198      1.0  0.614346216888623  0.7616609338851517  0.38629370145423225  1.0000
  S   S199      1.0  0.6622844747417714  0.8882333600353115  0.3480198983552296  1.0000
  S   S200      1.0  0.6753970614356853  0.8134119950739418  0.3428244138487826  1.0000
  Fe  Fe101     1.0  0.5848127107592765  0.7003267786092076  0.13532134327970802  1.0000
  S   S201      1.0  0.6083094549633041  0.7170543466672817  0.0923036969637625  1.0000
  S   S202      1.0  0.5705036869900656  0.6519285979033549  0.1465512383987717  1.0000
  Fe  Fe102     1.0  0.5717046142872942  0.7650700116130053  0.1588773089508001  1.0000
  S   S203      1.0  0.5936102988544133  0.7875462484409218  0.11792149082119327  1.0000
  S   S204      1.0  0.5477167211183872  0.7928190374289559  0.19617357900959956  1.0000
  Fe  Fe103     1.0  0.5682370845131305  0.7519002996036162  0.09228037861724725  1.0000
  S   S205      1.0  0.5380745687768773  0.7592420335447136  0.0523598270316481  1.0000
  Fe  Fe104     1.0  0.6318282431467017  0.7510114767608146  0.12191949036396288  1.0000
  S   S206      1.0  0.6825878027841106  0.7639797960281564  0.1109354757611889  1.0000
  S   S207      1.0  0.5429391696877189  0.7327093365935397  0.1330072436958753  1.0000
  S   S208      1.0  0.6117768383675604  0.7310128923854147  0.16521015225784091  1.0000
  Fe  Fe105     1.0  0.774555716348342  0.2966741229609171  0.7238017088103986  1.0000
  S   S209      1.0  0.7917318325995781  0.3397179196983785  0.7012291016403873  1.0000
  S   S210      1.0  0.7421786180749512  0.2904019480913719  0.7646207850525738  1.0000
  Fe  Fe106     1.0  0.8124643384857668  0.25433363486357263  0.6809811907814516  1.0000
  S   S211      1.0  0.8332224770088451  0.29305493748753975  0.6536964164654118  1.0000
  S   S212      1.0  0.8201248402156687  0.20336327327834938  0.6758102981361851  1.0000
  Fe  Fe107     1.0  0.8395574262328395  0.31535549581236544  0.6985681835736627  1.0000
  S   S213      1.0  0.8831327538923527  0.3401744464888418  0.7119508241835297  1.0000
  Fe  Fe108     1.0  0.7840113308299504  0.3141117969802438  0.6583766686725383  1.0000
  S   S214      1.0  0.7606331968648951  0.33483106208050273  0.6186927673879197  1.0000
  S   S215      1.0  0.8230345657468958  0.27482558281361935  0.7254490281219699  1.0000
  S   S216      1.0  0.7626454680463437  0.2730556762930108  0.6811574597538628  1.0000
  Fe  Fe109     1.0  0.7844878323632815  0.10073173865014895  0.5543714055354185  1.0000
  S   S217      1.0  0.8297592696635802  0.08449180567685732  0.5749178965781886  1.0000
  S   S218      1.0  0.767204153808827  0.14994971460075224  0.5567136230542361  1.0000
  Fe  Fe110     1.0  0.7690616182788622  0.038106174056996345  0.5309889596498477  1.0000
  S   S219      1.0  0.8122387708952126  0.01608025561551707  0.5497210390797675  1.0000
  S   S220      1.0  0.738924084096061  0.008721349628644681  0.502837878143552  1.0000
  Fe  Fe111     1.0  0.8005087323329239  0.044644946430797416  0.5907412723593858  1.0000
  S   S221      1.0  0.8066472751244057  0.021660421756199977  0.6353475211345535  1.0000
  Fe  Fe112     1.0  0.8376350302717303  0.057450586612145305  0.5321469375512857  1.0000
  S   S222      1.0  0.8847387360490357  0.046924894503311165  0.5083702451288603  1.0000
  S   S223      1.0  0.7543922068302396  0.0629990928929034  0.5738420636645818  1.0000
  S   S224      1.0  0.7951628599195553  0.07740214889037267  0.5099030754180178  1.0000
  Fe  Fe113     1.0  0.8500654151377008  0.8895406571584481  0.22329531171487962  1.0000
  S   S225      1.0  0.8539543699345983  0.8412741323327434  0.20551786136344272  1.0000
  S   S226      1.0  0.8743621338006825  0.9057096604718594  0.2639615312495918  1.0000
  Fe  Fe114     1.0  0.8062573755909113  0.9105409043018334  0.1753769057488301  1.0000
  S   S227      1.0  0.8067824330286646  0.8646330609194048  0.15244446092631223  1.0000
  S   S228      1.0  0.7797417152991017  0.9522145209118807  0.160113652653165  1.0000
  Fe  Fe115     1.0  0.8016956662513226  0.8459127235175372  0.19937516363044516  1.0000
  S   S229      1.0  0.7692671503962772  0.8080203841156108  0.21456714756139492  1.0000
  Fe  Fe116     1.0  0.8591038222311584  0.8641710266026804  0.16056790834872822  1.0000
  S   S230      1.0  0.897978126404672  0.8479510814107991  0.1277686768049236  1.0000
  S   S231      1.0  0.7969554320885507  0.892186260169348  0.2217738029154627  1.0000
  S   S232      1.0  0.859013166514314  0.912266825376027  0.17879619391478516  1.0000
  Fe  Fe117     1.0  0.9319499668499325  0.07304708571061691  0.07993400760701241  1.0000
  S   S233      1.0  0.9095135217881251  0.12038630656035454  0.08226114774873602  1.0000
  S   S234      1.0  0.9816411699990785  0.059248399916151946  0.09168999774769658  1.0000
  Fe  Fe118     1.0  0.8731573617386889  0.044822818535671605  0.05540292834825155  1.0000
  S   S235      1.0  0.8451275688839646  0.08949212774007154  0.05611704944440898  1.0000
  S   S236      1.0  0.8568126405136043  0.9978540458073566  0.044328451775977884  1.0000
  Fe  Fe119     1.0  0.8910467744015197  0.10888763238979737  0.037344732151937565  1.0000
  S   S237      1.0  0.8958941062183547  0.14260168507690035  0.999296808500434  1.0000
  Fe  Fe120     1.0  0.8664236749040978  0.09644699182107332  0.10102766878725354  1.0000
  S   S238      1.0  0.8423013861343216  0.11245751506694097  0.144490959894053  1.0000
  S   S239      1.0  0.9173465011338723  0.06355849064095587  0.0331939698157564  1.0000
  S   S240      1.0  0.8901904384064431  0.049833487335615434  0.1017686896457395  1.0000
  Fe  Fe121     1.0  0.611411290064013  0.11881164071116679  0.4108087445629606  1.0000
  S   S241      1.0  0.5964185181478442  0.12054313443829834  0.36320825506131765  1.0000
  S   S242      1.0  0.5810002305735559  0.1360770169311496  0.45007332520521565  1.0000
  Fe  Fe122     1.0  0.6774359064394465  0.09504349327726946  0.39443294409257207  1.0000
  S   S243      1.0  0.6694631706834804  0.09497482812633251  0.34527525639671053  1.0000
  S   S244      1.0  0.7232064872337072  0.08070602125768911  0.4142003189032126  1.0000
  Fe  Fe123     1.0  0.6444183666930733  0.14037168685176615  0.35339077371839706  1.0000
  S   S245      1.0  0.6550450683564872  0.1774552022514241  0.319710958657318  1.0000
  Fe  Fe124     1.0  0.6223826473970834  0.07508135959186357  0.3584724249591904  1.0000
  S   S246      1.0  0.6076476523322926  0.0384775064283982  0.32687729241353447  1.0000
  S   S247      1.0  0.6573918191244389  0.1427641896471714  0.4015030297469084  1.0000
  S   S248      1.0  0.6326398905812404  0.07089675346263369  0.4074646355237547  1.0000
  Fe  Fe125     1.0  0.9012773637764641  0.07063029844851099  0.3494927883675168  1.0000
  S   S249      1.0  0.8873733359917589  0.023633755482238117  0.3648774870349007  1.0000
  S   S250      1.0  0.8982577491189419  0.11048336658207392  0.38120579627507234  1.0000
  Fe  Fe126     1.0  0.9147121419212784  0.05045139050928871  0.2855489735489844  1.0000
  S   S251      1.0  0.9016067959791548  0.0015316062667429797  0.2945383059724453  1.0000
  S   S252      1.0  0.9360786362296272  0.06397998885436018  0.2407724796529797  1.0000
  Fe  Fe127     1.0  0.8608696795985414  0.02221998183093854  0.32248339462556663  1.0000
  S   S253      1.0  0.8112774618755217  0.004428280342600122  0.3214009777970822  1.0000
  Fe  Fe128     1.0  0.9291617637522848  0.007114136547227368  0.3358964757658915  1.0000
  S   S254      1.0  0.9621026641617922  0.9696028746847467  0.3506225701324038  1.0000
  S   S255      1.0  0.8711707001890292  0.07089034601115052  0.30932757949095013  1.0000
  S   S256      1.0  0.9459372336459116  0.054397798683194276  0.32468852468725534  1.0000
  C   C1        1.0  0.7472642448530772  0.06018218179671164  0.3876679522843664  1.0000
  C   C2        1.0  0.7802854297210453  0.06255615024948424  0.38794770993213634  1.0000
  C   C3        1.0  0.7998545948253669  0.046024646060411456  0.3670591352703838  1.0000
  C   C4        1.0  0.7865436748432569  0.02616177712220291  0.3465634309517674  1.0000
  C   C5        1.0  0.7534471116926296  0.023568064463437732  0.3463943066093595  1.0000
  C   C6        1.0  0.7337597378156302  0.04102978235132726  0.3666065391511047  1.0000
  H   H1        1.0  0.7907450263755593  0.077836015670391  0.40382134846031287  1.0000
  H   H2        1.0  0.8252318102003054  0.04887530178651911  0.3668669430563326  1.0000
  H   H3        1.0  0.7430598543360537  0.008466421239289756  0.330357269221714  1.0000
  H   H4        1.0  0.7081961274747763  0.039326190023229124  0.36621060181087284  1.0000
  C   C7        1.0  0.8690068742410444  0.1033104696839715  0.17247723791455888  1.0000
  C   C8        1.0  0.859225904692877  0.10343983254039668  0.202990241175524  1.0000
  C   C9        1.0  0.8801420847936219  0.09259233639565356  0.2245861497705459  1.0000
  C   C10       1.0  0.9105107578193825  0.08124631749149702  0.21547595143391468  1.0000
  C   C11       1.0  0.920778036251898  0.08293916499283771  0.18530614280386118  1.0000
  C   C12       1.0  0.9001147742903906  0.09405209233798084  0.16398598208051174  1.0000
  H   H5        1.0  0.8353372459984526  0.11118240865635443  0.20976449592305663  1.0000
  H   H6        1.0  0.8724066979002777  0.09232628435084145  0.24802944547508193  1.0000
  H   H7        1.0  0.9445385742478448  0.07499781775299907  0.17819793494705094  1.0000
  H   H8        1.0  0.9082737390031403  0.09505686599291248  0.14082862972920077  1.0000
  C   C13       1.0  0.7998569078048489  0.9647890814172901  0.1271713150721029  1.0000
  C   C14       1.0  0.7994182424228633  0.9960654934449005  0.11969177054563823  1.0000
  C   C15       1.0  0.8169896282509497  0.006275094648951152  0.09420191330962374  1.0000
  C   C16       1.0  0.8341626448537622  0.9850808147239446  0.07568533505958483  1.0000
  C   C17       1.0  0.8343162817075991  0.9537742299950358  0.0830148982643416  1.0000
  C   C18       1.0  0.8175833583304885  0.9437028327524373  0.10901051352213344  1.0000
  H   H9        1.0  0.7859768266496586  0.012487937835314877  0.13380633061327282  1.0000
  H   H10       1.0  0.8169230480467373  0.03053019509652599  0.08866766733945328  1.0000
  H   H11       1.0  0.8477495227242225  0.9373911164965242  0.06883743425580824  1.0000
  H   H12       1.0  0.8181279991599518  0.9195400414748036  0.11469660321969838  1.0000
  C   C19       1.0  0.8902758235337741  0.06661677977830127  0.4741939020392611  1.0000
  C   C20       1.0  0.8725456185637371  0.0934152243380848  0.46827894070516335  1.0000
  C   C21       1.0  0.8758610328780503  0.10767138781134888  0.44001145697727634  1.0000
  C   C22       1.0  0.8963850100085595  0.09474189692488166  0.4175078982082238  1.0000
  C   C23       1.0  0.9142148951125775  0.06806443589166622  0.4235460786469048  1.0000
  C   C24       1.0  0.9114551825941373  0.054248713019693806  0.45195899146582663  1.0000
  H   H13       1.0  0.8564167035539934  0.10326707435176452  0.48548959170128597  1.0000
  H   H14       1.0  0.8619657933667385  0.128247486415084  0.43534911067390086  1.0000
  H   H15       1.0  0.9303598445081893  0.0581702691858792  0.406333514194744  1.0000
  H   H16       1.0  0.9253195260215284  0.03362256338328096  0.45649593680563044  1.0000
  C   C25       1.0  0.8042098133589434  0.18943158383619638  0.6429199523537021  1.0000
  C   C26       1.0  0.7975546939650913  0.15812998063146433  0.6408470980648555  1.0000
  C   C27       1.0  0.7860929853093076  0.1461263819442281  0.6143535997707943  1.0000
  C   C28       1.0  0.7810357302487357  0.16544185463457747  0.5898676188326656  1.0000
  C   C29       1.0  0.7871602449888513  0.1969170150332399  0.5920011637804201  1.0000
  C   C30       1.0  0.7987152902331163  0.20897843569509775  0.6186167730227394  1.0000
  H   H17       1.0  0.8011002373941061  0.1431419618974636  0.6597865957170984  1.0000
  H   H18       1.0  0.7809713731428465  0.12190517108735631  0.6129372580106979  1.0000
  H   H19       1.0  0.7836907373233869  0.211792479632237  0.5728672784548625  1.0000
  H   H20       1.0  0.8040108331741725  0.23319960098474496  0.6200761025909183  1.0000
  C   C31       1.0  0.7062250730346439  0.7753938685040239  0.14033410930158152  1.0000
  C   C32       1.0  0.6961173083144317  0.7723861403391311  0.17058454390450967  1.0000
  C   C33       1.0  0.7158232689901607  0.781857076838595  0.193411529339102  1.0000
  C   C34       1.0  0.7452875558630552  0.7949495132340653  0.1860089899192969  1.0000
  C   C35       1.0  0.7552726090064157  0.7979465479777131  0.15578731201077137  1.0000
  C   C36       1.0  0.7359491286832349  0.7879661560572143  0.13304794097150818  1.0000
  H   H21       1.0  0.6732427964662374  0.762635667440331  0.17641624803696668  1.0000
  H   H22       1.0  0.7079409633175117  0.779462318439958  0.21678621820119798  1.0000
  H   H23       1.0  0.7780922698351992  0.8074546399161319  0.14983509540124107  1.0000
  H   H24       1.0  0.7438661249653233  0.7902211450915768  0.10967032865937232  1.0000
  C   C37       1.0  0.5920222394224202  0.9493468063230841  0.37867542874960447  1.0000
  C   C38       1.0  0.6006775922245194  0.9484346911629246  0.34795189569425883  1.0000
  C   C39       1.0  0.6045163422699261  0.9759393764274393  0.33184188266650194  1.0000
  C   C40       1.0  0.6000638388944785  0.00432438555161152  0.34653768192246615  1.0000
  C   C41       1.0  0.590732169278334  0.005225286899849024  0.3771209584882554  1.0000
  C   C42       1.0  0.5864645840447964  0.9777445605069623  0.39313671032429615  1.0000
  H   H25       1.0  0.6043983785298858  0.9265362712925972  0.3365675993585926  1.0000
  H   H26       1.0  0.6115121456025541  0.9751869975259719  0.3081364943673078  1.0000
  H   H27       1.0  0.5863046384464335  0.02709603232423685  0.3883330256438135  1.0000
  H   H28       1.0  0.5793202622554148  0.9785836497210668  0.4167869222095453  1.0000
  C   C43       1.0  0.6262527544139187  0.8340707307228111  0.24971736278459372  1.0000
  C   C44       1.0  0.6336719208777974  0.8180490304881385  0.2229573483153712  1.0000
  C   C45       1.0  0.6095018211038042  0.8056309340242157  0.206474625828084  1.0000
  C   C46       1.0  0.5777525573981498  0.8086929731583256  0.21696269656097478  1.0000
  C   C47       1.0  0.5702134150418415  0.8245365280128091  0.24387351876997673  1.0000
  C   C48       1.0  0.5944970727491294  0.8372655721509207  0.26025678409147734  1.0000
  H   H29       1.0  0.6581469292914249  0.8150321989674397  0.2150496469343406  1.0000
  H   H30       1.0  0.6155312562322806  0.7937712370979575  0.18558836413584548  1.0000
  H   H31       1.0  0.5456769264687159  0.8270268835528749  0.2520337274218484  1.0000
  H   H32       1.0  0.5885340197163826  0.8501014584592819  0.28063148231498575  1.0000
  C   C49       1.0  0.4649168529275643  0.8369580773812486  0.07086196491088526  1.0000
  C   C50       1.0  0.49519357027299865  0.8383604527287869  0.08255372852752063  1.0000
  C   C51       1.0  0.5174101064444744  0.8141214018460627  0.07758978991253462  1.0000
  C   C52       1.0  0.509850983714983  0.7888571067020141  0.059984364113107924  1.0000
  C   C53       1.0  0.4800427493198674  0.7878853059034416  0.047401429605411716  1.0000
  C   C54       1.0  0.45761798226450495  0.8118900803263283  0.05285120650336883  1.0000
  H   H33       1.0  0.5014268950064564  0.8581274569022774  0.09570075716850189  1.0000
  H   H34       1.0  0.5406338118261586  0.8153754594304757  0.08683208922743152  1.0000
  H   H35       1.0  0.47416063112249  0.7684955677104567  0.03355966499961971  1.0000
  H   H36       1.0  0.4349338298870913  0.8110668512572398  0.042735630258896595  1.0000
  C   C55       1.0  0.389885310793818  0.719740863531603  0.11701197501824989  1.0000
  C   C56       1.0  0.35875402315072474  0.7094770507631654  0.12175200284867693  1.0000
  C   C57       1.0  0.3329483556142702  0.7305618369231842  0.1220746941830182  1.0000
  C   C58       1.0  0.3382979586007947  0.7618650131418878  0.11716418111509763  1.0000
  C   C59       1.0  0.3694932935628698  0.7723094447531372  0.11466393200922909  1.0000
  C   C60       1.0  0.39526676380775594  0.7512821481936374  0.11428519256423697  1.0000
  H   H37       1.0  0.3544979518085052  0.6852747166822843  0.12505761650595448  1.0000
  H   H38       1.0  0.30889354590856205  0.7223706562718363  0.12476247995058132  1.0000
  H   H39       1.0  0.37375090719495746  0.7966241052964522  0.1122373984948839  1.0000
  H   H40       1.0  0.41922239689769847  0.75933664919586  0.11040087621035943  1.0000
  C   C61       1.0  0.9901800677457815  0.8892150320424203  0.15801191208571383  1.0000
  C   C62       1.0  0.9633160012835887  0.8881332868267658  0.17771463699203874  1.0000
  C   C63       1.0  0.9354901403432013  0.8743931685739155  0.16875423495769773  1.0000
  C   C64       1.0  0.9341605372711692  0.8618046880409942  0.13992103246560814  1.0000
  C   C65       1.0  0.9613074463970173  0.8618587554072736  0.1204745001644681  1.0000
  C   C66       1.0  0.9893139731575145  0.8755683148332849  0.12952303827454217  1.0000
  H   H41       1.0  0.9636491462791449  0.8984734408328788  0.1997434344344093  1.0000
  H   H42       1.0  0.9149653329982709  0.8738918660716286  0.18415668442019692  1.0000
  H   H43       1.0  0.9605167080689246  0.8518896908593128  0.09822078475953727  1.0000
  H   H44       1.0  0.010097528418297586  0.8755882688800144  0.11441481664245295  1.0000
  C   C67       1.0  0.2104928750941748  0.9419760673118841  0.12314948498068945  1.0000
  C   C68       1.0  0.2393017531206688  0.9277715266302602  0.130595658502841  1.0000
  C   C69       1.0  0.2643383200093964  0.9243109707979844  0.10873276840073011  1.0000
  C   C70       1.0  0.26090330801318967  0.9359637686031109  0.07970196795238049  1.0000
  C   C71       1.0  0.23260537377597704  0.9513230897637649  0.07272161735734217  1.0000
  C   C72       1.0  0.2073880382937358  0.9541108024947463  0.094308362245477  1.0000
  H   H45       1.0  0.24208822671461533  0.9189648806127897  0.15307684076862482  1.0000
  H   H46       1.0  0.2864317781899249  0.9130297119414436  0.11441045832086408  1.0000
  H   H47       1.0  0.23004311903211264  0.9607168735032772  0.050415714391527144  1.0000
  H   H48       1.0  0.1857534671690275  0.9661053113045598  0.08864440300456256  1.0000
  C   C73       1.0  0.20281291791717726  0.8534997301417719  0.9903266165001916  1.0000
  C   C74       1.0  0.20132999689951156  0.8705866525110805  0.017052668130021376  1.0000
  C   C75       1.0  0.17521598499123378  0.8677055247105137  0.03754181065814177  1.0000
  C   C76       1.0  0.15101116412391008  0.847218943196915  0.0316987320663642  1.0000
  C   C77       1.0  0.15346533453508704  0.8289785554259309  0.005736894176605389  1.0000
  C   C78       1.0  0.17917392137387247  0.832311376763799  0.9849329972067205  1.0000
  H   H49       1.0  0.2196327261014969  0.8870019109147492  0.021298206261170405  1.0000
  H   H50       1.0  0.17389297079749755  0.8814876679568767  0.05769782779641597  1.0000
  H   H51       1.0  0.13497446203575436  0.8128833012491996  0.0012168293962895316  1.0000
  H   H52       1.0  0.1804214866283151  0.8187431198139403  0.9644753128158738  1.0000
  C   C79       1.0  0.1588500584852145  0.6808984602325138  0.8710284890385972  1.0000
  C   C80       1.0  0.17885555963924515  0.701675475569886  0.8845526081040458  1.0000
  C   C81       1.0  0.1688901650472071  0.7325640485262994  0.8889549533797012  1.0000
  C   C82       1.0  0.1387503813079753  0.7423988737332052  0.8802683463067831  1.0000
  C   C83       1.0  0.11828685157633388  0.7212026960095824  0.8682249593350644  1.0000
  C   C84       1.0  0.12844206073532746  0.6906419671164529  0.8633059044165734  1.0000
  H   H53       1.0  0.20233248042923369  0.694137322819021  0.8907588038482492  1.0000
  H   H54       1.0  0.18450782776839825  0.748724943475295  0.8988806042914992  1.0000
  H   H55       1.0  0.09485505704362952  0.7286581624146814  0.8617318891474269  1.0000
  H   H56       1.0  0.1126689740402198  0.6747264196909992  0.8533608353062325  1.0000
  C   C85       1.0  0.3130763738343486  0.5931261383304022  0.9249160114852294  1.0000
  C   C86       1.0  0.30396081156682964  0.6241872656439365  0.9277427192007742  1.0000
  C   C87       1.0  0.30613557903469935  0.6393444360157481  0.9553718180829089  1.0000
  C   C88       1.0  0.31810216122645213  0.6236620828219023  0.9800567336197994  1.0000
  C   C89       1.0  0.3269507158626444  0.5924946104878925  0.9773301530256864  1.0000
  C   C90       1.0  0.3240317299964587  0.5771107965432516  0.949849769219834  1.0000
  H   H57       1.0  0.2948053929755257  0.6364423371899206  0.9087350691715531  1.0000
  H   H58       1.0  0.29891567536795505  0.6633414246606432  0.9574955398896252  1.0000
  H   H59       1.0  0.33543804556180973  0.580090318454343  0.9965212878344943  1.0000
  H   H60       1.0  0.3309329381244379  0.5530109529853989  0.9477592711143377  1.0000
  C   C91       1.0  0.27096754188059813  0.6763937883079361  0.7715803163973258  1.0000
  C   C92       1.0  0.2681592141750688  0.680712258240659  0.7406401562409197  1.0000
  C   C93       1.0  0.24900654039495748  0.6611501203908141  0.7244485001830906  1.0000
  C   C94       1.0  0.2318956442911997  0.6381169314235517  0.7395424190097791  1.0000
  C   C95       1.0  0.23416331469802257  0.6344736833432458  0.7705881546476008  1.0000
  C   C96       1.0  0.25382630055697813  0.6534235430746528  0.7865424363816355  1.0000
  H   H61       1.0  0.2814950076278453  0.6984865360262102  0.729061105211377  1.0000
  H   H62       1.0  0.24725998118320439  0.6641522096339688  0.7004529926746635  1.0000
  H   H63       1.0  0.2208669060867051  0.61686634788007  0.7823985430439109  1.0000
  H   H64       1.0  0.2556527531599369  0.6502855890573923  0.8105450242978569  1.0000
  C   C97       1.0  0.13216322273930015  0.4639036115578544  0.8316133810342763  1.0000
  C   C98       1.0  0.09956958907327285  0.46780816233620426  0.8386461886278829  1.0000
  C   C99       1.0  0.08262636798877798  0.49279498957116913  0.826647156461879  1.0000
  C   C100      1.0  0.0981650938806431  0.5135961102205078  0.8072892836329548  1.0000
  C   C101      1.0  0.13060901929809532  0.509319158958683  0.7999069707701011  1.0000
  C   C102      1.0  0.14766820179171458  0.48478056254606516  0.8123694220110567  1.0000
  H   H65       1.0  0.08765215381068137  0.452126458232146  0.8540363021367231  1.0000
  H   H66       1.0  0.057637134723732775  0.4962638495064304  0.8328170350879014  1.0000
  H   H67       1.0  0.14242311468243404  0.5243756318945288  0.7839192633346063  1.0000
  H   H68       1.0  0.1727875536657111  0.48154905053789304  0.8066130146221703  1.0000
  C   C103      1.0  0.9739143735848587  0.3142851671015723  0.6570562182748209  1.0000
  C   C104      1.0  0.9467020698981642  0.29669696801584805  0.6543404382009279  1.0000
  C   C105      1.0  0.9190464721730902  0.3034521821519361  0.6722475417243164  1.0000
  C   C106      1.0  0.9186669241991818  0.32766225871058174  0.6930382749226079  1.0000
  C   C107      1.0  0.9466433695333507  0.34356667458563755  0.6974412238356694  1.0000
  C   C108      1.0  0.9742267879231536  0.3367963435069943  0.6795418150038087  1.0000
  H   H69       1.0  0.9465806645460841  0.2786628996617015  0.6375276387289126  1.0000
  H   H70       1.0  0.8979393841450216  0.29029216243655626  0.6694846635938534  1.0000
  H   H71       1.0  0.9467738951643303  0.3617176246092942  0.7141061040544898  1.0000
  H   H72       1.0  0.995762016606333  0.3488095871982947  0.6833558658224016  1.0000
  C   C109      1.0  0.10567993434402467  0.3811165193302127  0.7087516024926965  1.0000
  C   C110      1.0  0.0846302638827312  0.3571891127394074  0.7043735770681477  1.0000
  C   C111      1.0  0.07460569421357754  0.33869070666329604  0.728614994838756  1.0000
  C   C112      1.0  0.08541752118855994  0.3442516634604284  0.757307414505748  1.0000
  C   C113      1.0  0.10707593866636578  0.3676900759582551  0.7615498654101065  1.0000
  C   C114      1.0  0.1175668338107636  0.38582580581423687  0.7371882637743367  1.0000
  H   H73       1.0  0.07550727303322113  0.3531786648034642  0.682450459616783  1.0000
  H   H74       1.0  0.057887422370206165  0.3205494073182322  0.7252047467201505  1.0000
  H   H75       1.0  0.11528569015652268  0.3723912126542324  0.783670184647667  1.0000
  H   H76       1.0  0.13393314758442587  0.40422843852734985  0.7406947502200097  1.0000
  C   C115      1.0  0.14370535713540203  0.9579176302577656  0.8847017545111752  1.0000
  C   C116      1.0  0.16907074489149737  0.960562225670004  0.9037675331138515  1.0000
  C   C117      1.0  0.17144508395595892  0.9871348819031115  0.9215916891115753  1.0000
  C   C118      1.0  0.1486590896410415  0.011063902604719678  0.9199698469593742  1.0000
  C   C119      1.0  0.12277016407207089  0.00769827453992189  0.9017790039178303  1.0000
  C   C120      1.0  0.12009967638942115  0.9810741640524779  0.8845090421780072  1.0000
  H   H77       1.0  0.18724350204175352  0.9425801017809337  0.9042042371851593  1.0000
  H   H78       1.0  0.1914517187937494  0.9896131570572567  0.9357702122801064  1.0000
  H   H79       1.0  0.10478458409667124  0.025733940189638593  0.9007764618602387  1.0000
  H   H80       1.0  0.09993588616931011  0.9787917131466449  0.8705381505101597  1.0000
  C   C121      1.0  0.16796760262542043  0.19785750384164164  0.8603220822677417  1.0000
  C   C122      1.0  0.1954222837747634  0.21515477177315878  0.8560622328695056  1.0000
  C   C123      1.0  0.19676597970215992  0.24461390988096962  0.8687247605058331  1.0000
  C   C124      1.0  0.17036310282262856  0.25716567759996545  0.8850293526705815  1.0000
  C   C125      1.0  0.1428466026239608  0.23988050353452467  0.8894461868835529  1.0000
  C   C126      1.0  0.14182538773122394  0.20999389846961278  0.8774381075227908  1.0000
  H   H81       1.0  0.21573764692820147  0.20570455039126317  0.8430686751519171  1.0000
  H   H82       1.0  0.21809442202824703  0.25791460910734165  0.865440932534742  1.0000
  H   H83       1.0  0.12243226493910121  0.24945358410571591  0.9021950727117529  1.0000
  H   H84       1.0  0.1205376261952215  0.19667020078077607  0.8808286860312624  1.0000
  C   C127      1.0  0.7935764858618407  0.08405224169655634  0.7176944604915069  1.0000
  C   C128      1.0  0.776726474642421  0.09046000783656272  0.6918977248017262  1.0000
  C   C129      1.0  0.7814887519338147  0.07199885900679637  0.6661066924417978  1.0000
  C   C130      1.0  0.8021365964154981  0.04634369122821602  0.6665332926734454  1.0000
  C   C131      1.0  0.8185713861332102  0.03962288455112617  0.6924977442798129  1.0000
  C   C132      1.0  0.8147281075140931  0.05877142422933579  0.7179065157346967  1.0000
  H   H85       1.0  0.760392941445114  0.11006534262251844  0.6916856364048868  1.0000
  H   H86       1.0  0.7687734661520654  0.07733651562288069  0.6461330047356203  1.0000
  H   H87       1.0  0.8344613751089353  0.019688412612415496  0.6929109799310946  1.0000
  H   H88       1.0  0.8276089937468015  0.053609300300561546  0.7378543039847217  1.0000
  C   C133      1.0  0.86392669501422  0.09740794107138408  0.9135237941394722  1.0000
  C   C134      1.0  0.861399032112843  0.08185614197577262  0.9410157289959116  1.0000
  C   C135      1.0  0.8710583545135421  0.09584549787864573  0.967337548415677  1.0000
  C   C136      1.0  0.8834483201792853  0.12542422313053855  0.9662659395090224  1.0000
  C   C137      1.0  0.8855092268140473  0.14131071669312706  0.9388518240521333  1.0000
  C   C138      1.0  0.8755254313594132  0.127374665017805  0.9124894086905737  1.0000
  H   H89       1.0  0.8522848187387831  0.058727439053509745  0.9419250288197047  1.0000
  H   H90       1.0  0.8689846537648944  0.08355007532876768  0.9884258847497885  1.0000
  H   H91       1.0  0.8951020520709078  0.16421531303722187  0.93790673895695  1.0000
  H   H92       1.0  0.8773618943247775  0.13953101366773296  0.8913172280922775  1.0000
  C   C139      1.0  0.9766260956054592  0.084555174929688  0.7766326295426687  1.0000
  C   C140      1.0  0.9926346056733516  0.056421327421033673  0.7711457377104202  1.0000
  C   C141      1.0  0.01697665689854455  0.04676609189082237  0.7895913000044893  1.0000
  C   C142      1.0  0.026199678885620248  0.06568578541484671  0.8129574072002828  1.0000
  C   C143      1.0  0.010817188102022035  0.09426823295956081  0.8180984274337498  1.0000
  C   C144      1.0  0.9855844508343935  0.1034775311584801  0.8002158307783835  1.0000
  H   H93       1.0  0.9856926470865744  0.04177214604032242  0.7529814442516991  1.0000
  H   H94       1.0  0.02860408142373383  0.02455811588881351  0.7857080884486272  1.0000
  H   H95       1.0  0.01794488529648275  0.10899348809041752  0.8361025868047853  1.0000
  H   H96       1.0  0.9734752888763366  0.12544161748060234  0.8042314196477858  1.0000
  C   C145      1.0  0.5741743683634468  0.24077753997351845  0.2907562347752592  1.0000
  C   C146      1.0  0.5675213963563215  0.21677954027319057  0.3109319011976594  1.0000
  C   C147      1.0  0.5923089665025933  0.19756920414154436  0.320638303099636  1.0000
  C   C148      1.0  0.623573415563124  0.201893680609439  0.30953883348830813  1.0000
  C   C149      1.0  0.6300062672516189  0.2255859955207983  0.28904307285258996  1.0000
  C   C150      1.0  0.6054140691083335  0.2451480438505794  0.2798689754982772  1.0000
  H   H97       1.0  0.5433905616053251  0.21360247779536787  0.3196420991863267  1.0000
  H   H98       1.0  0.5871630872621911  0.179614146145636  0.3367233502346452  1.0000
  H   H99       1.0  0.654152209839273  0.2290810981201387  0.28048257582913133  1.0000
  H   H100      1.0  0.6106446425714502  0.26362695828707877  0.26425657094036537  1.0000
  C   C151      1.0  0.6539670240396797  0.3202026163150696  0.6310635791478645  1.0000
  C   C152      1.0  0.6674748599423946  0.3265896622092003  0.6024822374887963  1.0000
  C   C153      1.0  0.7000354063784819  0.3328695063093598  0.5988898685928283  1.0000
  C   C154      1.0  0.7191772013082126  0.3323580359764037  0.6238286997443145  1.0000
  C   C155      1.0  0.7054232657959297  0.32705310937423127  0.6525228053296483  1.0000
  C   C156      1.0  0.6728766250027364  0.32108972317637247  0.6561253991573663  1.0000
  H   H101      1.0  0.6529395059929126  0.3266790497227266  0.5831495237343461  1.0000
  H   H102      1.0  0.7105690572979152  0.33716186570776085  0.5766812682162527  1.0000
  H   H103      1.0  0.7199052941520677  0.32725899145894816  0.6719683749484628  1.0000
  H   H104      1.0  0.6624668781942284  0.3165059659558376  0.6783315679164043  1.0000
  C   C157      1.0  0.5677650851006166  0.3483134200254288  0.46898972278555984  1.0000
  C   C158      1.0  0.5545864167508856  0.35942008304538503  0.44264866826524285  1.0000
  C   C159      1.0  0.5716849224968648  0.35637491150610195  0.4149462686303592  1.0000
  C   C160      1.0  0.6021902529317689  0.3428420775712358  0.4138241331932716  1.0000
  C   C161      1.0  0.6155490672680796  0.3323084319902341  0.4402326931561047  1.0000
  C   C162      1.0  0.5981858785877812  0.33469385818823  0.4677638352468335  1.0000
  H   H105      1.0  0.5309911825882286  0.36989943453798063  0.44361097822753576  1.0000
  H   H106      1.0  0.5613431021448626  0.36453186941461824  0.39453987297346765  1.0000
  H   H107      1.0  0.6393066333893267  0.32217125927799056  0.43935324922652325  1.0000
  H   H108      1.0  0.608620957157707  0.3265963983135468  0.48811592237020024  1.0000
  C   C163      1.0  0.4074716047285145  0.274920576615774  0.5180040369830345  1.0000
  C   C164      1.0  0.4369217190590963  0.26013413290476506  0.511809573346889  1.0000
  C   C165      1.0  0.45759545360646153  0.25426671813222895  0.5350115690333844  1.0000
  C   C166      1.0  0.44876784595786384  0.2628470295021806  0.5645817222541354  1.0000
  C   C167      1.0  0.41855072713211505  0.27598818417801246  0.5710891860608099  1.0000
  C   C168      1.0  0.39803498218096384  0.2823805847973417  0.5477406234377545  1.0000
  H   H109      1.0  0.4440907072203786  0.2539641440565583  0.488866805053912  1.0000
  H   H110      1.0  0.48029435756316613  0.24312362750260597  0.5298380135345228  1.0000
  H   H111      1.0  0.4113926685658399  0.2821522765317019  0.5940309712512334  1.0000
  H   H112      1.0  0.3749767979854596  0.29301298719981195  0.5527649154301825  1.0000
  C   C169      1.0  0.20120583532208824  0.3421030882116409  0.5363990923212671  1.0000
  C   C170      1.0  0.19772500261722553  0.36691913908353635  0.516668621275762  1.0000
  C   C171      1.0  0.16780523227846558  0.38163040694529016  0.514450746452809  1.0000
  C   C172      1.0  0.1415647313472059  0.3716063904280047  0.5320947853816276  1.0000
  C   C173      1.0  0.14486529377754853  0.3458881561873156  0.5505852969798546  1.0000
  C   C174      1.0  0.17457387965244195  0.33110103413214215  0.5526344610938668  1.0000
  H   H113      1.0  0.2181892381290144  0.3753163510406763  0.5038601072729387  1.0000
  H   H114      1.0  0.16525349235256118  0.4013757688733848  0.4998802178294611  1.0000
  H   H115      1.0  0.12449833436821019  0.33728037039301956  0.5632849226311233  1.0000
  H   H116      1.0  0.17708685184899434  0.31154145907430153  0.5674727895128033  1.0000
  C   C175      1.0  0.3467422853373614  0.6371711617435254  0.6707041452270176  1.0000
  C   C176      1.0  0.3380057020143879  0.6458952728889577  0.700199078841114  1.0000
  C   C177      1.0  0.34784765243298654  0.6281053233100253  0.7243812870102145  1.0000
  C   C178      1.0  0.36713574574072866  0.6017974650207069  0.7192086692064356  1.0000
  C   C179      1.0  0.3761090342691327  0.5930905075797311  0.689648121289061  1.0000
  C   C180      1.0  0.3657620908314327  0.6107047947237518  0.6653432060908244  1.0000
  H   H117      1.0  0.32276861111889155  0.6659168049143319  0.7042833229164375  1.0000
  H   H118      1.0  0.339738638790676  0.6344222168675129  0.7469463233451423  1.0000
  H   H119      1.0  0.3910165044106618  0.5727378175312005  0.6855425432880541  1.0000
  H   H120      1.0  0.3727969343091021  0.6040073943145154  0.6425325248030085  1.0000
  C   C181      1.0  0.29472250552176504  0.49396256555889695  0.5951987089095546  1.0000
  C   C182      1.0  0.2825147954149286  0.46667039113351183  0.5841351030188898  1.0000
  C   C183      1.0  0.30295558615784945  0.4446243564187602  0.5697683786039824  1.0000
  C   C184      1.0  0.3356473308838845  0.44993229160979475  0.5665144143148041  1.0000
  C   C185      1.0  0.3478645669464518  0.47686114356562925  0.5782339659012855  1.0000
  C   C186      1.0  0.3274522035671432  0.4988068358297858  0.592527686335669  1.0000
  H   H121      1.0  0.25720379511514196  0.4631015613523056  0.5859086714673701  1.0000
  H   H122      1.0  0.2934346329541727  0.4236478541846204  0.5611870834428662  1.0000
  H   H123      1.0  0.3731417097972703  0.48095593142374327  0.5760305273132493  1.0000
  H   H124      1.0  0.33722286236849525  0.519315026928834  0.6017582157346563  1.0000
  C   C187      1.0  0.3156132641719921  0.6156445746461603  0.41816470066483924  1.0000
  C   C188      1.0  0.3079828178640675  0.6314883666863242  0.44500325719509404  1.0000
  C   C189      1.0  0.3205275651694706  0.6212991335248707  0.4719984308624035  1.0000
  C   C190      1.0  0.341418468855788  0.595795266622057  0.4719967323722758  1.0000
  C   C191      1.0  0.3489657879877265  0.5798842278871722  0.44520078294920584  1.0000
  C   C192      1.0  0.3356764339659887  0.5894718362338293  0.4183982005314561  1.0000
  H   H125      1.0  0.2923728416950541  0.6516492178081146  0.4449300155314775  1.0000
  H   H126      1.0  0.3145024563976279  0.6336345261101398  0.4926480906664179  1.0000
  H   H127      1.0  0.36521592784767676  0.5602709864819483  0.44512658450352305  1.0000
  H   H128      1.0  0.3416120477083041  0.5770229535341131  0.3978338328279427  1.0000
  C   C193      1.0  0.37836271384162623  0.5880000704228594  0.21664238633025845  1.0000
  C   C194      1.0  0.3929842461258628  0.6035123796784719  0.1924059230344914  1.0000
  C   C195      1.0  0.3931106109766916  0.5910261745134636  0.1633687060623293  1.0000
  C   C196      1.0  0.37926804411269727  0.5625775847757523  0.15846899667166514  1.0000
  C   C197      1.0  0.36473064432729896  0.5468948388821795  0.18270544470851072  1.0000
  C   C198      1.0  0.3638282840343337  0.5598617426548909  0.21169893655639896  1.0000
  H   H129      1.0  0.4037031456254249  0.6255260752899936  0.19595185226433  1.0000
  H   H130      1.0  0.4039432320039067  0.603555600288489  0.14484385733362587  1.0000
  H   H131      1.0  0.35340702579506983  0.5251847417976311  0.17893224328871815  1.0000
  H   H132      1.0  0.3517291338273566  0.5481760482443112  0.23008435465118773  1.0000
  C   C199      1.0  0.6359865918564567  0.49465806474552787  0.27738510439182223  1.0000
  C   C200      1.0  0.6640127842930738  0.48002670068410447  0.26603753723763984  1.0000
  C   C201      1.0  0.6633736175057321  0.44987805883508475  0.2547433139892433  1.0000
  C   C202      1.0  0.6348435139030071  0.4339403504210064  0.25555740994115467  1.0000
  C   C203      1.0  0.6066743068694989  0.44875112901086417  0.26630867926859253  1.0000
  C   C204      1.0  0.6071974674754593  0.47920535712110385  0.2768720657728586  1.0000
  H   H133      1.0  0.6863614664206428  0.49185177098379806  0.2663696379937423  1.0000
  H   H134      1.0  0.6852222394890757  0.43845419617768816  0.24658079545547873  1.0000
  H   H135      1.0  0.5844413355504838  0.43669711009509343  0.2664355799185187  1.0000
  H   H136      1.0  0.5854356683852169  0.49036067540349915  0.28507960697432216  1.0000
  C   C205      1.0  0.5809431150157774  0.6985743319447673  0.31251612857482813  1.0000
  C   C206      1.0  0.5871986395988715  0.7295240468871611  0.3060975703779374  1.0000
  C   C207      1.0  0.5966198021056164  0.7493536540355668  0.32884380362455984  1.0000
  C   C208      1.0  0.5997789875122651  0.7382365613929718  0.3580832082371054  1.0000
  C   C209      1.0  0.5930845673470424  0.7074110053393452  0.3645859660740852  1.0000
  C   C210      1.0  0.5837232550565059  0.6875821895110062  0.3418347457893382  1.0000
  H   H137      1.0  0.5850143170342934  0.7381516016695051  0.2834325229981346  1.0000
  H   H138      1.0  0.6017751219666788  0.7731026164675479  0.32361723724477764  1.0000
  H   H139      1.0  0.5954621686654857  0.6987736370700564  0.3872007398100595  1.0000
  H   H140      1.0  0.5787413301118373  0.663809969363246  0.3469814564384275  1.0000
  C   C211      1.0  0.4759917912295636  0.5440417333466777  0.3758558404329168  1.0000
  C   C212      1.0  0.4596746175555164  0.5494800865750676  0.34965394598720256  1.0000
  C   C213      1.0  0.42984427501010336  0.5366120149540401  0.34630346701187886  1.0000
  C   C214      1.0  0.4168905426354719  0.5171972285661451  0.36850072844052034  1.0000
  C   C215      1.0  0.4336717089536027  0.5109628616079535  0.3943096423690071  1.0000
  C   C216      1.0  0.4629937400672511  0.5248124535336816  0.39822713202602295  1.0000
  H   H141      1.0  0.4695653107641145  0.5642956367322741  0.33230435878989584  1.0000
  H   H142      1.0  0.41699872954011424  0.5414831297658445  0.32634836664321987  1.0000
  H   H143      1.0  0.42366192704911887  0.4960201896753386  0.41154852548752396  1.0000
  H   H144      1.0  0.4754903835486323  0.5207105682616289  0.41861338651576957  1.0000
  C   C217      1.0  0.44056974469640875  0.8349643823029744  0.9197694003986989  1.0000
  C   C218      1.0  0.43474561000274536  0.8455153885688808  0.9492699198675348  1.0000
  C   C219      1.0  0.40695028820852996  0.8372918320465763  0.9655149762823719  1.0000
  C   C220      1.0  0.384506727256815  0.8191657379216878  0.9520923708899492  1.0000
  C   C221      1.0  0.39079048739379657  0.8077605426166199  0.9230120946395314  1.0000
  C   C222      1.0  0.4189572720564354  0.8153734802083841  0.9069463753908193  1.0000
  H   H145      1.0  0.45143463051578775  0.8604354796134237  0.9594838081331999  1.0000
  H   H146      1.0  0.4029972939921952  0.8451034303697348  0.9883808464647855  1.0000
  H   H147      1.0  0.3739362197739033  0.7930092466897005  0.9130701370295916  1.0000
  H   H148      1.0  0.42425821648807216  0.805643493842197  0.8849082917487243  1.0000
  C   C223      1.0  0.3419962274934613  0.893738905597846  0.8107303015723522  1.0000
  C   C224      1.0  0.34641656022072376  0.8639670940532106  0.7989758447824933  1.0000
  C   C225      1.0  0.3209739655481608  0.8436953809585528  0.7993432168374724  1.0000
  C   C226      1.0  0.2912262626108757  0.8529640127953818  0.8119752449609846  1.0000
  C   C227      1.0  0.2864426430951481  0.8832445408713713  0.8222577303942253  1.0000
  C   C228      1.0  0.3118064640120908  0.9036547571498686  0.8216574529102946  1.0000
  H   H149      1.0  0.36946825567763814  0.8565184796787157  0.7895732476092242  1.0000
  H   H150      1.0  0.32460253348699025  0.8206165236096545  0.7905142540457157  1.0000
  H   H151      1.0  0.2631494801093489  0.8911180730513406  0.8302642558407789  1.0000
  H   H152      1.0  0.3081599520750194  0.9269119069055379  0.8300867635916821  1.0000
  C   C229      1.0  0.4421857316482512  0.7496238131731421  0.7967603255582434  1.0000
  C   C230      1.0  0.4442188093229968  0.7555912449595426  0.8275573053315024  1.0000
  C   C231      1.0  0.44326640713405313  0.7311725596738388  0.8482468850778657  1.0000
  C   C232      1.0  0.43998917582448255  0.7009754747824413  0.838019966731736  1.0000
  C   C233      1.0  0.4410557357527532  0.6949110414526526  0.8071728782388822  1.0000
  C   C234      1.0  0.44207674894068755  0.7191798949446748  0.786556343272783  1.0000
  H   H153      1.0  0.4454304935979125  0.7790069174088359  0.8355382036917864  1.0000
  H   H154      1.0  0.4432498088989625  0.7358777215570462  0.872141141647174  1.0000
  H   H155      1.0  0.4405588957133485  0.6714094670447663  0.7991885140150141  1.0000
  H   H156      1.0  0.4422701902569192  0.7142107216011325  0.7627828158135272  1.0000
  C   C235      1.0  0.5347864438147507  0.054055608542701306  0.49660614115043905  1.0000
  C   C236      1.0  0.5436503604747166  0.05227625591434015  0.4659368284925546  1.0000
  C   C237      1.0  0.5574644141272664  0.07767474390761375  0.4513694266916019  1.0000
  C   C238      1.0  0.5613628094985933  0.10509037120985099  0.46725476037422675  1.0000
  C   C239      1.0  0.5508408676898888  0.10726574885882867  0.49748687943989406  1.0000
  C   C240      1.0  0.5386353129773633  0.08142031050311616  0.5124058636220692  1.0000
  H   H157      1.0  0.5405163402013338  0.031135131568585717  0.45362244130623935  1.0000
  H   H158      1.0  0.5647140109344627  0.07613927898856465  0.4277805306506815  1.0000
  H   H159      1.0  0.5527215451782801  0.12868746959421973  0.5095280967289069  1.0000
  H   H160      1.0  0.5320128975511053  0.08254623443532227  0.5361152900599855  1.0000
  C   C241      1.0  0.7075722787970364  0.9935592085380377  0.5247674963252088  1.0000
  C   C242      1.0  0.6917601317890512  0.011534779161527009  0.547115793381082  1.0000
  C   C243      1.0  0.666598387939746  0.9992783614333843  0.5645636211629723  1.0000
  C   C244      1.0  0.658021767774519  0.96869906859559  0.5604113444658695  1.0000
  C   C245      1.0  0.6740412556199525  0.9505791441689857  0.5382843571948657  1.0000
  C   C246      1.0  0.6984528165850671  0.9632128822320535  0.5200495497164787  1.0000
  H   H161      1.0  0.6985413848140108  0.03501816346673681  0.5507219522152289  1.0000
  H   H162      1.0  0.6542897318342605  0.013312754624740686  0.5817042152508258  1.0000
  H   H163      1.0  0.6675046596235662  0.9268589654763749  0.5351739435913423  1.0000
  H   H164      1.0  0.7108678282136649  0.9491943369088836  0.5029334877081922  1.0000
  C   C247      1.0  0.6032499688921457  0.13014457199366974  0.5935675370888516  1.0000
  C   C248      1.0  0.6013440860623118  0.12344864629436873  0.5629043187760694  1.0000
  C   C249      1.0  0.6055623828949502  0.1469579739640265  0.5414487446014261  1.0000
  C   C250      1.0  0.6106715242862094  0.17717838234616018  0.550658866741988  1.0000
  C   C251      1.0  0.6135992159049676  0.18350589561531805  0.5811300252357289  1.0000
  C   C252      1.0  0.6101543292373852  0.16006187099017502  0.6025261424152218  1.0000
  H   H165      1.0  0.5962273093359901  0.1003647622540731  0.5557207823393517  1.0000
  H   H166      1.0  0.6038917192787048  0.14202637840229249  0.5177680643712724  1.0000
  H   H167      1.0  0.6186732572362544  0.20654148274133377  0.5881784912213246  1.0000
  H   H168      1.0  0.6119596647319187  0.16528973280079412  0.626180427604049  1.0000
  C   C253      1.0  0.5056470639399508  0.9647092143182944  0.6871799672993449  1.0000
  C   C254      1.0  0.48660999229609164  0.939749117954245  0.6952885117547731  1.0000
  C   C255      1.0  0.4948429240557773  0.9203894887234837  0.7190408906254058  1.0000
  C   C256      1.0  0.5215388270565626  0.9264979875870353  0.7354440410867169  1.0000
  C   C257      1.0  0.5413654398152444  0.9506590181324334  0.7264885976305543  1.0000
  C   C258      1.0  0.5335286419234884  0.9696770039775712  0.7022595924527528  1.0000
  H   H169      1.0  0.4651999002983753  0.9356616240511064  0.6834553223684438  1.0000
  H   H170      1.0  0.4801319445122341  0.9011562658534022  0.7250400807539217  1.0000
  H   H171      1.0  0.5621950056978527  0.9553388849916431  0.7389793194009944  1.0000
  H   H172      1.0  0.5481836362355075  0.9890728240626334  0.6962637909139449  1.0000
  C   C259      1.0  0.7455906891228654  0.3648322376698511  0.8362790388086093  1.0000
  C   C260      1.0  0.7491120164746473  0.3337981954499839  0.8440015414083669  1.0000
  C   C261      1.0  0.7478702602918752  0.310998442459694  0.821831599594324  1.0000
  C   C262      1.0  0.7442128219294812  0.3192830203020622  0.7917735149257589  1.0000
  C   C263      1.0  0.7413296545874505  0.3503595036592159  0.7838988552561523  1.0000
  C   C264      1.0  0.7414668261647688  0.3731550767795541  0.8062854579289582  1.0000
  H   H173      1.0  0.752161311826144  0.32731491854756367  0.8671835732366001  1.0000
  H   H174      1.0  0.749958165203839  0.28695759114456865  0.8279744934145721  1.0000
  H   H175      1.0  0.7380515065373926  0.3567217795635245  0.7607039596945713  1.0000
  H   H176      1.0  0.738751515919523  0.3971923434981094  0.8003084370667001  1.0000
  C   C265      1.0  0.9344284751683116  0.37771224822973937  0.8915727957859798  1.0000
  C   C266      1.0  0.937339098091119  0.37351811541107455  0.9225050362706686  1.0000
  C   C267      1.0  0.9676216074997912  0.3689545032272978  0.9340961886788032  1.0000
  C   C268      1.0  0.9948954220839332  0.3681649983888396  0.9147328951424493  1.0000
  C   C269      1.0  0.9917412662471267  0.371761241303185  0.8837891055388175  1.0000
  C   C270      1.0  0.9616689024191349  0.37694457548275495  0.8722891544136336  1.0000
  H   H177      1.0  0.9163964217803793  0.3741930495738165  0.9375420591248633  1.0000
  H   H178      1.0  0.9699292064616837  0.3661584877567103  0.9580753067916837  1.0000
  H   H179      1.0  0.012462457612868238  0.3706673166071872  0.8686615914581088  1.0000
  H   H180      1.0  0.9595403810381555  0.3800857956564569  0.8483389477135668  1.0000
  C   C271      1.0  0.8225383246369439  0.25250669058233  0.9007327529504204  1.0000
  C   C272      1.0  0.8416250843411689  0.22565120747092632  0.8985241435354894  1.0000
  C   C273      1.0  0.8509311753394079  0.2135078882458085  0.8701432418467748  1.0000
  C   C274      1.0  0.84196649405413  0.2288183309455192  0.8440915174459228  1.0000
  C   C275      1.0  0.8221180807428667  0.2550322374694263  0.8463344620662006  1.0000
  C   C276      1.0  0.8117017321679746  0.2663027488545209  0.8746493349282153  1.0000
  H   H181      1.0  0.8501783810180469  0.2148492633596696  0.9185779075203597  1.0000
  H   H182      1.0  0.8662455793140507  0.1931703060934387  0.8683828080567334  1.0000
  H   H183      1.0  0.8147756842470517  0.2666772904804458  0.8262089145309893  1.0000
  H   H184      1.0  0.795394368083196  0.2858248763855352  0.8762760939868649  1.0000
  C   C277      1.0  0.6180353329605147  0.5745429796063183  0.09011654118946355  1.0000
  C   C278      1.0  0.6303035204414693  0.6042663508758663  0.08855765239063462  1.0000
  C   C279      1.0  0.6161096606310903  0.6282333566885716  0.10605836368130572  1.0000
  C   C280      1.0  0.589600182645068  0.6224672312434688  0.1251533319182141  1.0000
  C   C281      1.0  0.5775138739129142  0.5927519595758971  0.12693757658777804  1.0000
  C   C282      1.0  0.5917036050742858  0.5688792883551326  0.10948060500620871  1.0000
  H   H185      1.0  0.6508804353265748  0.608739031253191  0.07383834219165464  1.0000
  H   H186      1.0  0.6258520984501642  0.6510499378324069  0.1048952120862732  1.0000
  H   H187      1.0  0.5570091898408125  0.5881860741221544  0.14173440752481037  1.0000
  H   H188      1.0  0.5824646893060637  0.5460677339699028  0.11142110545206707  1.0000
  C   C283      1.0  0.5033054366129612  0.49751850038429885  0.017354162844583465  1.0000
  C   C284      1.0  0.4710422846308039  0.5059060627225367  0.017320610726649033  1.0000
  C   C285      1.0  0.4619000981836334  0.5369410972013285  0.014379571764123078  1.0000
  C   C286      1.0  0.48501353582596335  0.5594511882742478  0.010561408509687897  1.0000
  C   C287      1.0  0.5172854391957858  0.550946323107636  0.00978750605819867  1.0000
  C   C288      1.0  0.5264356988447111  0.5200367121100024  0.013759328108754687  1.0000
  H   H189      1.0  0.4531683969338609  0.4884792233328291  0.020073965459235454  1.0000
  H   H190      1.0  0.43697492081198613  0.543266478154355  0.014574619044003256  1.0000
  H   H191      1.0  0.5352559308332799  0.5682239823283431  0.006713439406441868  1.0000
  H   H192      1.0  0.5514211047248212  0.5135805321080503  0.013759489752531273  1.0000
  C   C289      1.0  0.5435442788009217  0.4788050205870495  0.1783062503309913  1.0000
  C   C290      1.0  0.5464993828535726  0.4812600408823373  0.20934209067552506  1.0000
  C   C291      1.0  0.5343476136710125  0.5073124840290535  0.22481698259236618  1.0000
  C   C292      1.0  0.5180186313766146  0.5304048608095497  0.2095157374271207  1.0000
  C   C293      1.0  0.5145374090710222  0.5277589582988892  0.17851635890565917  1.0000
  C   C294      1.0  0.5277814908633466  0.5021783157442355  0.1628183121699909  1.0000
  H   H193      1.0  0.5584495619993436  0.46308659753134124  0.22140736046659576  1.0000
  H   H194      1.0  0.5367611044438911  0.5089015159304098  0.2487549896137942  1.0000
  H   H195      1.0  0.5018193886698599  0.5455704744392342  0.16662773080002324  1.0000
  H   H196      1.0  0.5250862465346668  0.5003190668406097  0.1389375223309277  1.0000
  C   C295      1.0  0.6932431261101175  0.395346761166236  0.039877551015945034  1.0000
  C   C296      1.0  0.7114022552362554  0.3713233992228487  0.026220682005149376  1.0000
  C   C297      1.0  0.7423758065515239  0.37650082957229786  0.014644743476625921  1.0000
  C   C298      1.0  0.7554561685540252  0.40566965855803655  0.01690172263431844  1.0000
  C   C299      1.0  0.7376098086496838  0.4295411577157326  0.03130935176434635  1.0000
  C   C300      1.0  0.7064318430718683  0.4244559209185417  0.04266229461529614  1.0000
  H   H197      1.0  0.7013674206638061  0.348716521118977  0.024284302202921104  1.0000
  H   H198      1.0  0.7563142183729595  0.35777427766335673  0.004382202484497277  1.0000
  H   H199      1.0  0.7477016698204124  0.4521371287301995  0.03317273351818795  1.0000
  H   H200      1.0  0.6925549070034234  0.44309126956082084  0.05327730098786443  1.0000
  C   C301      1.0  0.9019511272511634  0.901999006128772  0.4049486612061931  1.0000
  C   C302      1.0  0.8874359258104547  0.9231517474261597  0.3860087620108177  1.0000
  C   C303      1.0  0.9060427993115283  0.9433146686545292  0.36857425089315166  1.0000
  C   C304      1.0  0.9391513485130951  0.9425872902099146  0.3703829769660278  1.0000
  C   C305      1.0  0.9537672927873095  0.9207037068758585  0.388552076804765  1.0000
  C   C306      1.0  0.9351347070858669  0.9003046088124456  0.40580117503003593  1.0000
  H   H201      1.0  0.8619037840631545  0.9234975623516569  0.3843411136997377  1.0000
  H   H202      1.0  0.8947328396200075  0.9591407543579638  0.35348482435802375  1.0000
  H   H203      1.0  0.9793869212434526  0.9199983150675838  0.38982258976289674  1.0000
  H   H204      1.0  0.9464203662937698  0.883806037322203  0.4202841827043136  1.0000
  C   C307      1.0  0.9262645346810672  0.8236180949698937  0.3040018525776949  1.0000
  C   C308      1.0  0.9242039878776075  0.8259677360765689  0.2728085022705323  1.0000
  C   C309      1.0  0.9094008550582987  0.8518744867531959  0.2603324044166664  1.0000
  C   C310      1.0  0.8965507885967291  0.8753639957696059  0.27900903392734555  1.0000
  C   C311      1.0  0.9001628233896377  0.8738410878325498  0.3100402120979663  1.0000
  C   C312      1.0  0.9149955990265995  0.8479628576437379  0.32254794756033317  1.0000
  H   H205      1.0  0.933528137357542  0.8074838403466329  0.25837469238883576  1.0000
  H   H206      1.0  0.9082433093227403  0.8537180851348185  0.23624963382303588  1.0000
  H   H207      1.0  0.8908046976369952  0.8922645989701297  0.3245375463999146  1.0000
  H   H208      1.0  0.9176299263029605  0.8468978187025921  0.34658164462262114  1.0000
  C   C313      1.0  0.7937534486429123  0.7771459385486383  0.41054049574544627  1.0000
  C   C314      1.0  0.7625607376103632  0.7736015028773817  0.4015896924779826  1.0000
  C   C315      1.0  0.7427760165974482  0.7996834769499708  0.3975502196470154  1.0000
  C   C316      1.0  0.7543140660458851  0.829211222279991  0.40253738177741855  1.0000
  C   C317      1.0  0.7846825653390627  0.8325056505575212  0.41329659944603  1.0000
  C   C318      1.0  0.8042023499550038  0.8065460355648214  0.41748554387196446  1.0000
  H   H209      1.0  0.7540978218601964  0.750831156482432  0.3971661964745117  1.0000
  H   H210      1.0  0.7189487134139819  0.7969929273703901  0.3900821874090791  1.0000
  H   H211      1.0  0.7935484707466748  0.8552085698438069  0.41772711108775534  1.0000
  H   H212      1.0  0.8275930778883275  0.8095240157186543  0.4257206308853184  1.0000
  C   C319      1.0  0.07744704603764307  0.7090511279853426  0.6593524616628113  1.0000
  C   C320      1.0  0.0736733530303213  0.6801863135761752  0.6726682457298462  1.0000
  C   C321      1.0  0.07608374049165212  0.676709604422202  0.7036626953436355  1.0000
  C   C322      1.0  0.0801630996943985  0.7023633061161696  0.7218461735681427  1.0000
  C   C323      1.0  0.0831041690006693  0.7315407561479691  0.7087638415492586  1.0000
  C   C324      1.0  0.08244354574042734  0.7347896015337015  0.6773644425218648  1.0000
  H   H213      1.0  0.06924555007600253  0.6603413642646214  0.6591037104290028  1.0000
  H   H214      1.0  0.07412624201961604  0.6541888029073719  0.7134312767770595  1.0000
  H   H215      1.0  0.08620750433783253  0.7515060673081373  0.7228141392065472  1.0000
  H   H216      1.0  0.08511088709299708  0.7572332043462519  0.6671273933751244  1.0000
  C   C325      1.0  0.011921508793105273  0.5425904392619048  0.6504605038230937  1.0000
  C   C326      1.0  0.9860663725621703  0.5427531411308808  0.6318126884949881  1.0000
  C   C327      1.0  0.9766484506176444  0.5153083204444202  0.6186706359606583  1.0000
  C   C328      1.0  0.993331337696153  0.48781960448257033  0.623962385267611  1.0000
  C   C329      1.0  0.01887814638745322  0.48753658943457956  0.6430245395489403  1.0000
  C   C330      1.0  0.028113802871298166  0.5149629972528079  0.6563881296650638  1.0000
  H   H217      1.0  0.9734049418397314  0.5641195342833306  0.6273605879817388  1.0000
  H   H218      1.0  0.9568827582955254  0.5155574328032105  0.603931835236072  1.0000
  H   H219      1.0  0.03181295439513199  0.4662954730312894  0.6471089804605906  1.0000
  H   H220      1.0  0.04856480431182364  0.5150565510496171  0.6702452195632135  1.0000
  C   C331      1.0  0.12802306019961163  0.6082805804330146  0.5314041066903874  1.0000
  C   C332      1.0  0.15665106995819794  0.5911840181237239  0.5310560025876495  1.0000
  C   C333      1.0  0.1853118415730219  0.6059623726338188  0.5361063232488992  1.0000
  C   C334      1.0  0.18533935134338847  0.6378940382497145  0.5405730822487215  1.0000
  C   C335      1.0  0.15682251210290973  0.6549712174983179  0.5398369413303262  1.0000
  C   C336      1.0  0.12817758384305372  0.6401378851332796  0.5358582669172085  1.0000
  H   H221      1.0  0.1566048208746114  0.5664898778517219  0.5278409224771439  1.0000
  H   H222      1.0  0.20728750235487056  0.5926728070906752  0.5366622026231114  1.0000
  H   H223      1.0  0.15676897742194934  0.6796733567206724  0.5431644494162258  1.0000
  H   H224      1.0  0.10623368953207833  0.6534817380825343  0.5362623787300641  1.0000
  C   C337      1.0  0.9518745887212042  0.6882562598980111  0.5326099051509304  1.0000
  C   C338      1.0  0.9331249045004124  0.6916646084112434  0.5075550677883862  1.0000
  C   C339      1.0  0.9389039449208005  0.7156127259418845  0.4869728332868759  1.0000
  C   C340      1.0  0.9635821989840994  0.735899047596073  0.49145076650933567  1.0000
  C   C341      1.0  0.9813422787771314  0.7333261005473949  0.517177856827366  1.0000
  C   C342      1.0  0.9752397558904637  0.7097356397166618  0.5379194389381244  1.0000
  H   H225      1.0  0.9148542480825748  0.6751843646633101  0.5035471163246709  1.0000
  H   H226      1.0  0.9249493368380284  0.7177133043432414  0.4672023469229179  1.0000
  H   H227      1.0  0.0001958570576661156  0.749244654879014  0.5208899685092835  1.0000
  H   H228      1.0  0.9890168021794329  0.7078149518662211  0.5577800547415471  1.0000
  C   C343      1.0  0.00010441701567120987  0.0858780205978169  0.11442515375110487  1.0000
  C   C344      1.0  0.982890327789045  0.11101770389572561  0.1269238658232349  1.0000
  C   C345      1.0  0.9985486940104925  0.13411673618441097  0.14203015987348086  1.0000
  C   C346      1.0  0.031614782074048  0.1325322562159206  0.14389754566923854  1.0000
  C   C347      1.0  0.04886417419829758  0.10701287877301724  0.13207533101967675  1.0000
  C   C348      1.0  0.03296491167444393  0.08331642957412932  0.1179628024052537  1.0000
  H   H229      1.0  0.9575878981972492  0.11298684875402103  0.12467150004855063  1.0000
  H   H230      1.0  0.9851815840704111  0.15380437040949457  0.15124805113228282  1.0000
  H   H231      1.0  0.07443891425601779  0.10577407148875641  0.13351670968420307  1.0000
  H   H232      1.0  0.04627680924433952  0.06364823545454956  0.1087082220351604  1.0000
  C   C349      1.0  0.14457045101671917  0.06718736740638831  0.06709856231501932  1.0000
  C   C350      1.0  0.112318461258118  0.07485129947404956  0.06478288966532797  1.0000
  C   C351      1.0  0.09063372574350768  0.05201453683953594  0.05814224393660549  1.0000
  C   C352      1.0  0.10093692787304742  0.02132734808826875  0.054969566922798085  1.0000
  C   C353      1.0  0.1332823740057319  0.01374941683825015  0.056669191833667025  1.0000
  C   C354      1.0  0.1551370940641467  0.036737784982445065  0.06212896571297555  1.0000
  H   H233      1.0  0.10391099115719295  0.09815524524731911  0.06849633014093204  1.0000
  H   H234      1.0  0.0656422203712792  0.057783150605768885  0.05669338003441981  1.0000
  H   H235      1.0  0.14158015565710416  0.9902287305134901  0.05357169236421977  1.0000
  H   H236      1.0  0.1801289033458697  0.030659170217579135  0.06342120810061624  1.0000
  C   C355      1.0  0.09699727639997559  0.2169764767050427  0.015542731391885  1.0000
  C   C356      1.0  0.07218612121589985  0.23185794115878425  0.0009704975639139857  1.0000
  C   C357      1.0  0.056927850821477444  0.21691884497482658  0.9779108291488121  1.0000
  C   C358      1.0  0.06663311921289639  0.18714534421302134  0.9690155519101609  1.0000
  C   C359      1.0  0.09139955016865843  0.17213338492290123  0.9835883622507974  1.0000
  C   C360      1.0  0.1064703609865134  0.18699159170627716  0.006978422002450246  1.0000
  H   H237      1.0  0.06408327275366088  0.2546365085882331  0.007993206670072972  1.0000
  H   H238      1.0  0.03745083402767113  0.22839267284191306  0.9670531130976894  1.0000
  H   H239      1.0  0.09816478052161418  0.14874570503005374  0.9774558736535774  1.0000
  H   H240      1.0  0.1254677084715196  0.17540387136725072  0.018371251959610646  1.0000
  C   C361      1.0  0.43366605790888985  0.40117147786902035  0.23439927735778474  1.0000
  C   C362      1.0  0.46675331913185414  0.40359927538857404  0.2307609016404047  1.0000
  C   C363      1.0  0.48541473187048984  0.4051199161247776  0.25610542892300425  1.0000
  C   C364      1.0  0.47100755813509176  0.40430935509894755  0.2850977971072766  1.0000
  C   C365      1.0  0.43800099357577654  0.40212889797796486  0.2886713789513948  1.0000
  C   C366      1.0  0.4194483622787593  0.4002292757380497  0.2634160187080386  1.0000
  H   H241      1.0  0.4779441079145356  0.4046803637655642  0.20839452409237716  1.0000
  H   H242      1.0  0.5108193776685029  0.4078763972708183  0.2531375807275171  1.0000
  H   H243      1.0  0.42668352985630686  0.40194990526112606  0.31103209554591715  1.0000
  H   H244      1.0  0.39404358606148404  0.39898963914491453  0.2665790195334678  1.0000
  C   C367      1.0  0.3375524095406911  0.3351982717957489  0.3365100670701128  1.0000
  C   C368      1.0  0.32909950941333777  0.3219825639806771  0.36433883224274727  1.0000
  C   C369      1.0  0.321986528596946  0.3407150849467566  0.389596854136204  1.0000
  C   C370      1.0  0.3234070624447895  0.37275552116566935  0.3871588892953979  1.0000
  C   C371      1.0  0.333203108667792  0.38594163278008337  0.35963571085283763  1.0000
  C   C372      1.0  0.3404950755065486  0.36717174596338614  0.33441831403529093  1.0000
  H   H245      1.0  0.3272257424990091  0.2972265963651301  0.3662450695175562  1.0000
  H   H246      1.0  0.31452360167697097  0.3302905986159871  0.410693672017247  1.0000
  H   H247      1.0  0.3350649129579974  0.410701944858497  0.35778227778129906  1.0000
  H   H248      1.0  0.3485349620031924  0.37750192899867374  0.31351166254687546  1.0000
  C   C373      1.0  0.2467759734907325  0.4380137739087629  0.23888832133600382  1.0000
  C   C374      1.0  0.218209184624538  0.4549865361869246  0.2424525452816005  1.0000
  C   C375      1.0  0.2174527270431424  0.48338756226268315  0.2575098516762924  1.0000
  C   C376      1.0  0.24519860322750506  0.49473381269360317  0.26924025454877126  1.0000
  C   C377      1.0  0.27392694351861624  0.4781854800785267  0.26482774464004816  1.0000
  C   C378      1.0  0.2747722842421954  0.4500170594220761  0.24936925549996605  1.0000
  H   H249      1.0  0.19650955640153  0.4458968925563867  0.23422692207465654  1.0000
  H   H250      1.0  0.19519167624729927  0.4961800917242429  0.26085416845318427  1.0000
  H   H251      1.0  0.2953296349442342  0.48662943767441597  0.27392553311947193  1.0000
  H   H252      1.0  0.29701272778873206  0.43748418406286715  0.24601411258049946  1.0000
  C   C379      1.0  0.23111553396047385  0.22731495853099176  0.16904442818465196  1.0000
  C   C380      1.0  0.24401537145138197  0.2327169367704765  0.14001681468181362  1.0000
  C   C381      1.0  0.2717911279352362  0.25003943133501655  0.13608368592300737  1.0000
  C   C382      1.0  0.28655286000089475  0.26203464470317944  0.16110126449964587  1.0000
  C   C383      1.0  0.27414137213796524  0.25572115872138373  0.19002694441828788  1.0000
  C   C384      1.0  0.24653988356744458  0.23842184138886593  0.19397190790549868  1.0000
  H   H253      1.0  0.2322786911604184  0.22412447438999383  0.12068302796953745  1.0000
  H   H254      1.0  0.28145771595452407  0.2547401869510183  0.11364070067913887  1.0000
  H   H255      1.0  0.28588635520666056  0.2640366574960104  0.20942975830709795  1.0000
  H   H256      1.0  0.23684552756734645  0.23397742789204512  0.21647077641131096  1.0000
  N   N1        1.0  0.19717944457966002  0.10994179768225121  0.9890950828709075  1.0000
  C   C385      1.0  0.2128391684890895  0.1330659723824439  0.0074638870062480045  1.0000
  C   C386      1.0  0.2061549469722094  0.11462115922201677  0.9569161175156111  1.0000
  C   C387      1.0  0.16229279737161603  0.11352038168152245  0.9937602143180394  1.0000
  C   C388      1.0  0.20736469433559224  0.07863446466271817  0.9982180287124308  1.0000
  H   H257      1.0  0.2054045397078139  0.15695034316904977  0.0013922771832706182  1.0000
  H   H258      1.0  0.2392085379045673  0.1311672607426173  0.004498411604937136  1.0000
  H   H259      1.0  0.2066399283672567  0.13004072125085764  0.031899571186986275  1.0000
  H   H260      1.0  0.19466091915791864  0.0975203962606983  0.9424776577709566  1.0000
  H   H261      1.0  0.1986853091909487  0.13795817610619499  0.9491634126917672  1.0000
  H   H262      1.0  0.23231573595567487  0.11208241154235354  0.952493311313766  1.0000
  H   H263      1.0  0.1496243119583648  0.09575752540054006  0.9811671501555632  1.0000
  H   H264      1.0  0.15383923332435331  0.13648539348895872  0.9860752390480025  1.0000
  H   H265      1.0  0.15470047385908045  0.11118921309367402  0.017900225055344166  1.0000
  H   H266      1.0  0.1955653695308891  0.060598335001550874  0.985176348105807  1.0000
  H   H267      1.0  0.20119613279920334  0.07438306064240652  0.022395357697213347  1.0000
  H   H268      1.0  0.23351514640026932  0.0749976355317632  0.9947367834658172  1.0000
  N   N2        1.0  0.003491036139828374  0.618415916082194  0.7468694857102396  1.0000
  C   C389      1.0  0.9711211380997931  0.6162728546159327  0.7609437123788771  1.0000
  C   C390      1.0  0.017871946266110994  0.5871572172547516  0.7432072644332414  1.0000
  C   C391      1.0  0.02324426618596931  0.6369563859063482  0.7663664874686502  1.0000
  C   C392      1.0  0.0016419427614431381  0.6332129776544029  0.7170345083617121  1.0000
  H   H269      1.0  0.9596680470516723  0.639515326322327  0.7639866579499696  1.0000
  H   H270      1.0  0.9716169165837673  0.6051942241297558  0.7834910115503133  1.0000
  H   H271      1.0  0.9555631912496989  0.6023793336308266  0.7468450679151224  1.0000
  H   H272      1.0  0.0035901676027814133  0.5724870485012112  0.7286284729737061  1.0000
  H   H273      1.0  0.0422314736531999  0.5879184962073399  0.7323209497463777  1.0000
  H   H274      1.0  0.020036335505041247  0.5753751243369846  0.765265081256153  1.0000
  H   H275      1.0  0.01399633934510347  0.6611201252057519  0.7688055599351288  1.0000
  H   H276      1.0  0.04804334088006024  0.6382175161474584  0.7570017442999669  1.0000
  H   H277      1.0  0.02446834982671464  0.6268733876930936  0.7892981438262635  1.0000
  H   H278      1.0  0.0252410704429189  0.633188010547807  0.7047475775709382  1.0000
  H   H279      1.0  0.992958269693733  0.6575764952524465  0.7189049027619278  1.0000
  H   H280      1.0  0.9854945931536369  0.6206963680088023  0.7023403903888372  1.0000
  N   N3        1.0  0.42496496389793  0.6018636721753293  0.9275706395903809  1.0000
  C   C393      1.0  0.39296308024716814  0.6140346250687583  0.9210362295429281  1.0000
  C   C394      1.0  0.44388896540399314  0.6268418881528838  0.9398174318904964  1.0000
  C   C395      1.0  0.4410226354153101  0.5898567673539471  0.8995633693985302  1.0000
  C   C396      1.0  0.42194614877377057  0.5767281594445202  0.9498413972861858  1.0000
  H   H281      1.0  0.3784226696938761  0.5960003326826762  0.9108788417069046  1.0000
  H   H282      1.0  0.39428308860786565  0.6335525904658899  0.9049250342068752  1.0000
  H   H283      1.0  0.37985693299122025  0.6225532687408764  0.9418256328413198  1.0000
  H   H284      1.0  0.4327218887675566  0.6361249983861533  0.9612316125195853  1.0000
  H   H285      1.0  0.4683069453644022  0.6184808233173122  0.9447544161831678  1.0000
  H   H286      1.0  0.44632289540436876  0.6463121015615515  0.9236292911308895  1.0000
  H   H287      1.0  0.46532498360404817  0.5806262207663531  0.9037001540033851  1.0000
  H   H288      1.0  0.44356005940412047  0.6082535423136176  0.8822211875602063  1.0000
  H   H289      1.0  0.42741854749257796  0.570921230845302  0.8897014972138528  1.0000
  H   H290      1.0  0.41067358849853736  0.5851949011533485  0.9715296357832547  1.0000
  H   H291      1.0  0.4456456827013892  0.5665766163087946  0.9549040376756149  1.0000
  H   H292      1.0  0.40710213046348903  0.5578435401131548  0.9416263400980842  1.0000
  N   N4        1.0  0.20947418470145993  0.33238526428043397  0.17349671585526524  1.0000
  C   C397      1.0  0.188282744264259  0.3599603946232864  0.17271405445098742  1.0000
  C   C398      1.0  0.24155702397943574  0.3402064179600491  0.16128387056317414  1.0000
  C   C399      1.0  0.19657841355319391  0.30762462837073007  0.15510876259299225  1.0000
  C   C400      1.0  0.21152080210084906  0.32168986121280496  0.20490375000071345  1.0000
  H   H293      1.0  0.16387941494201627  0.35489516677796473  0.18178693937694324  1.0000
  H   H294      1.0  0.1864092892411809  0.36877665326127196  0.1493738981588035  1.0000
  H   H295      1.0  0.1973941485583216  0.3790421605503727  0.18646735796944178  1.0000
  H   H296      1.0  0.241175304673414  0.34774054704508356  0.13742301384998765  1.0000
  H   H297      1.0  0.25187883198577904  0.35910180459586777  0.17432636027377849  1.0000
  H   H298      1.0  0.2583676882972561  0.3201495638699496  0.16216188048210722  1.0000
  H   H299      1.0  0.2123040330845977  0.28674679315439994  0.1550506373067412  1.0000
  H   H300      1.0  0.19449284867820982  0.3147953497146445  0.1312753035906787  1.0000
  H   H301      1.0  0.17268837999584122  0.3005185520252134  0.16399835383294697  1.0000
  H   H302      1.0  0.18785945380118627  0.31508942324751615  0.21471709579329376  1.0000
  H   H303      1.0  0.2209333578540717  0.33986693520156563  0.21950686443213335  1.0000
  H   H304      1.0  0.2276929440506711  0.3011742733309204  0.20632747692952297  1.0000
  N   N5        1.0  0.5228575605377667  0.6580819022990294  0.06022970552981999  1.0000
  C   C401      1.0  0.5242291084594156  0.624214536391237  0.06358654528823204  1.0000
  C   C402      1.0  0.5053194587369799  0.666473983256339  0.033304093008577285  1.0000
  C   C403      1.0  0.5555709950055614  0.6695707246151686  0.05691453005720448  1.0000
  C   C404      1.0  0.5064409670252705  0.6721676361918978  0.0871194175087251  1.0000
  H   H305      1.0  0.5367855019833372  0.6172502884923666  0.0840375858418676  1.0000
  H   H306      1.0  0.536915098366506  0.6128877524215338  0.043887385433363235  1.0000
  H   H307      1.0  0.5000798343203053  0.6144746056725554  0.06543393119361784  1.0000
  H   H308      1.0  0.5047447388187699  0.6918863819333966  0.029777058479950158  1.0000
  H   H309      1.0  0.5163437510787177  0.6553856396185193  0.012668369239363209  1.0000
  H   H310      1.0  0.4802423341378494  0.658891345999304  0.0355276100987838  1.0000
  H   H311      1.0  0.5555823945600017  0.6950091729531922  0.054052707857261906  1.0000
  H   H312      1.0  0.568802605228941  0.6591389315451198  0.03705276456210793  1.0000
  H   H313      1.0  0.5692248396121312  0.6639272762184444  0.0770685009508425  1.0000
  H   H314      1.0  0.4817883510759483  0.6636688387160511  0.0904900345920816  1.0000
  H   H315      1.0  0.5046588786675696  0.6977266354044304  0.08508846252272417  1.0000
  H   H316      1.0  0.5191875966940181  0.6667467473703474  0.10787390030226995  1.0000
  N   N6        1.0  0.989463946448193  0.9160900017785588  0.27709873030708826  1.0000
  C   C405      1.0  0.007427548082193258  0.9299427081297964  0.2513555052461012  1.0000
  C   C406      1.0  0.007366945470261621  0.9195770387288218  0.3046763833001777  1.0000
  C   C407      1.0  0.9850056449786121  0.8829950581390005  0.27123755949791395  1.0000
  C   C408      1.0  0.9580532216463845  0.931861741673348  0.2812506791803801  1.0000
  H   H317      1.0  0.9942591912382402  0.9284952378496734  0.23032176401728618  1.0000
  H   H318      1.0  0.030873136539897095  0.9180178362213338  0.24687891704877996  1.0000
  H   H319      1.0  0.011852837921095816  0.9547516694570934  0.25541549672254005  1.0000
  H   H320      1.0  0.01144500587319186  0.9442832494543543  0.3096750048420682  1.0000
  H   H321      1.0  0.9940409616444869  0.9100543300401274  0.3246958565335079  1.0000
  H   H322      1.0  0.03096216687406894  0.9075134047003639  0.30263650197604514  1.0000
  H   H323      1.0  0.008168156621334743  0.8703888876255209  0.26750928576225286  1.0000
  H   H324      1.0  0.971050782995802  0.8794171309753408  0.2509366856584554  1.0000
  H   H325      1.0  0.9720251867473915  0.8718536095447337  0.2905435353251165  1.0000
  H   H326      1.0  0.9605519790570336  0.9570076184562519  0.28508814812095223  1.0000
  H   H327      1.0  0.9442837436447529  0.922780575044763  0.3011810250619642  1.0000
  H   H328      1.0  0.943322453057411  0.9288791932413325  0.2613441200012718  1.0000
  N   N7        1.0  0.8421207834827487  0.37636336349215316  0.7936079183667712  1.0000
  C   C409      1.0  0.876911906210129  0.3796447565726673  0.7891737456843627  1.0000
  C   C410      1.0  0.8303222503030016  0.3960812669373956  0.8190268956387311  1.0000
  C   C411      1.0  0.8349760317228566  0.34379412058770553  0.8001642993596176  1.0000
  C   C412      1.0  0.8262739846511309  0.38596788235068685  0.7660515911022138  1.0000
  H   H329      1.0  0.8868094232492789  0.36454497207265063  0.770631603820274  1.0000
  H   H330      1.0  0.8893989696019928  0.3733078542704275  0.8099075348914627  1.0000
  H   H331      1.0  0.8831506268468394  0.40375320059947634  0.783436079821788  1.0000
  H   H332      1.0  0.8352331843221141  0.4207907145261596  0.8147496711534068  1.0000
  H   H333      1.0  0.8042207664319481  0.39410852196555896  0.8232206007034206  1.0000
  H   H334      1.0  0.8418193004890744  0.38969776586967936  0.8402030673897313  1.0000
  H   H335      1.0  0.8089996574872442  0.34059326758308  0.8044400803866487  1.0000
  H   H336      1.0  0.8471447353814265  0.3354879001211292  0.8203834445776816  1.0000
  H   H337      1.0  0.8428040166776978  0.3284833652869497  0.780947831124488  1.0000
  H   H338      1.0  0.8346246510850484  0.37164238214122  0.7463877051167817  1.0000
  H   H339      1.0  0.8310742409438838  0.4103933567631235  0.7603003743883404  1.0000
  H   H340      1.0  0.8000114423999906  0.3835382712934273  0.7686763251167601  1.0000
  N   N8        1.0  0.8326030542487396  0.9921381148459205  0.44141057208847606  1.0000
  C   C413      1.0  0.8213413005577341  0.9807950358001141  0.4125044940794846  1.0000
  C   C414      1.0  0.8669948073785614  0.9850256976599601  0.4432769549845764  1.0000
  C   C415      1.0  0.8149992998119479  0.9768572290887854  0.46650535217529077  1.0000
  C   C416      1.0  0.8269661505437002  0.0258151952116279  0.4435649976131017  1.0000
  H   H341      1.0  0.7958834878027511  0.9871912153425799  0.40978530894790527  1.0000
  H   H342      1.0  0.8238179238580876  0.9552907163723182  0.41079648725805135  1.0000
  H   H343      1.0  0.8350371474480616  0.9907146574418013  0.3930086081368814  1.0000
  H   H344      1.0  0.8760904985044451  0.9932586865581957  0.4649493821201283  1.0000
  H   H345      1.0  0.8721892019712257  0.959800965261879  0.4415157148285059  1.0000
  H   H346      1.0  0.8812085258777533  0.9964138991341664  0.42494824775769063  1.0000
  H   H347      1.0  0.8191542864725536  0.9514361102960963  0.4659331808925203  1.0000
  H   H348      1.0  0.7889424560123136  0.9813772719572127  0.46562312502539194  1.0000
  H   H349      1.0  0.8224723074748176  0.985355305482393  0.4886658192780652  1.0000
  H   H350      1.0  0.8346700960623326  0.0349515087933463  0.46534535364147206  1.0000
  H   H351      1.0  0.8012766465901912  0.032085084940331576  0.44215000867599036  1.0000
  H   H352      1.0  0.8404023222381904  0.03827405477272495  0.42533963058520546  1.0000
  N   N9        1.0  0.9553130578519785  0.1465049542835155  0.28108066424168004  1.0000
  C   C417      1.0  0.9798989885562028  0.12325410742685583  0.2885837959686754  1.0000
  C   C418      1.0  0.9616999921129606  0.17593417181983262  0.2961578714721007  1.0000
  C   C419      1.0  0.9236363856774259  0.1357036803227234  0.29157536964985753  1.0000
  C   C420      1.0  0.9560220984089914  0.15107701074721192  0.24809333935128633  1.0000
  H   H353      1.0  0.9758913283121818  0.1008088628236965  0.27736422557288704  1.0000
  H   H354      1.0  0.9797924859861631  0.11890438338408438  0.31326912248376265  1.0000
  H   H355      1.0  0.0041428947931119176  0.13067729570130426  0.2811247634631014  1.0000
  H   H356      1.0  0.9611109937452084  0.17320430599756764  0.32109833125630105  1.0000
  H   H357      1.0  0.9855069705086733  0.18471893246072701  0.2889399415641028  1.0000
  H   H358      1.0  0.9436072411689451  0.1940113283338447  0.2909087755270356  1.0000
  H   H359      1.0  0.9223244236224611  0.1315648525494293  0.31635617772192265  1.0000
  H   H360      1.0  0.9179735109956485  0.11373812387125404  0.28041507379651226  1.0000
  H   H361      1.0  0.9044367163511504  0.1527056948758605  0.28652646067688475  1.0000
  H   H362      1.0  0.9795048095647066  0.1594851784921738  0.2393850107854752  1.0000
  H   H363      1.0  0.9373814522480509  0.16800451431385932  0.24145177044667732  1.0000
  H   H364      1.0  0.951786325021859  0.12915360693171807  0.23602893469940806  1.0000
  N   N10       1.0  0.4246094890370247  0.6291782995699555  0.4012551959426402  1.0000
  C   C421      1.0  0.3922671975012682  0.6428662397987427  0.39927933461357723  1.0000
  C   C422      1.0  0.4398016828472405  0.6261262623837055  0.370726822798407  1.0000
  C   C423      1.0  0.4225914123211656  0.598433698915558  0.41534629236716036  1.0000
  C   C424      1.0  0.44387401427717066  0.6492309655168275  0.41976664510522166  1.0000
  H   H365      1.0  0.3796816425583425  0.6446411043039084  0.421842506556519  1.0000
  H   H366      1.0  0.3772573945374354  0.6287482410499271  0.3848794694950529  1.0000
  H   H367      1.0  0.3927961935121319  0.6663780774470845  0.38939236223895335  1.0000
  H   H368      1.0  0.4260098420934439  0.6108499602417088  0.3562890650039809  1.0000
  H   H369      1.0  0.4415399677053274  0.6488418632183466  0.35928613781261415  1.0000
  H   H370      1.0  0.46432228889942007  0.6159740106879009  0.37146299117800613  1.0000
  H   H371      1.0  0.44660983030913265  0.587544758636633  0.4172573279325659  1.0000
  H   H372      1.0  0.40824810202523  0.5825791108025378  0.4019870184060765  1.0000
  H   H373      1.0  0.4113788183690542  0.5998790916350274  0.4384967679827913  1.0000
  H   H374      1.0  0.44603836809427433  0.6726381706007741  0.40979694848442616  1.0000
  H   H375      1.0  0.46840431655821424  0.6394544478028871  0.4217870666016787  1.0000
  H   H376      1.0  0.4330003247089829  0.651966528820142  0.44296541619487434  1.0000
  N   N11       1.0  0.15386963503379666  0.039366453650700794  0.1583456270042694  1.0000
  C   C425      1.0  0.17587977477510947  0.025717583973894786  0.13487039356586739  1.0000
  C   C426      1.0  0.17015439491537626  0.06399566401670409  0.17420085334866953  1.0000
  C   C427      1.0  0.14408615105118316  0.015160297936062772  0.17997062508395323  1.0000
  C   C428      1.0  0.12544110697014105  0.05255615668205027  0.14428953716573023  1.0000
  H   H377      1.0  0.19693781739345667  0.014310949215934343  0.14476503708723334  1.0000
  H   H378      1.0  0.18486952713823485  0.043503651872119464  0.11883880598492735  1.0000
  H   H379      1.0  0.16398896099025637  0.007847802785204472  0.12170606221454047  1.0000
  H   H380      1.0  0.15412305173733942  0.07522175272243148  0.19177891691917517  1.0000
  H   H381      1.0  0.1915735084275751  0.0548324493036878  0.18529502338193568  1.0000
  H   H382      1.0  0.1782329102663431  0.08237639380725881  0.15829363867535257  1.0000
  H   H383      1.0  0.13177097625504555  0.996285065545268  0.1685884555676081  1.0000
  H   H384      1.0  0.12762806234901095  0.02452906307166547  0.19820019629058822  1.0000
  H   H385      1.0  0.1650259893638512  0.004327063851137458  0.19060573088614807  1.0000
  H   H386      1.0  0.13183962084803733  0.07197607689620478  0.12906468605259802  1.0000
  H   H387      1.0  0.10762095291339012  0.06178020641160287  0.1614613326465456  1.0000
  H   H388      1.0  0.11349606449610948  0.03507583324118646  0.1306245142131167  1.0000
  N   N12       1.0  0.6151928794339083  0.36722610359779695  0.15989101646066195  1.0000
  C   C429      1.0  0.6354177675601366  0.35699700984146915  0.13353049825613694  1.0000
  C   C430      1.0  0.6194886099465268  0.3457569120127367  0.1852339308407942  1.0000
  C   C431      1.0  0.5814347444187493  0.36782450120347115  0.15202759072080707  1.0000
  C   C432      1.0  0.6243599953182504  0.3984752294071248  0.16881165193615355  1.0000
  H   H389      1.0  0.6325793041170656  0.3727421853883371  0.11400461550509755  1.0000
  H   H390      1.0  0.6292587903400432  0.33351185776612796  0.1260333770693296  1.0000
  H   H391      1.0  0.6610811324049779  0.3565824575407332  0.13861909432853303  1.0000
  H   H392      1.0  0.6039422433792225  0.35260873177078217  0.20519354359341468  1.0000
  H   H393      1.0  0.6135656390175297  0.3217739585162777  0.17916526769919283  1.0000
  H   H394      1.0  0.6444245322433607  0.3456095227767992  0.1926461737450944  1.0000
  H   H395      1.0  0.5656034436822708  0.37601601870973655  0.17133016639980214  1.0000
  H   H396      1.0  0.5735387258482567  0.3446208079875828  0.1453619592243649  1.0000
  H   H397      1.0  0.5773234887975007  0.38381678814645775  0.1330195852529119  1.0000
  H   H398      1.0  0.6225270542623648  0.4150030223193507  0.1499036653140049  1.0000
  H   H399      1.0  0.6491907485326516  0.3987006810586534  0.1764114302015598  1.0000
  H   H400      1.0  0.6085674472081514  0.40754949511814675  0.18773540400641342  1.0000
  N   N13       1.0  0.8887645140458169  0.12461023989811623  0.6676349356975242  1.0000
  C   C433      1.0  0.8807128904284568  0.14040718389177836  0.6394561071604041  1.0000
  C   C434      1.0  0.9089919205068372  0.14460058026355097  0.6852624181307032  1.0000
  C   C435      1.0  0.9059874299992993  0.09527510930837538  0.6604458146442453  1.0000
  C   C436      1.0  0.8592281978356604  0.11809103153749603  0.6854712397326355  1.0000
  H   H401      1.0  0.8645892125133383  0.12642257711723937  0.626012158728107  1.0000
  H   H402      1.0  0.9023601784465302  0.14504408393042373  0.6250152379343654  1.0000
  H   H403      1.0  0.8683720476326131  0.16297045318213205  0.644193250309602  1.0000
  H   H404      1.0  0.9158627416956201  0.13318623077181638  0.7065036722007514  1.0000
  H   H405      1.0  0.931349767077879  0.15035034566952585  0.6723722891106629  1.0000
  H   H406      1.0  0.896357420984273  0.16669622455806266  0.6915546919629217  1.0000
  H   H407      1.0  0.9126558557622274  0.08300393717488541  0.6813374850700531  1.0000
  H   H408      1.0  0.9283098713317879  0.09918745708844905  0.6467273658280359  1.0000
  H   H409      1.0  0.8910952863384412  0.07949166518673056  0.6475458808922127  1.0000
  H   H410      1.0  0.8642827030789175  0.10514422747808093  0.7063617051564529  1.0000
  H   H411      1.0  0.8429959997170362  0.10390479605666002  0.6724355985398239  1.0000
  H   H412      1.0  0.846021881948143  0.13969894919966472  0.6923063559025261  1.0000
  N   N14       1.0  0.11101417543592061  0.9235598419361516  0.9781755962565363  1.0000
  C   C437      1.0  0.094197640178594  0.9054171773486707  0.0018115577616544254  1.0000
  C   C438      1.0  0.1451831703473718  0.9148159446299772  0.9769042838192196  1.0000
  C   C439      1.0  0.107323204757973  0.9567879127516641  0.9851646904302036  1.0000
  C   C440      1.0  0.09741414950093197  0.9171092842285201  0.9488414421375732  1.0000
  H   H413      1.0  0.09637107843944318  0.8802009938677022  0.9971410589152446  1.0000
  H   H414      1.0  0.06843280483689584  0.911789736057624  0.003922538964661548  1.0000
  H   H415      1.0  0.10420211908910157  0.909146407682249  0.0241159647389666  1.0000
  H   H416      1.0  0.14883390935075344  0.8898316076786639  0.9721621937556124  1.0000
  H   H417      1.0  0.15863385369309888  0.9276057725260254  0.9590062271938616  1.0000
  H   H418      1.0  0.1562662692554757  0.9196584311607257  0.9986113568732421  1.0000
  H   H419      1.0  0.11920919895813267  0.9711823904529898  0.9674623242305614  1.0000
  H   H420      1.0  0.1179491247961317  0.9624975154849842  0.006888347362250968  1.0000
  H   H421      1.0  0.08182784434648928  0.9642462653375439  0.9872029243014095  1.0000
  H   H422      1.0  0.07175549073378075  0.9238680982377933  0.9489031109642828  1.0000
  H   H423      1.0  0.09958665136439297  0.8921626438738838  0.9430393193914919  1.0000
  H   H424      1.0  0.10983265207610178  0.9299274338158425  0.9303537648880394  1.0000
  N   N15       1.0  0.7660899198633416  0.19966697064974032  0.7655534315026529  1.0000
  C   C441      1.0  0.7494539680877917  0.2159310772959871  0.7415690530249355  1.0000
  C   C442      1.0  0.7973113092499089  0.18817727843434476  0.7532933831866906  1.0000
  C   C443      1.0  0.7468296532020883  0.1735650712823987  0.7764521760422786  1.0000
  C   C444      1.0  0.7709767574270586  0.22099877986692848  0.7907666033905939  1.0000
  H   H425      1.0  0.7259235392098435  0.22551521897636978  0.7499477563231299  1.0000
  H   H426      1.0  0.7457681185589471  0.2004843918343643  0.7221179077799476  1.0000
  H   H427      1.0  0.763655847860427  0.23550326572782906  0.7329651761981083  1.0000
  H   H428      1.0  0.8102512532298298  0.17563978256758359  0.7707508610155577  1.0000
  H   H429      1.0  0.7948394299877661  0.17227347471642993  0.7339324797117843  1.0000
  H   H430      1.0  0.8126734726076357  0.20732533114755608  0.7452789401875952  1.0000
  H   H431      1.0  0.7235023521364948  0.18163527514008307  0.7866933803855912  1.0000
  H   H432      1.0  0.7593486513910008  0.1598870349168416  0.7936563008934406  1.0000
  H   H433      1.0  0.7420569024602004  0.1574693638223629  0.7577693615887018  1.0000
  H   H434      1.0  0.7831178674295691  0.20917707334067936  0.8093957242896098  1.0000
  H   H435      1.0  0.7480349911522088  0.23111351281842596  0.8000280135384147  1.0000
  H   H436      1.0  0.7861621114372094  0.2405324115546835  0.7833939545004384  1.0000
  N   N16       1.0  0.6982932417155747  0.7146347556236141  0.3420928157292823  1.0000
  C   C445      1.0  0.6866759857736892  0.7229291358193887  0.3729892358155221  1.0000
  C   C446      1.0  0.6734678349191373  0.7223924099982069  0.32070356569283953  1.0000
  C   C447      1.0  0.7056317632794864  0.6811935503446133  0.34057153131402557  1.0000
  C   C448      1.0  0.7273201257813995  0.731973236653469  0.33413368164152657  1.0000
  H   H437      1.0  0.7044540650643716  0.716841810982898  0.3898919745290431  1.0000
  H   H438      1.0  0.6642127727947907  0.7109983338638819  0.3794687762799156  1.0000
  H   H439      1.0  0.6813745599541514  0.748103536462348  0.37516211185224463  1.0000
  H   H440      1.0  0.6817728263354425  0.7178306060147643  0.2969742053226026  1.0000
  H   H441      1.0  0.6518298203077246  0.7085308045156707  0.3251453750299587  1.0000
  H   H442      1.0  0.6658972590800074  0.7471026051964506  0.3224092901253051  1.0000
  H   H443      1.0  0.6841444414694133  0.6675513545183253  0.34664732857107877  1.0000
  H   H444      1.0  0.7243510885411303  0.6744640638432056  0.35636880989365227  1.0000
  H   H445      1.0  0.7141878819471021  0.6740473847721906  0.31749882949421115  1.0000
  H   H446      1.0  0.7363366177700188  0.7268175909094255  0.31071150356676297  1.0000
  H   H447      1.0  0.7467925501094611  0.7261302948913704  0.34942247291499506  1.0000
  H   H448      1.0  0.7226291842613791  0.7572867950471862  0.3357851199727862  1.0000
  N   N17       1.0  0.45565639214183595  0.8103817337734737  0.16764288791313076  1.0000
  C   C449      1.0  0.47362339025037753  0.8391990870977314  0.1650455599223349  1.0000
  C   C450      1.0  0.47093211047661865  0.7866768459161742  0.14755337961821768  1.0000
  C   C451      1.0  0.42261122219866365  0.8163060402886717  0.15888738220102808  1.0000
  C   C452      1.0  0.4555163267659496  0.7993558248833512  0.19908172905382313  1.0000
  H   H449      1.0  0.4636865869894976  0.8571295219687054  0.1809361895325378  1.0000
  H   H450      1.0  0.4727239308943724  0.8489934294583973  0.14201251100309667  1.0000
  H   H451      1.0  0.49913182304057535  0.8352748810025749  0.17002185857591093  1.0000
  H   H452      1.0  0.4587583293936084  0.7642317219358834  0.1497407912493461  1.0000
  H   H453      1.0  0.47040718412970994  0.7936618537256702  0.12353177541977835  1.0000
  H   H454      1.0  0.4963089272490471  0.7826481392254179  0.15277679924926366  1.0000
  H   H455      1.0  0.42190584308283  0.8239509795797703  0.1349744434611193  1.0000
  H   H456      1.0  0.4106223592593345  0.8347047493063939  0.1729965436534113  1.0000
  H   H457      1.0  0.4081390067908815  0.7952409315991444  0.16132816816057802  1.0000
  H   H458      1.0  0.44232115580307707  0.7775337552406627  0.2018375151323355  1.0000
  H   H459      1.0  0.4441776854855917  0.8166378699596937  0.21491262991035515  1.0000
  H   H460      1.0  0.4801781283355406  0.7948348416024209  0.2063532249371696  1.0000
  N   N18       1.0  0.568552414303888  0.4732294302996624  0.374131501205198  1.0000
  C   C453      1.0  0.5850013253131314  0.501983995702212  0.36593283120698905  1.0000
  C   C454      1.0  0.5924113652081432  0.44809251431378666  0.3775822956342765  1.0000
  C   C455      1.0  0.5468870400515174  0.4650741243855317  0.3502533530235046  1.0000
  C   C456      1.0  0.549850228099675  0.4778211501344107  0.4028013923782239  1.0000
  H   H461      1.0  0.567820030894742  0.5216952210507704  0.36417368100579883  1.0000
  H   H462      1.0  0.5986180557731505  0.49972263994113875  0.3439123142469665  1.0000
  H   H463      1.0  0.6021649584996225  0.5083710870439946  0.3830563424102972  1.0000
  H   H464      1.0  0.5809137935063152  0.42574331000634785  0.38289214725763  1.0000
  H   H465      1.0  0.6076232397446537  0.4447603787410509  0.3566063338009725  1.0000
  H   H466      1.0  0.608559352119293  0.4530243541952115  0.3960342178955694  1.0000
  H   H467      1.0  0.5341575467810752  0.4433946022792312  0.3556465012347466  1.0000
  H   H468      1.0  0.5600403913688522  0.46143558639631577  0.3282170165879555  1.0000
  H   H469      1.0  0.5284223789988242  0.4834589883033585  0.34722401063134517  1.0000
  H   H470      1.0  0.5370519490365753  0.4565720625138803  0.409599268947327  1.0000
  H   H471      1.0  0.53170375048411  0.4967466702170896  0.40089482759567735  1.0000
  H   H472      1.0  0.5653414596241805  0.48406868503798767  0.4213826525089827  1.0000
  N   N19       1.0  0.046722111973892755  0.4536181493990506  0.7492067381842815  1.0000
  C   C457      1.0  0.030048155774164975  0.46546175806390516  0.7769523204345264  1.0000
  C   C458      1.0  0.039105440080609455  0.42085816005846205  0.7450491405525923  1.0000
  C   C459      1.0  0.08142326628566043  0.45664782159994755  0.7517047159583735  1.0000
  C   C460      1.0  0.03640266971110773  0.4715857289128444  0.7230490922073639  1.0000
  H   H473      1.0  0.0351919985995508  0.4902012685108105  0.7806660947424489  1.0000
  H   H474      1.0  0.037659028736236166  0.45248880341082387  0.7971049992333397  1.0000
  H   H475      1.0  0.003814149004172318  0.46346591766462997  0.7759818995518483  1.0000
  H   H476      1.0  0.04997926194889546  0.41168134236813575  0.7235237203657635  1.0000
  H   H477      1.0  0.04811054447453955  0.40627671442594926  0.7635724926289519  1.0000
  H   H478      1.0  0.01301953175143078  0.417527842747823  0.7443827301674899  1.0000
  H   H479      1.0  0.0947578824197699  0.4479612733436429  0.7311271221371419  1.0000
  H   H480      1.0  0.09027025542010625  0.4435562054402035  0.7712993571007069  1.0000
  H   H481      1.0  0.08793347194091239  0.48113514549907394  0.7545977908385285  1.0000
  H   H482      1.0  0.010424016895671295  0.46959963675879846  0.720024855153048  1.0000
  H   H483      1.0  0.049045798499561144  0.46336437031769306  0.7018668002330889  1.0000
  H   H484      1.0  0.041569537881584795  0.4964932403700237  0.7255993224810994  1.0000
  N   N20       1.0  0.010424562069941468  0.140852691581226  0.03474317409238359  1.0000
  C   C461      1.0  0.9778060735745123  0.13579704620947924  0.04697560473379814  1.0000
  C   C462      1.0  0.013646356173206753  0.12887058500144893  0.003633257823856928  1.0000
  C   C463      1.0  0.033371069939936104  0.12442135028114985  0.053437838996737375  1.0000
  C   C464      1.0  0.016822507086144745  0.1741620482595175  0.03515750975488219  1.0000
  H   H485      1.0  0.9723290059700294  0.11083045014912878  0.047346961837742896  1.0000
  H   H486      1.0  0.959765550068261  0.14773871999669216  0.03326626738054794  1.0000
  H   H487      1.0  0.9746066435234843  0.14443190685104593  0.0705279171800921  1.0000
  H   H488      1.0  0.03839177055507226  0.13100043293399044  0.9941642797179251  1.0000
  H   H489      1.0  0.0077078118610054425  0.1040459234195472  0.002684912868642586  1.0000
  H   H490      1.0  0.9976793090061706  0.1416520186025791  0.9884463778318735  1.0000
  H   H491      1.0  0.05818564999659537  0.12656202187061463  0.044069466862141304  1.0000
  H   H492      1.0  0.028186663161061887  0.09943691176306424  0.054927858626756976  1.0000
  H   H493      1.0  0.03253521106285784  0.13385641286963768  0.07672944873648402  1.0000
  H   H494      1.0  0.04203325031655769  0.17852575403245421  0.028617012615776094  1.0000
  H   H495      1.0  0.012411421558157887  0.18415626250845046  0.05809005126788658  1.0000
  H   H496      1.0  0.0017103484816296533  0.18715462960275328  0.019402709108080396  1.0000
  N   N21       1.0  0.5028296927134991  0.16654838383539686  0.580715455176479  1.0000
  C   C465      1.0  0.5158867915138406  0.1772349244341905  0.6091084252627431  1.0000
  C   C466      1.0  0.5175912360048344  0.183682949423456  0.555210320642566  1.0000
  C   C467      1.0  0.467974338920891  0.17196325949733718  0.5817378366395082  1.0000
  C   C468      1.0  0.5098619154754743  0.13326925579448973  0.5767666813452429  1.0000
  H   H497      1.0  0.5421839176284964  0.17364234455542463  0.6089160987576757  1.0000
  H   H498      1.0  0.5055258581882958  0.1646595522376275  0.6288710267381245  1.0000
  H   H499      1.0  0.510770053359685  0.20228594135588676  0.6128794806528571  1.0000
  H   H500      1.0  0.5080667080537247  0.1766064280632277  0.5333736083963148  1.0000
  H   H501      1.0  0.5131740237238444  0.20890508674377947  0.5579112674818707  1.0000
  H   H502      1.0  0.5438229862673359  0.17977857908315503  0.5535079382384712  1.0000
  H   H503      1.0  0.4616750813773572  0.19680788155784446  0.5848288901624293  1.0000
  H   H504      1.0  0.45605561618246826  0.15933699345391128  0.6006951483930912  1.0000
  H   H505      1.0  0.4574184271888407  0.16445254466811585  0.5605100623810236  1.0000
  H   H506      1.0  0.5359310430320617  0.12825000660751779  0.5757725688755532  1.0000
  H   H507      1.0  0.500167906810573  0.12448687800040537  0.5556082866309503  1.0000
  H   H508      1.0  0.4993107114518166  0.11964948885859228  0.5957540909653884  1.0000
  N   N22       1.0  0.4442987625299311  0.4701441866978743  0.11620199378213258  1.0000
  C   C469      1.0  0.4220315680234816  0.47976775521155085  0.09303631944609471  1.0000
  C   C470      1.0  0.44479744942717525  0.49427040686646373  0.1396546378504294  1.0000
  C   C471      1.0  0.4765671980417736  0.465641858339091  0.10202200110025496  1.0000
  C   C472      1.0  0.4337236397826185  0.44094621065791156  0.13009948611339495  1.0000
  H   H509      1.0  0.4289051225689786  0.5021503546901371  0.08265351901102812  1.0000
  H   H510      1.0  0.39732809398096763  0.4830104344775736  0.1028465812038415  1.0000
  H   H511      1.0  0.4214487257431804  0.46244069792895953  0.07462564173960883  1.0000
  H   H512      1.0  0.42066060693090834  0.49842489206083207  0.15046678077127526  1.0000
  H   H513      1.0  0.4611598700454439  0.48772229153994706  0.1576353234526631  1.0000
  H   H514      1.0  0.45255947030173044  0.5166971500728826  0.13000758753347685  1.0000
  H   H515      1.0  0.47694374562618014  0.4479247297607634  0.0838466955855565  1.0000
  H   H516      1.0  0.49401147535431467  0.45793369253154786  0.1186956670305554  1.0000
  H   H517      1.0  0.485359354695845  0.48727510432599824  0.09143230116147877  1.0000
  H   H518      1.0  0.4094634582792283  0.44348568795103716  0.14110060717675843  1.0000
  H   H519      1.0  0.44992421007963224  0.4330245497935378  0.1478006218116193  1.0000
  H   H520      1.0  0.4329705338595631  0.422162442180658  0.11311935874034884  1.0000
  N   N23       1.0  0.4481178900090277  0.3669791358096324  0.5372496974808306  1.0000
  C   C473      1.0  0.45666258644915925  0.340451958010276  0.5173981166664081  1.0000
  C   C474      1.0  0.41895327892707435  0.36020293842308176  0.555603479231608  1.0000
  C   C475      1.0  0.44242784591092166  0.3946094989924189  0.518719359525752  1.0000
  C   C476      1.0  0.4744307731978517  0.37261699021906114  0.5573118238072762  1.0000
  H   H521      1.0  0.4624866230954594  0.3195912717661014  0.5307116188522094  1.0000
  H   H522      1.0  0.47790465065459264  0.3451600624977567  0.5024239366009641  1.0000
  H   H523      1.0  0.43683062423635244  0.3345955575143809  0.5027886190156958  1.0000
  H   H524      1.0  0.4111601356479212  0.3801278561056722  0.5701338607496221  1.0000
  H   H525      1.0  0.3988696330481653  0.3548545031694902  0.5411699658084534  1.0000
  H   H526      1.0  0.4227349769191463  0.34008106695522716  0.5705581173124011  1.0000
  H   H527      1.0  0.43533545464517087  0.4149481761070971  0.5329958458660775  1.0000
  H   H528      1.0  0.4228809993893423  0.39092660305480803  0.5031879257819706  1.0000
  H   H529      1.0  0.46413052021265583  0.4005416295927283  0.5048461865417821  1.0000
  H   H530      1.0  0.4688916872443685  0.39256824961892706  0.5725287287120687  1.0000
  H   H531      1.0  0.4969501868782033  0.37749893725615835  0.5442082151105497  1.0000
  H   H532      1.0  0.47922430355299916  0.35217328698414146  0.5716539164976544  1.0000
  N   N24       1.0  0.9165278604881743  0.3803142230007163  0.6035665375702955  1.0000
  C   C477      1.0  0.9319063917967197  0.3896666459962559  0.6312518054056229  1.0000
  C   C478      1.0  0.8817296020240576  0.38556727603605656  0.6075213937216732  1.0000
  C   C479      1.0  0.9233833044263872  0.34725881605426906  0.59762435942449  1.0000
  C   C480      1.0  0.9291100901794536  0.3987489301069908  0.5779569770076278  1.0000
  H   H533      1.0  0.9218047096894374  0.3773279297933435  0.6512448070884161  1.0000
  H   H534      1.0  0.9287063795192235  0.4148366819521634  0.6355892940704145  1.0000
  H   H535      1.0  0.9579923448651887  0.38454085935208204  0.6296848974928819  1.0000
  H   H536      1.0  0.8692607710443652  0.37855454143141753  0.5871395707128245  1.0000
  H   H537      1.0  0.8715349451605705  0.3720233296920736  0.6268142255212028  1.0000
  H   H538      1.0  0.8756769208709169  0.4102867794798749  0.6120348696680421  1.0000
  H   H539      1.0  0.9134550730665736  0.33966144288549927  0.5761542141720367  1.0000
  H   H540      1.0  0.9127542858898077  0.33268753351339914  0.6158194180408623  1.0000
  H   H541      1.0  0.9494946495581299  0.34200813779909084  0.5962404240761785  1.0000
  H   H542      1.0  0.9553240073798867  0.3953369222317812  0.5745539844304799  1.0000
  H   H543      1.0  0.9246085935655631  0.42386255161505937  0.5818365011717204  1.0000
  H   H544      1.0  0.9180729599611289  0.3924004181416504  0.5566272546935674  1.0000
  N   N25       1.0  0.040256947658527054  0.6703860906790352  0.4592024047048772  1.0000
  C   C481      1.0  0.06979655994561673  0.6668931491926183  0.47580608125569124  1.0000
  C   C482      1.0  0.043502081334858556  0.6524489557116492  0.43093050753848666  1.0000
  C   C483      1.0  0.03456267565198412  0.7032901160129216  0.45218876513629364  1.0000
  C   C484      1.0  0.013091010233551303  0.6589159608067535  0.4778936884206817  1.0000
  H   H545      1.0  0.068612008848699  0.6810697765552552  0.49670774122601674  1.0000
  H   H546      1.0  0.09100093286118272  0.6743149553427593  0.4620107062536394  1.0000
  H   H547      1.0  0.07423302123034992  0.6425018133305566  0.48259495325472557  1.0000
  H   H548      1.0  0.021549662127824165  0.6545238720276756  0.4179323637677789  1.0000
  H   H549      1.0  0.06369990747912446  0.6605828851415573  0.41617498179702195  1.0000
  H   H550      1.0  0.047958083472978696  0.6275362761174597  0.43547226931947935  1.0000
  H   H551      1.0  0.012104042432640405  0.7069369800861316  0.44018624653951244  1.0000
  H   H552      1.0  0.05433094764222535  0.7127638696436657  0.43779900502629665  1.0000
  H   H553      1.0  0.03225660529297869  0.7175625188363159  0.47302747139967094  1.0000
  H   H554      1.0  0.9902682623798282  0.6615122497576758  0.466313500334218  1.0000
  H   H555      1.0  0.01001529858837813  0.6719444991856734  0.4993236109636347  1.0000
  H   H556      1.0  0.01645328412873681  0.6341964151418268  0.4838490628234132  1.0000
  N   N26       1.0  0.5922861195025121  0.2380787890543714  0.42989157066860206  1.0000
  C   C485      1.0  0.6061582573916046  0.214546430996811  0.4088052217750469  1.0000
  C   C486      1.0  0.578694818486185  0.26393085867360205  0.41266474015798865  1.0000
  C   C487      1.0  0.6173504362636488  0.24964113866327436  0.4489144895442887  1.0000
  C   C488      1.0  0.5670347286835611  0.22409689668021573  0.4492770660277816  1.0000
  H   H557      1.0  0.615962730847172  0.19451572202281348  0.4212297739525892  1.0000
  H   H558      1.0  0.6257311954678109  0.22402307528256632  0.39408456914951556  1.0000
  H   H559      1.0  0.5879922431563709  0.20554763246795021  0.3938496912975807  1.0000
  H   H560      1.0  0.5681880159797004  0.2822461544542149  0.42788471238208453  1.0000
  H   H561      1.0  0.5972367789735133  0.2749456332887087  0.3977974253362864  1.0000
  H   H562      1.0  0.5597070692014655  0.2561054890158058  0.39802231237893165  1.0000
  H   H563      1.0  0.6284907607898338  0.23062893501388218  0.46186027047754297  1.0000
  H   H564      1.0  0.607491964955629  0.26688124629389637  0.4656069821428578  1.0000
  H   H565      1.0  0.6365203339543837  0.26093957080260133  0.4351220467001371  1.0000
  H   H566      1.0  0.5555556461304416  0.24133183274054706  0.46505566231412543  1.0000
  H   H567      1.0  0.5768136006962672  0.2050212861161847  0.4631666036357765  1.0000
  H   H568      1.0  0.5481809313571796  0.21415886720606397  0.4357141437726143  1.0000
  N   N27       1.0  0.6929993033086336  0.4249354478497999  0.9391808189110227  1.0000
  C   C489      1.0  0.6797149245074783  0.4361660397595082  0.9109136317675645  1.0000
  C   C490      1.0  0.6735967294736883  0.4373898013149375  0.9651600375599256  1.0000
  C   C491      1.0  0.7261391366899204  0.43521186568971204  0.9408540199964411  1.0000
  C   C492      1.0  0.6925882174219352  0.39090445830294335  0.9397793931597591  1.0000
  H   H569      1.0  0.6938240057513748  0.4270908591201059  0.890864946264488  1.0000
  H   H570      1.0  0.6798124301615217  0.4617607616564163  0.9096461847922304  1.0000
  H   H571      1.0  0.6547560582430121  0.42875543569886965  0.9088616412929262  1.0000
  H   H572      1.0  0.6736096513966242  0.46302025169693956  0.9657446018055454  1.0000
  H   H573      1.0  0.6484190373233716  0.4301080860953698  0.9647164382135488  1.0000
  H   H574      1.0  0.6828831387239455  0.4291019555527417  0.9867491616607716  1.0000
  H   H575      1.0  0.7371119449189154  0.4267581674332324  0.9616595747581591  1.0000
  H   H576      1.0  0.7274530188587378  0.46076860002871717  0.9409211099220294  1.0000
  H   H577      1.0  0.7413670680427027  0.4264466716561798  0.9214369024346196  1.0000
  H   H578      1.0  0.7028730929276465  0.3816684236652775  0.9606633778748187  1.0000
  H   H579      1.0  0.7066918562562836  0.38076494437805686  0.9202245831495645  1.0000
  H   H580      1.0  0.6679372804792346  0.38228912608170657  0.9389899901272547  1.0000
  N   N28       1.0  0.6958820763864645  0.22752878707794866  0.6151574495689668  1.0000
  C   C493      1.0  0.6931038489155041  0.2073105130720242  0.5886743809095987  1.0000
  C   C494      1.0  0.6640879778138551  0.23991764557927395  0.6250793491579962  1.0000
  C   C495      1.0  0.7168618877114832  0.25334103177229733  0.6070175074845505  1.0000
  C   C496      1.0  0.7094917984918514  0.2096737330521122  0.6399525418254338  1.0000
  H   H581      1.0  0.7168772538985317  0.19857517358340898  0.5799450479970898  1.0000
  H   H582      1.0  0.6817198834751239  0.21976698142979476  0.5699422991948164  1.0000
  H   H583      1.0  0.6785626495862145  0.18686246051401276  0.5943298940931974  1.0000
  H   H584      1.0  0.6530454795222675  0.2537524011173672  0.6070532125540834  1.0000
  H   H585      1.0  0.6475144386679573  0.22124646668298126  0.6316353269685121  1.0000
  H   H586      1.0  0.6654177248740489  0.25543280636458743  0.644925502970683  1.0000
  H   H587      1.0  0.7198621965340164  0.2687626702434318  0.6265826380408291  1.0000
  H   H588      1.0  0.7070473611507972  0.26766619142260767  0.588734680942305  1.0000
  H   H589      1.0  0.7410315581973478  0.24513687931334052  0.5991890170426173  1.0000
  H   H590      1.0  0.7125271581070095  0.2244662079042705  0.6600388104479554  1.0000
  H   H591      1.0  0.7332529271704845  0.1995800808555278  0.6331511287763222  1.0000
  H   H592      1.0  0.6939707804004334  0.1903005496257488  0.6469861933244926  1.0000
  N   N29       1.0  0.12730562291982173  0.31023094362839343  0.9809996214126823  1.0000
  C   C497      1.0  0.14686300224698834  0.28149930532834233  0.9810876955452694  1.0000
  C   C498      1.0  0.10281800586258827  0.30772625973234075  0.95837217870137  1.0000
  C   C499      1.0  0.1479287813946497  0.3365013317939117  0.9734749960562054  1.0000
  C   C500      1.0  0.11163404528446597  0.3152563035429433  0.01108537425323308  1.0000
  H   H593      1.0  0.16402574244504975  0.2815109217999159  0.9993772400937528  1.0000
  H   H594      1.0  0.16068554662650558  0.2780089874733914  0.9594007488504387  1.0000
  H   H595      1.0  0.13186075886956838  0.2609799049511805  0.9844170090132182  1.0000
  H   H596      1.0  0.08785113651320109  0.32917077625958624  0.9572837316142021  1.0000
  H   H597      1.0  0.11385131800767345  0.30345018688260156  0.9355221382696239  1.0000
  H   H598      1.0  0.08659146346639202  0.2883593509448529  0.9635322203682142  1.0000
  H   H599      1.0  0.1339357792980933  0.35855887457167845  0.973013499255979  1.0000
  H   H600      1.0  0.1601862395210072  0.333478388991749  0.9509019592729951  1.0000
  H   H601      1.0  0.16673274911198233  0.3389589472681488  0.9900317558402253  1.0000
  H   H602      1.0  0.12936960035635403  0.3172903324293039  0.028738687549307862  1.0000
  H   H603      1.0  0.09629283423209745  0.29568550511156794  0.017730533769716672  1.0000
  H   H604      1.0  0.09632918960708836  0.33652666546639454  0.011654257244245736  1.0000
  N   N30       1.0  0.059257671728121686  0.4995952635090672  0.5388980545549226  1.0000
  C   C501      1.0  0.08258219374606379  0.5033161990018682  0.513343076028923  1.0000
  C   C502      1.0  0.047956781567599416  0.4676026259261898  0.5392589991513984  1.0000
  C   C503      1.0  0.031944527434012215  0.5211575231304537  0.5356399084997384  1.0000
  C   C504      1.0  0.07455415503816276  0.5062991479605474  0.5673763936006913  1.0000
  H   H605      1.0  0.09204532005375521  0.5270475126467637  0.5125227020269375  1.0000
  H   H606      1.0  0.07173692857810177  0.4988807337506339  0.49145737524380867  1.0000
  H   H607      1.0  0.10329210273760481  0.48706346826827396  0.5150589951511361  1.0000
  H   H608      1.0  0.0307512581153222  0.46371632146428876  0.5585317891821876  1.0000
  H   H609      1.0  0.03584508367865302  0.4619373426744289  0.5183103097295707  1.0000
  H   H610      1.0  0.06803488579359107  0.450653010535864  0.5411060105401104  1.0000
  H   H611      1.0  0.01417480692427775  0.5191562970864516  0.5548930092830104  1.0000
  H   H612      1.0  0.019508260304207825  0.5166931357312741  0.5145988490493043  1.0000
  H   H613      1.0  0.039763736146126716  0.545492593946995  0.5349033830647787  1.0000
  H   H614      1.0  0.057588324735155405  0.5037161511990279  0.5871484577046548  1.0000
  H   H615      1.0  0.08326696804900169  0.5303690620921027  0.5677183335861893  1.0000
  H   H616      1.0  0.0952965579686007  0.49050440397444384  0.5706613181570648  1.0000
  N   N31       1.0  0.566915533082941  0.9372183751281021  0.5041086597416671  1.0000
  C   C505      1.0  0.5775708581959645  0.9165467581209223  0.5282262670694932  1.0000
  C   C506      1.0  0.5320756847005628  0.9423865261088985  0.5074646199161936  1.0000
  C   C507      1.0  0.5749115967141163  0.9230202068937619  0.4744678048502726  1.0000
  C   C508      1.0  0.5830476956127589  0.9669941241004983  0.5061131357709241  1.0000
  H   H617      1.0  0.5716475418775852  0.9265535802062554  0.5509206170179263  1.0000
  H   H618      1.0  0.6038364595829075  0.9126052060491424  0.5266589196496477  1.0000
  H   H619      1.0  0.5661632610111982  0.8937203453034795  0.5272571516617731  1.0000
  H   H620      1.0  0.5233388878176315  0.9581479095427798  0.4897192673839535  1.0000
  H   H621      1.0  0.5190931942141026  0.9204478816888467  0.5059438487172077  1.0000
  H   H622      1.0  0.5249867973818247  0.9533107002092203  0.5294588459843836  1.0000
  H   H623      1.0  0.5666438149497645  0.9379622621908814  0.45592882578433047  1.0000
  H   H624      1.0  0.5633662953601296  0.9003875796539555  0.47201364003830587  1.0000
  H   H625      1.0  0.6009955308604984  0.9190560030344714  0.4706651187937252  1.0000
  H   H626      1.0  0.5753993140285806  0.983312076556679  0.48838036571390947  1.0000
  H   H627      1.0  0.6093742400737441  0.9640042442237372  0.5039545358251047  1.0000
  H   H628      1.0  0.5772775942809325  0.9783472055356386  0.5281389736046381  1.0000
  N   N32       1.0  0.9491802583940288  0.9696084526334983  0.10642130676596569  1.0000
  C   C509      1.0  0.9343071435793988  0.9394433988203198  0.11155318089149467  1.0000
  C   C510      1.0  0.9383088922854989  0.9827883241252418  0.07795035819648306  1.0000
  C   C511      1.0  0.9842287511571217  0.9656604544302851  0.10453991230885118  1.0000
  C   C512      1.0  0.9397600618712624  0.9905201443682197  0.13170081073127182  1.0000
  H   H629      1.0  0.9409988164448628  0.9294158054913247  0.1333778897893206  1.0000
  H   H630      1.0  0.9417942778392521  0.9225797894155015  0.09358479163985679  1.0000
  H   H631      1.0  0.9078349994656204  0.9414536041848605  0.11201313363580143  1.0000
  H   H632      1.0  0.9448153108923859  0.9674812479838751  0.058458585361475184  1.0000
  H   H633      1.0  0.9119907809710563  0.9861698498957606  0.07865981987665907  1.0000
  H   H634      1.0  0.9490337228424294  0.005561274029606267  0.07321627776899839  1.0000
  H   H635      1.0  0.9960968266446124  0.9881705254076006  0.100838798324645  1.0000
  H   H636      1.0  0.9922870675496135  0.9502005962735033  0.08559900557708205  1.0000
  H   H637      1.0  0.9932620912638097  0.9554565466631924  0.1255688975231619  1.0000
  H   H638      1.0  0.91344513633128  0.993650574639641  0.1340881365193776  1.0000
  H   H639      1.0  0.9500810795142554  0.013737183261163022  0.1283647195282476  1.0000
  H   H640      1.0  0.9481804136506875  0.9814725055252776  0.1534168327295701  1.0000
  N   N33       1.0  0.2826824193182138  0.5520512715372284  0.7017013939925625  1.0000
  C   C513      1.0  0.2824744818135006  0.5784401412136395  0.6808250651504368  1.0000
  C   C514      1.0  0.31010314551114665  0.5313532324269826  0.6934476349479961  1.0000
  C   C515      1.0  0.25276083101174696  0.5351915189111891  0.6994741065363126  1.0000
  C   C516      1.0  0.28535913258646545  0.5633328597223599  0.7328357283169117  1.0000
  H   H641      1.0  0.26194794195788457  0.5944783558880025  0.6859310471205383  1.0000
  H   H642      1.0  0.2811833941160577  0.570563384470601  0.6571299762395998  1.0000
  H   H643      1.0  0.30437379742764237  0.5919355920189611  0.6821903304515415  1.0000
  H   H644      1.0  0.3109773898742602  0.5109539579483717  0.7085017326706544  1.0000
  H   H645      1.0  0.3090368859609694  0.5228555474913334  0.6698406409153482  1.0000
  H   H646      1.0  0.3330394212335721  0.5434251325394661  0.6951476436996723  1.0000
  H   H647      1.0  0.25004227714724125  0.526549204740492  0.6761475922240272  1.0000
  H   H648      1.0  0.23166746766231242  0.5503787222421082  0.7053535164155917  1.0000
  H   H649      1.0  0.25198887376408863  0.515035777846782  0.7148643973595686  1.0000
  H   H650      1.0  0.28584245181279555  0.5440131817419824  0.7491999617679036  1.0000
  H   H651      1.0  0.26510749779742626  0.5791253727142311  0.7396538058619346  1.0000
  H   H652      1.0  0.3075889057528458  0.5763282734850955  0.7352231765477871  1.0000
  N   N34       1.0  0.1872669358309258  0.751578191358649  0.7930612539780171  1.0000
  C   C517      1.0  0.1857952564145896  0.7809927922968731  0.7764580297641644  1.0000
  C   C518      1.0  0.20268349446946632  0.7564193716541309  0.8218136926186828  1.0000
  C   C519      1.0  0.20599944471133455  0.7284369047769997  0.7749322474669567  1.0000
  C   C520      1.0  0.15466083751514145  0.7404392203896455  0.7991868598882804  1.0000
  H   H653      1.0  0.17483458543223468  0.7780455171515424  0.7543684712364486  1.0000
  H   H654      1.0  0.2099649091305537  0.7905346026989774  0.7722309419687653  1.0000
  H   H655      1.0  0.1712746222369977  0.7986588964654074  0.7894200209389345  1.0000
  H   H656      1.0  0.20536965985242825  0.734383194574433  0.8342753655280314  1.0000
  H   H657      1.0  0.22685659671013533  0.7660229890895471  0.8181311324376314  1.0000
  H   H658      1.0  0.1884247893996395  0.772679771016273  0.8366958623398074  1.0000
  H   H659      1.0  0.20781018042455218  0.7061091252666412  0.7871157616356065  1.0000
  H   H660      1.0  0.23074147514563176  0.7361355102336594  0.7698702085421961  1.0000
  H   H661      1.0  0.19492677892586915  0.7237054471383423  0.7532071504157456  1.0000
  H   H662      1.0  0.15497217745252312  0.7183939328359574  0.8118402033471256  1.0000
  H   H663      1.0  0.14215675887429363  0.736283589896741  0.7780655463889764  1.0000
  H   H664      1.0  0.13984223446027025  0.7572272303078929  0.8130480073842457  1.0000
  N   N35       1.0  0.21715449249624225  0.5597548119517108  0.8747047236295123  1.0000
  C   C521      1.0  0.23186638204864274  0.575387669427527  0.8481993300506473  1.0000
  C   C522      1.0  0.23382493617863706  0.5299016857457529  0.8792943350326496  1.0000
  C   C523      1.0  0.18320699916284588  0.554384974259951  0.8697072566290046  1.0000
  C   C524      1.0  0.21978758034465537  0.5793450520785483  0.901660814442081  1.0000
  H   H665      1.0  0.23012873465913938  0.5614328467805525  0.8273884681866022  1.0000
  H   H666      1.0  0.25751818584434194  0.579665912603862  0.8512646545266078  1.0000
  H   H667      1.0  0.22010201722264633  0.598155209103748  0.8442695585179602  1.0000
  H   H668      1.0  0.22348114278619194  0.5175514595810898  0.89922625027751  1.0000
  H   H669      1.0  0.23222883968892272  0.5144718848226497  0.859437695375927  1.0000
  H   H670      1.0  0.2595464527743924  0.5331267512498762  0.8830711775391143  1.0000
  H   H671      1.0  0.17139348419064365  0.542566502078978  0.8892510452799504  1.0000
  H   H672      1.0  0.18024543922647063  0.5397435924311492  0.8494926176233751  1.0000
  H   H673      1.0  0.16987814556734968  0.5764795056144116  0.8663352047680942  1.0000
  H   H674      1.0  0.20755946702627648  0.6021208307644371  0.8989400120448455  1.0000
  H   H675      1.0  0.24508836738187767  0.5838841998584747  0.9060662354062027  1.0000
  H   H676      1.0  0.2089668332400955  0.568346477610667  0.9221302922511755  1.0000
  N   N36       1.0  0.8546613413668438  0.7623292244899433  0.14123992428722554  1.0000
  C   C525      1.0  0.8312046322982822  0.7596206537006951  0.16685659119300555  1.0000
  C   C526      1.0  0.843587857781389  0.7862459270653599  0.12027856146546534  1.0000
  C   C527      1.0  0.8580750903750356  0.73248773020696  0.12525440687979472  1.0000
  C   C528      1.0  0.8857852665083085  0.7709749746282237  0.1524856131968746  1.0000
  H   H677      1.0  0.8390072396992238  0.7421789959774271  0.18344714040322452  1.0000
  H   H678      1.0  0.8075177865150059  0.7527137293133054  0.15926542121979437  1.0000
  H   H679      1.0  0.8275381457252645  0.7818893600468416  0.17910283290009033  1.0000
  H   H680      1.0  0.8608770693346014  0.7891935303757844  0.10081287062189448  1.0000
  H   H681      1.0  0.8201216797481161  0.7806269566476266  0.11131829564927331  1.0000
  H   H682      1.0  0.8409946666037036  0.8090601711398144  0.1315632818278425  1.0000
  H   H683      1.0  0.8756663625561629  0.7337526444020115  0.105821618384083  1.0000
  H   H684      1.0  0.8350251422739621  0.7253631198957591  0.1163505856321716  1.0000
  H   H685      1.0  0.866316711021017  0.7138444211062785  0.1404088316341372  1.0000
  H   H686      1.0  0.9038249100822198  0.7741732744372446  0.13367011956264685  1.0000
  H   H687      1.0  0.8952810590644699  0.7532505796719897  0.16795602586921143  1.0000
  H   H688      1.0  0.8840051344495137  0.7931901273159442  0.16500795809328905  1.0000
  N   N37       1.0  0.53340444739806  0.8281577492128096  0.9713283231548747  1.0000
  C   C529      1.0  0.5043824991138898  0.8096952055647073  0.9749098765536113  1.0000
  C   C530      1.0  0.524414585445539  0.8610623918738938  0.9680215679977497  1.0000
  C   C531      1.0  0.5522324438217998  0.8176073655569301  0.944219533016775  1.0000
  C   C532      1.0  0.552535826070473  0.8242778111967691  0.9981732092071449  1.0000
  H   H689      1.0  0.5101512187649933  0.7852750306254727  0.9805325470638274  1.0000
  H   H690      1.0  0.49103244017291636  0.8095702779868121  0.9539033487004998  1.0000
  H   H691      1.0  0.4879268994827915  0.8190386632813212  0.9931497377979968  1.0000
  H   H692      1.0  0.5097062209045616  0.8696678720308245  0.9878811617628838  1.0000
  H   H693      1.0  0.5457447773598745  0.8756761340163377  0.9654935001370119  1.0000
  H   H694      1.0  0.5102592673238738  0.8649326238872874  0.9478002496344076  1.0000
  H   H695      1.0  0.5744315255477981  0.8308613716344936  0.9408195992267872  1.0000
  H   H696      1.0  0.5384166230857218  0.8205803158336417  0.9235389900965779  1.0000
  H   H697      1.0  0.5590597909118958  0.7927608724038526  0.9458418199549636  1.0000
  H   H698      1.0  0.5748326519254193  0.8375529234646706  0.9961846828858405  1.0000
  H   H699      1.0  0.5593663616194644  0.7996525346806793  0.0017729843175302573  1.0000
  H   H700      1.0  0.538982754580076  0.8323199539824618  0.01889430396677838  1.0000
  N   N38       1.0  0.4362459258603572  0.9864837707566392  0.7668450584505712  1.0000
  C   C533      1.0  0.44403928490449585  0.9532760795250216  0.7689719728892894  1.0000
  C   C534      1.0  0.44595766332718145  0.0021161129533109335  0.7943776044989785  1.0000
  C   C535      1.0  0.40157577554535206  0.9907295303166842  0.7638811297692166  1.0000
  C   C536      1.0  0.45345613890455416  0.9995464138173029  0.7402560252618705  1.0000
  H   H701      1.0  0.437441950410214  0.9406574885766018  0.7484677160655325  1.0000
  H   H702      1.0  0.43109020284079236  0.9426579958780794  0.7884761890998728  1.0000
  H   H703      1.0  0.46989698947965836  0.9490842955577782  0.7719700524326377  1.0000
  H   H704      1.0  0.4404122847332473  0.02727679137309358  0.7937030945421615  1.0000
  H   H705      1.0  0.4335707686961706  0.992502519579512  0.8148479225666897  1.0000
  H   H706      1.0  0.4720394059177934  0.999118389283237  0.7971802668985708  1.0000
  H   H707      1.0  0.3946763251412272  0.01553439915194077  0.762258435407376  1.0000
  H   H708      1.0  0.38794339511100495  0.9807592115219876  0.7835055253395988  1.0000
  H   H709      1.0  0.39360287258052595  0.978945172713245  0.7433741219131015  1.0000
  H   H710      1.0  0.4487598392357125  0.024736814867252432  0.738140166425504  1.0000
  H   H711      1.0  0.44635056183723604  0.9885929002834074  0.7189928985476294  1.0000
  H   H712      1.0  0.47967256245899714  0.9958659274005865  0.7413722224080974  1.0000
  N   N39       1.0  0.8036240249229553  0.8387250774729762  0.31452127916913725  1.0000
  C   C537      1.0  0.7711051547651377  0.8498012302283393  0.308230858546515  1.0000
  C   C538      1.0  0.8021801042477555  0.8076830817224839  0.32802187868120236  1.0000
  C   C539      1.0  0.8179319113352068  0.860202568270181  0.33562422014617227  1.0000
  C   C540      1.0  0.8233061950161012  0.8371601283279775  0.28617243136053006  1.0000
  H   H713      1.0  0.7713178111805657  0.8733716157000849  0.29842106534653096  1.0000
  H   H714      1.0  0.7555134252499385  0.850806802746643  0.3291829326095  1.0000
  H   H715      1.0  0.7596807159733004  0.8344531267570076  0.2919891751496716  1.0000
  H   H716      1.0  0.7909296185129756  0.7910791991908795  0.31295640937960545  1.0000
  H   H717      1.0  0.826339034816636  0.7983764043943997  0.3326142055052675  1.0000
  H   H718      1.0  0.7882247673125331  0.8081257173934462  0.3498064311637358  1.0000
  H   H719      1.0  0.8201321435428117  0.8837050168605359  0.3258363089183801  1.0000
  H   H720      1.0  0.8422457260299554  0.8523002383661171  0.34132723402054094  1.0000
  H   H721      1.0  0.8033939952085964  0.86231863586761  0.35713103193549584  1.0000
  H   H722      1.0  0.847860300494929  0.8284052922862845  0.2901220777607678  1.0000
  H   H723      1.0  0.8255217202694743  0.8602994798776648  0.27574106264799786  1.0000
  H   H724      1.0  0.8128661534604202  0.8216690123812042  0.2694512709357835  1.0000
  N   N40       1.0  0.6926493255054164  0.8830124964926838  0.17937218425057733  1.0000
  C   C541      1.0  0.686457459751908  0.8585949025120142  0.15731665075749435  1.0000
  C   C542      1.0  0.6621475011450857  0.8949476267932045  0.1930845320235064  1.0000
  C   C543      1.0  0.7096757203093875  0.90836567671529  0.16397569667063672  1.0000
  C   C544      1.0  0.7124478933715841  0.8701740088225886  0.20313214296373538  1.0000
  H   H725      1.0  0.7089882326267177  0.8490748514889639  0.14658121353087017  1.0000
  H   H726      1.0  0.6714738565109779  0.8673449546609725  0.13907597217213952  1.0000
  H   H727      1.0  0.6738168159648523  0.8389563635993355  0.16814349320175137  1.0000
  H   H728      1.0  0.6659639138042023  0.9129967512335261  0.21026259500557942  1.0000
  H   H729      1.0  0.6465911741133967  0.9049688262567809  0.17589139993819813  1.0000
  H   H730      1.0  0.6486894643838474  0.876388074024679  0.20478779940832603  1.0000
  H   H731      1.0  0.7151217888801066  0.9270519767263545  0.17999747764922303  1.0000
  H   H732      1.0  0.6954781732769967  0.9188329854104653  0.1459705769596622  1.0000
  H   H733      1.0  0.7327916496999921  0.900173749209074  0.1532473270520962  1.0000
  H   H734      1.0  0.7360555815216502  0.8620353032778488  0.19369469452949595  1.0000
  H   H735      1.0  0.7010384939284604  0.850170428007061  0.21454135053053824  1.0000
  H   H736      1.0  0.7164966655809769  0.8875156460797934  0.2209033599346928  1.0000
  N   N41       1.0  0.24204526524142467  0.41021189248352324  0.3348669480124178  1.0000
  C   C545      1.0  0.26810341001850174  0.39958474324242377  0.3136608249605281  1.0000
  C   C546      1.0  0.2145372608807313  0.3899644921730672  0.33226011785634924  1.0000
  C   C547      1.0  0.23257119879854868  0.44222249130250035  0.3275948128387253  1.0000
  C   C548      1.0  0.2529557688040039  0.4090255427569161  0.36592695626101324  1.0000
  H   H737      1.0  0.26048055938247117  0.3996311840880199  0.2900448591795133  1.0000
  H   H738      1.0  0.27621768899213545  0.37565361643242084  0.3188384969222872  1.0000
  H   H739      1.0  0.2891121513885655  0.4146568094156177  0.31451035975965835  1.0000
  H   H740      1.0  0.1943512203523279  0.39734253377837386  0.3478634224033937  1.0000
  H   H741      1.0  0.2058729174096444  0.39026558896294017  0.3089567031758295  1.0000
  H   H742      1.0  0.2209788919125926  0.3656355431850364  0.33771800040686056  1.0000
  H   H743      1.0  0.22300178732408257  0.44366012576771446  0.304800739534107  1.0000
  H   H744      1.0  0.2530937332678621  0.4580035868203887  0.32798277433408257  1.0000
  H   H745      1.0  0.2137934091527171  0.4515258772668226  0.34376014661535387  1.0000
  H   H746      1.0  0.23402853160222292  0.416937292759285  0.38262569837594923  1.0000
  H   H747      1.0  0.273836363240553  0.4239443487048722  0.36861110063746505  1.0000
  H   H748      1.0  0.2602411518092538  0.3851747079131024  0.37228141011590227  1.0000
  N   N42       1.0  0.3042131434839383  0.7350582415393541  0.02059196192109969  1.0000
  C   C549      1.0  0.3281685738836975  0.729790482672853  0.9956475811027656  1.0000
  C   C550      1.0  0.3170854500224827  0.7237840833123544  0.04902317232956088  1.0000
  C   C551      1.0  0.27480956918094773  0.7186074272650924  0.014495312985886244  1.0000
  C   C552      1.0  0.29682623140690884  0.7683566231563549  0.023325330294273305  1.0000
  H   H749      1.0  0.3194145639485563  0.7384463649931103  0.973936071018174  1.0000
  H   H750      1.0  0.3343317879042543  0.7048469668150261  0.9929115981829298  1.0000
  H   H751      1.0  0.3505976647152096  0.7419876535858363  0.9997361540983543  1.0000
  H   H752      1.0  0.33913408750673874  0.735962570838789  0.05446579967871923  1.0000
  H   H753      1.0  0.2996012643211596  0.7274034994728061  0.06829727674781072  1.0000
  H   H754      1.0  0.3231635095732227  0.6987250876821749  0.04795773618191945  1.0000
  H   H755      1.0  0.2563632595487677  0.7221826920023403  0.032984993312987765  1.0000
  H   H756      1.0  0.2793739731843342  0.6933503523392953  0.012461768668097672  1.0000
  H   H757      1.0  0.2645275525503368  0.7265552167580811  0.9931723108991888  1.0000
  H   H758      1.0  0.3186896808915121  0.7812899073850136  0.02721989640985889  1.0000
  H   H759      1.0  0.2796357600281103  0.7734374249979581  0.042566638546708724  1.0000
  H   H760      1.0  0.28670427766661233  0.7778502697276279  0.002472591980057892  1.0000
  N   N43       1.0  0.3375255561046961  0.4825471872396839  0.46571412186818567  1.0000
  C   C553      1.0  0.3616365360642068  0.45733143526374265  0.462436527125727  1.0000
  C   C554      1.0  0.33409666762915247  0.4978135855481639  0.43630255450360117  1.0000
  C   C555      1.0  0.3475925047405973  0.5051618572521294  0.488060966393598  1.0000
  C   C556      1.0  0.30670519079256015  0.46977079534362  0.47612844192350134  1.0000
  H   H761      1.0  0.3851711143565958  0.46615307824034624  0.45449249163153965  1.0000
  H   H762      1.0  0.3546473142292767  0.43980971152348125  0.44577180381306764  1.0000
  H   H763      1.0  0.3647841079486988  0.44525008389257204  0.4841951201118922  1.0000
  H   H764      1.0  0.31629414417211604  0.5171944843480218  0.4378375601429298  1.0000
  H   H765      1.0  0.35702280271472386  0.5074406642615283  0.4276454804637785  1.0000
  H   H766      1.0  0.3264896166823145  0.48133987033199505  0.4189308898571585  1.0000
  H   H767      1.0  0.3706700025650311  0.5155920657415619  0.4810328358730099  1.0000
  H   H768      1.0  0.35051224834019973  0.4943666030145949  0.5105122119973535  1.0000
  H   H769      1.0  0.32980221787295366  0.5244319190590371  0.491231417267738  1.0000
  H   H770      1.0  0.3084359265360144  0.4587415368818345  0.49861126701003805  1.0000
  H   H771      1.0  0.2987121184887985  0.45201522149673307  0.4601834144190103  1.0000
  H   H772      1.0  0.28781034652948  0.48810314665317667  0.4782780611126893  1.0000
  N   N44       1.0  0.3843169380681548  0.7300580322668858  0.7051069355064224  1.0000
  C   C557      1.0  0.3703084344186059  0.7176103047444297  0.6778901788385153  1.0000
  C   C558      1.0  0.3706934996050561  0.7611322704638387  0.7117724467975063  1.0000
  C   C559      1.0  0.4191636356899832  0.7319726318159416  0.6997830252095553  1.0000
  C   C560      1.0  0.3771556313746599  0.7095041357209646  0.7309153139492062  1.0000
  H   H773      1.0  0.3805919484370085  0.694401247663046  0.6719677194023312  1.0000
  H   H774      1.0  0.37471133849504673  0.7326587628782436  0.6579751698129332  1.0000
  H   H775      1.0  0.34409022811425477  0.7151161438983711  0.6810527701658627  1.0000
  H   H776      1.0  0.3444421532577235  0.7604857292557204  0.716037251548911  1.0000
  H   H777      1.0  0.3810919215141527  0.7712199880215798  0.732090225790472  1.0000
  H   H778      1.0  0.3756033846639687  0.7772621821624883  0.6927758309787011  1.0000
  H   H779      1.0  0.43041450477152177  0.7087707827558197  0.6958012530354856  1.0000
  H   H780      1.0  0.43053030619984206  0.742416144491494  0.7193151754464642  1.0000
  H   H781      1.0  0.4253469473633773  0.7465172730238131  0.6798697775170635  1.0000
  H   H782      1.0  0.3866481016260717  0.7186471451322346  0.7519901555103963  1.0000
  H   H783      1.0  0.3877351762343451  0.6859918548688293  0.7270307769363678  1.0000
  H   H784      1.0  0.3510451524915447  0.7068722000644323  0.735092886470686  1.0000
  N   N45       1.0  0.6858140397187812  0.9683351785333182  0.4135859324712471  1.0000
  C   C561      1.0  0.7084143376640605  0.9914827356735252  0.42340411680457524  1.0000
  C   C562      1.0  0.6570405178146244  0.9693330703288487  0.43394802841523106  1.0000
  C   C563      1.0  0.7008994436135759  0.9372607159655846  0.41450366969672375  1.0000
  C   C564      1.0  0.67683157732948  0.9752227679319966  0.3825139781676284  1.0000
  H   H785      1.0  0.7304977426199454  0.9913290237258158  0.4086627244334623  1.0000
  H   H786      1.0  0.7155389758861451  0.9871163835454498  0.446823167229845  1.0000
  H   H787      1.0  0.6978526522749083  0.015241827828833987  0.42288364465650424  1.0000
  H   H788      1.0  0.6445797111355314  0.9922182253310506  0.43316421467256283  1.0000
  H   H789      1.0  0.6398027536841265  0.9516693638517422  0.42750078308156414  1.0000
  H   H790      1.0  0.6630684437780395  0.964906846307463  0.4576904289943557  1.0000
  H   H791      1.0  0.7084093049480951  0.9313112834017528  0.43749126502739644  1.0000
  H   H792      1.0  0.7223773594161178  0.9353465296473498  0.3989650466195717  1.0000
  H   H793      1.0  0.6843170635132004  0.9191367626345246  0.40764942391001563  1.0000
  H   H794      1.0  0.6603491328022358  0.957760073281656  0.37421834245627905  1.0000
  H   H795      1.0  0.698030452859482  0.9753225028140929  0.3666033784070143  1.0000
  H   H796      1.0  0.6645470366300827  0.9981444540993364  0.38103298189152746  1.0000
  N   N46       1.0  0.713271887677239  0.9896470624267165  0.6443002665771085  1.0000
  C   C565      1.0  0.7302536741779312  0.984792481431671  0.672344091592549  1.0000
  C   C566      1.0  0.7306698085576618  0.9732501194909298  0.6192072651586205  1.0000
  C   C567      1.0  0.7115649127086702  0.022948513126383796  0.637540327762136  1.0000
  C   C568      1.0  0.6807050554726988  0.9776761573567055  0.6481269995057506  1.0000
  H   H797      1.0  0.7180664290178965  0.9971956830195402  0.6916925165625516  1.0000
  H   H798      1.0  0.7550035000214705  0.9934040815382209  0.6701344491313612  1.0000
  H   H799      1.0  0.7319126827859748  0.9599288965450917  0.6782539393676871  1.0000
  H   H800      1.0  0.7553055553318722  0.9818847628896712  0.6156303966453812  1.0000
  H   H801      1.0  0.7325650363648047  0.9480622946688703  0.6235620792261662  1.0000
  H   H802      1.0  0.7185372079986545  0.976324532148144  0.5976787224050043  1.0000
  H   H803      1.0  0.6991004044785469  0.027519718320942577  0.616423352818766  1.0000
  H   H804      1.0  0.7357909491258015  0.03258720100926493  0.6346475697283501  1.0000
  H   H805      1.0  0.6986278268405446  0.036125345534368636  0.6559702026625125  1.0000
  H   H806      1.0  0.6810102305128191  0.9524865486697379  0.6527923238035774  1.0000
  H   H807      1.0  0.6670975896855462  0.9812286757302048  0.6275147594102368  1.0000
  H   H808      1.0  0.6669271808513942  0.9893864211632419  0.6669899646753763  1.0000
  N   N47       1.0  0.4447256378715941  0.3071180870950616  0.30341283900778376  1.0000
  C   C569      1.0  0.42438641637427715  0.28592892847376866  0.2872760189427566  1.0000
  C   C570      1.0  0.42444752663905044  0.3303367261908129  0.3199317338075598  1.0000
  C   C571      1.0  0.4663886008353351  0.3227302430121822  0.28152744795595236  1.0000
  C   C572      1.0  0.4636756115610825  0.28945715496705127  0.3249324197632692  1.0000
  H   H809      1.0  0.4073667442874389  0.2741085857100552  0.30308849942056004  1.0000
  H   H810      1.0  0.4388261195181485  0.26796692148657325  0.2746611088113428  1.0000
  H   H811      1.0  0.4097662375890872  0.29856725872205037  0.27086678022124216  1.0000
  H   H812      1.0  0.40913868961892647  0.34345370492093236  0.30442733487134077  1.0000
  H   H813      1.0  0.4081244801683686  0.3193692357055112  0.3369827128782469  1.0000
  H   H814      1.0  0.43897566004102684  0.3472340514708902  0.331823828932663  1.0000
  H   H815      1.0  0.481987800994689  0.33895913545605344  0.2930009518947909  1.0000
  H   H816      1.0  0.4529148238268411  0.3362630579948358  0.26486425113246165  1.0000
  H   H817      1.0  0.48225143903819995  0.30587879103752846  0.26883559774410115  1.0000
  H   H818      1.0  0.47888724073377253  0.30488377183356064  0.3378008046517768  1.0000
  H   H819      1.0  0.47977339677000347  0.27214363245403644  0.313131049490626  1.0000
  H   H820      1.0  0.4480868569529966  0.27695849130596073  0.34148179405605933  1.0000
  N   N48       1.0  0.20604239684624265  0.39616240148684817  0.6155334989700557  1.0000
  C   C573      1.0  0.19575489860242987  0.3638953822933868  0.6180092840598019  1.0000
  C   C574      1.0  0.18393580703369097  0.41619202471509953  0.6339569088807205  1.0000
  C   C575      1.0  0.20581367407695708  0.4060192904941522  0.583760544951004  1.0000
  C   C576      1.0  0.23862220807649315  0.3984709834301674  0.6263105251703356  1.0000
  H   H821      1.0  0.17120935683195573  0.36133952566548644  0.6101106118420941  1.0000
  H   H822      1.0  0.19564628885159882  0.35562279860479185  0.6416704996899699  1.0000
  H   H823      1.0  0.21177754287077602  0.3481230887807341  0.6041487760606531  1.0000
  H   H824      1.0  0.1910230605379063  0.4407207619472525  0.632885543614759  1.0000
  H   H825      1.0  0.15918851697138256  0.41503736865006763  0.6261588598297918  1.0000
  H   H826      1.0  0.1830282903556601  0.40912755793673533  0.6580423880224395  1.0000
  H   H827      1.0  0.18193113879486913  0.4031999730099204  0.574453498054591  1.0000
  H   H828      1.0  0.22324526301122713  0.3921847128441004  0.569432500714692  1.0000
  H   H829      1.0  0.2120969996629294  0.4306210735947875  0.5811126533749306  1.0000
  H   H830      1.0  0.2558325494103292  0.3837144772504295  0.6125891628886739  1.0000
  H   H831      1.0  0.23976424591952572  0.3909615877803883  0.6501517082064914  1.0000
  H   H832      1.0  0.24714190384699128  0.42253535208197285  0.6248760725929388  1.0000
  N   N49       1.0  0.49665107806362285  0.6582680857947809  0.21472722589030965  1.0000
  C   C577      1.0  0.49325649080192685  0.6711859261467498  0.1842853714534353  1.0000
  C   C578      1.0  0.4981262041153277  0.6835833062646757  0.23685792852091636  1.0000
  C   C579      1.0  0.5263180698665518  0.6394857529380404  0.21516651384228078  1.0000
  C   C580      1.0  0.46915843328470047  0.6387334039885696  0.2226506290551542  1.0000
  H   H833      1.0  0.4928124189622731  0.6525823681408348  0.16705989139410127  1.0000
  H   H834      1.0  0.5136053058997949  0.686115559567928  0.17778313902903992  1.0000
  H   H835      1.0  0.4708639276848851  0.6851495274108161  0.18285886740203203  1.0000
  H   H836      1.0  0.5010746221268383  0.6744968974618398  0.26001330852281906  1.0000
  H   H837      1.0  0.51889438980616  0.6985226398166008  0.23167659478692004  1.0000
  H   H838      1.0  0.47620057513180286  0.6983754311673344  0.2373014857227024  1.0000
  H   H839      1.0  0.5265467835855779  0.6203614629981479  0.1984468692512215  1.0000
  H   H840      1.0  0.5292209160431709  0.6291379687948772  0.23766978231809133  1.0000
  H   H841      1.0  0.5476786524966856  0.6536076138238506  0.2100333150232586  1.0000
  H   H842      1.0  0.46731178867465467  0.6194666882152863  0.2062934470073119  1.0000
  H   H843      1.0  0.44629427239529207  0.6521548847470751  0.22301334034444592  1.0000
  H   H844      1.0  0.47122608549765777  0.6280520399422823  0.24524042959929987  1.0000
  N   N50       1.0  0.31858493401038357  0.8918790809215352  0.9214314299221288  1.0000
  C   C581      1.0  0.321848510120224  0.8915305931397226  0.9544011850367039  1.0000
  C   C582      1.0  0.3490099517992997  0.9008853540716809  0.9062960737510987  1.0000
  C   C583      1.0  0.2930903469768854  0.9141690269465359  0.9139964315483764  1.0000
  C   C584      1.0  0.3103049941069063  0.8608456003629451  0.911047349597182  1.0000
  H   H845      1.0  0.2998471363572719  0.8832259942750421  0.9664746163507948  1.0000
  H   H846      1.0  0.3265325392168404  0.9148648259127193  0.9633515413338357  1.0000
  H   H847      1.0  0.3418310922254862  0.8760852290264809  0.9607594021320521  1.0000
  H   H848      1.0  0.3561748431040142  0.9241063552198074  0.9137023068459552  1.0000
  H   H849      1.0  0.36869357062122887  0.8843345157691298  0.9113771996491709  1.0000
  H   H850      1.0  0.3473626379829501  0.9015228344300725  0.8813535070853952  1.0000
  H   H851      1.0  0.2699906199606016  0.9080716112605829  0.9255304225343668  1.0000
  H   H852      1.0  0.2895662366244809  0.9147512982982736  0.8893495883938521  1.0000
  H   H853      1.0  0.29865318541911096  0.9379010952655186  0.9212627293964387  1.0000
  H   H854      1.0  0.2877366122067033  0.8530763385264761  0.9223714090476681  1.0000
  H   H855      1.0  0.32910995224582645  0.8435460932167173  0.9162916265277823  1.0000
  H   H856      1.0  0.30721672931993016  0.8604063700580874  0.8863163638637865  1.0000
  N   N51       1.0  0.617406657300516  0.11392945213480687  0.25890693733448555  1.0000
  C   C585      1.0  0.6482453614735049  0.10230331319419705  0.2694322349087969  1.0000
  C   C586      1.0  0.603974294176973  0.09075055194419712  0.2390297756230171  1.0000
  C   C587      1.0  0.6222292283172556  0.143107550557259  0.24236240028996447  1.0000
  C   C588      1.0  0.5951661747577872  0.1195494697464714  0.28507648436801997  1.0000
  H   H857      1.0  0.6592637534996055  0.11953615090954184  0.2840961978978194  1.0000
  H   H858      1.0  0.6655461282973772  0.09728185975467296  0.2503123700374891  1.0000
  H   H859      1.0  0.6453442102493935  0.0807153001984755  0.28274896612380807  1.0000
  H   H860      1.0  0.5805690469897851  0.09871093248757123  0.23085815185518643  1.0000
  H   H861      1.0  0.6201334949029147  0.08582457823435674  0.2190148651299166  1.0000
  H   H862      1.0  0.6001370878871414  0.0685605800138962  0.2511768306205068  1.0000
  H   H863      1.0  0.6388061889207158  0.1398064939860586  0.22235392026294087  1.0000
  H   H864      1.0  0.6326085112274972  0.16086940910871728  0.2569308242833536  1.0000
  H   H865      1.0  0.5993703577340732  0.1529328356775228  0.23458566378405168  1.0000
  H   H866      1.0  0.5717321988397502  0.12881172913804262  0.2781947690089454  1.0000
  H   H867      1.0  0.604879810922117  0.13661079867595993  0.3006083609090205  1.0000
  H   H868      1.0  0.5908242820209482  0.09801507191484093  0.29810397325542193  1.0000
  N   N52       1.0  0.42617001629719975  0.4998281859831906  0.25616116395515665  1.0000
  C   C589      1.0  0.4575101762237145  0.4888843784489848  0.24374286923060506  1.0000
  C   C590      1.0  0.4012358673941202  0.49020124922739083  0.23598409274297913  1.0000
  C   C591      1.0  0.426069394776568  0.5337833630501274  0.2584715004155874  1.0000
  C   C592      1.0  0.42017600127134114  0.4863667475611895  0.28634106896989014  1.0000
  H   H869      1.0  0.4769386545464775  0.49600631956656815  0.258214574409769  1.0000
  H   H870      1.0  0.4625637269512987  0.49823981387306965  0.22081287255166154  1.0000
  H   H871      1.0  0.4587159741103329  0.4634482306710698  0.24208615069917058  1.0000
  H   H872      1.0  0.377129401886946  0.4974400178000794  0.24491904842266068  1.0000
  H   H873      1.0  0.4047026886414564  0.5005167753676044  0.2132184711344842  1.0000
  H   H874      1.0  0.4012717003777537  0.46468848908365806  0.23317569311174666  1.0000
  H   H875      1.0  0.40298385652895036  0.5430346112248663  0.26808515731136406  1.0000
  H   H876      1.0  0.4302221521310377  0.544762073883176  0.23604633061951513  1.0000
  H   H877      1.0  0.44502525005854954  0.5418172435978658  0.2730548057190201  1.0000
  H   H878      1.0  0.3976240812205544  0.4954583743293126  0.2973322713988545  1.0000
  H   H879      1.0  0.4397506911658866  0.4911982438195743  0.30153109565042074  1.0000
  H   H880      1.0  0.4181190820496897  0.46101389514063074  0.28515874830308924  1.0000
  N   N53       1.0  0.34030519415728183  0.7580363322345091  0.8510049689367585  1.0000
  C   C593      1.0  0.35202725787921035  0.7558581167064544  0.8191906305306577  1.0000
  C   C594      1.0  0.33512280827646174  0.7907410131016557  0.8594747456704933  1.0000
  C   C595      1.0  0.36410959119132585  0.7437763325289538  0.8704034427149451  1.0000
  C   C596      1.0  0.3098775301181093  0.7418526920398496  0.8549828449193134  1.0000
  H   H881      1.0  0.3567649839279429  0.7314459682420945  0.8122760157965763  1.0000
  H   H882      1.0  0.37462788051643603  0.7684530375528202  0.8152295721247519  1.0000
  H   H883      1.0  0.33427584286047574  0.7656242587521851  0.8038165097318506  1.0000
  H   H884      1.0  0.32703328971066714  0.7931874499065619  0.8835324315216823  1.0000
  H   H885      1.0  0.35723437346155756  0.8041251556397149  0.8557509218235976  1.0000
  H   H886      1.0  0.31645247227147033  0.8017244003771016  0.8459722847669354  1.0000
  H   H887      1.0  0.37044174526596413  0.7197309035904005  0.8632292695117343  1.0000
  H   H888      1.0  0.355297991126307  0.7429747545961071  0.8943438355310909  1.0000
  H   H889      1.0  0.3865254557422106  0.7568910305167307  0.8694521644236256  1.0000
  H   H890      1.0  0.2917727546019654  0.7513263757177069  0.8397408986264234  1.0000
  H   H891      1.0  0.29977810486535117  0.7438554408366884  0.8784739727549603  1.0000
  H   H892      1.0  0.3129932959562589  0.7169410191931276  0.8497115657867289  1.0000
  N   N54       1.0  0.6327826988006757  0.5297417141040668  0.1842442046245667  1.0000
  C   C597      1.0  0.6287310261478125  0.4966698224726786  0.19093592837216256  1.0000
  C   C598      1.0  0.601325082090656  0.5456290001112796  0.18553167501880652  1.0000
  C   C599      1.0  0.6480049504334497  0.5332040754381517  0.1538469917479217  1.0000
  C   C600      1.0  0.6529696342425396  0.5435489057821864  0.2067522129735906  1.0000
  H   H893      1.0  0.6520115732135502  0.4840045288368171  0.1910565588897004  1.0000
  H   H894      1.0  0.6140895164606348  0.4854203808003165  0.1740406076925869  1.0000
  H   H895      1.0  0.6165478647018118  0.49329391762897057  0.21338842161491978  1.0000
  H   H896      1.0  0.5855223730300564  0.5360552399176359  0.1686545479423236  1.0000
  H   H897      1.0  0.5890382103549768  0.5431227139665576  0.20805433107178728  1.0000
  H   H898      1.0  0.6034616076017689  0.5707504254848473  0.18107871404412013  1.0000
  H   H899      1.0  0.6509582086997413  0.5579095319457106  0.14780325080004109  1.0000
  H   H900      1.0  0.6334849716651958  0.5228748825096878  0.13630413075722259  1.0000
  H   H901      1.0  0.6719250597610529  0.5217230722476867  0.15207437201031437  1.0000
  H   H902      1.0  0.6570931428299643  0.5683441529562104  0.20199027284129323  1.0000
  H   H903      1.0  0.6765565395441592  0.531499798502487  0.20732626985295433  1.0000
  H   H904      1.0  0.6415963535417251  0.5421948006546714  0.2297608564030682  1.0000
  N   N55       1.0  0.953772316683691  0.057710643535121786  0.887262874353384  1.0000
  C   C601      1.0  0.9872901743654932  0.05459780798870417  0.8955930931571016  1.0000
  C   C602      1.0  0.9328586293851544  0.04420702034303514  0.9111656769539075  1.0000
  C   C603      1.0  0.9494444272087315  0.04143474654470802  0.8585589613003949  1.0000
  C   C604      1.0  0.9453952411813515  0.09069248200799529  0.8836839125848889  1.0000
  H   H905      1.0  0.0035862194255502633  0.0653575081825597  0.8784619440795398  1.0000
  H   H906      1.0  0.9949526666412685  0.03000320327756767  0.8974522223888942  1.0000
  H   H907      1.0  0.9910983392411132  0.06606277518463832  0.9174922770135432  1.0000
  H   H908      1.0  0.9075710132714235  0.044689765661085845  0.9048320594946784  1.0000
  H   H909      1.0  0.9395019756320101  0.019715285714284825  0.9154558761278214  1.0000
  H   H910      1.0  0.9338455150850814  0.05707537357299719  0.9327694627234958  1.0000
  H   H911      1.0  0.9242994500936229  0.04349749815849524  0.8517195162175254  1.0000
  H   H912      1.0  0.9556433701823782  0.016479725240789334  0.8602577488785841  1.0000
  H   H913      1.0  0.9646273212117165  0.05110956644886189  0.8399272313215179  1.0000
  H   H914      1.0  0.9613547432492177  0.10183918288318083  0.8664979049846501  1.0000
  H   H915      1.0  0.9468702271289536  0.10360727395378788  0.9051973017886499  1.0000
  H   H916      1.0  0.9207592291308728  0.09371066922905325  0.8761093226604592  1.0000
  N   N56       1.0  0.13652481108263648  0.2513690025635467  0.7837837606697861  1.0000
  C   C605      1.0  0.12478241394818657  0.257234260195312  0.815117742122745  1.0000
  C   C606      1.0  0.16001816329608176  0.22551364991278414  0.7832621016303086  1.0000
  C   C607      1.0  0.151784374138066  0.2793343640276377  0.7715562367095606  1.0000
  C   C608      1.0  0.10953300411957057  0.24338840552814267  0.7653412027348865  1.0000
  H   H917      1.0  0.11423498190874204  0.23629353188910826  0.8255408859454102  1.0000
  H   H918      1.0  0.10613770747208306  0.2757648287849202  0.8163551281660999  1.0000
  H   H919      1.0  0.14429339227890692  0.26465234246464414  0.8293033700102386  1.0000
  H   H920      1.0  0.16921705961170508  0.22011905063454762  0.7599668848050809  1.0000
  H   H921      1.0  0.18076028826690171  0.2308754132986356  0.7968483690862874  1.0000
  H   H922      1.0  0.14945639050683535  0.2041466513356301  0.7928835305465312  1.0000
  H   H923      1.0  0.16073734704528042  0.275904954652882  0.7478426053793041  1.0000
  H   H924      1.0  0.17219960179834004  0.28602259540681607  0.7850473083606724  1.0000
  H   H925      1.0  0.134753296664043  0.2993297906684556  0.7718996585913361  1.0000
  H   H926      1.0  0.11747937216931281  0.23877220987475942  0.7415274363449934  1.0000
  H   H927      1.0  0.09139961778704353  0.26248976780365807  0.7651976719389083  1.0000
  H   H928      1.0  0.09734798763912189  0.2225474660031991  0.7741893650233096  1.0000
  N   N57       1.0  0.8292792616712511  0.0030787122038304915  0.2266736291748871  1.0000
  C   C609      1.0  0.8396998693440597  0.0049685372284189455  0.19452442531022981  1.0000
  C   C610      1.0  0.8389408939017544  0.031069781645522543  0.2423583950834193  1.0000
  C   C611      1.0  0.844212638948754  0.9757098671772668  0.24040422120452065  1.0000
  C   C612      1.0  0.7942976615334927  0.000691176083752465  0.229572687980828  1.0000
  H   H929      1.0  0.8336037466933198  0.9838516015507502  0.18206287389292938  1.0000
  H   H930      1.0  0.8658925040129327  0.007825625262014357  0.19170535561868507  1.0000
  H   H931      1.0  0.8281759482289783  0.02494817936374938  0.18326168727557246  1.0000
  H   H932      1.0  0.8309566239146553  0.030876136689501177  0.2665090137333706  1.0000
  H   H933      1.0  0.8652840147878454  0.033123701037830466  0.24128655473396082  1.0000
  H   H934      1.0  0.8284020421083186  0.05216045302643857  0.2322794208684481  1.0000
  H   H935      1.0  0.8376935408570823  0.974134324062928  0.26492422747184047  1.0000
  H   H936      1.0  0.8706333930880442  0.9761352343359544  0.2379744282481486  1.0000
  H   H937      1.0  0.8365476695354647  0.9540752414232949  0.22985187274007013  1.0000
  H   H938      1.0  0.7861822752175422  0.9795780182509842  0.21829510306839908  1.0000
  H   H939      1.0  0.7822147765995008  0.02079282491104051  0.21913194711026165  1.0000
  H   H940      1.0  0.7858439084333364  0.9996514732767441  0.2536808058392043  1.0000
  N   N58       1.0  0.8100018041837233  0.19349427771288352  0.9917340910880971  1.0000
  C   C613      1.0  0.81124553948624  0.16531806660301157  0.010348600680425424  1.0000
  C   C614      1.0  0.7874728040488896  0.21626319104295977  0.006115652800210647  1.0000
  C   C615      1.0  0.7993263636980142  0.1855540596964265  0.9615295717014717  1.0000
  C   C616      1.0  0.8419779218422245  0.2069179978936665  0.9889127991986865  1.0000
  H   H941      1.0  0.8271630033897093  0.14730194451171383  0.9995169081809372  1.0000
  H   H942      1.0  0.7873389669905029  0.15513607466040302  0.013859581119760378  1.0000
  H   H943      1.0  0.8205530906874521  0.17005250288691265  0.032892003852683205  1.0000
  H   H944      1.0  0.7861217522124672  0.23781975417764117  0.9925315544009116  1.0000
  H   H945      1.0  0.763011176488522  0.20709669088601734  0.008532269267330417  1.0000
  H   H946      1.0  0.7949005815535237  0.22280430017234923  0.028918630036374182  1.0000
  H   H947      1.0  0.7971882971291897  0.20641261332292646  0.9471747588773289  1.0000
  H   H948      1.0  0.7756417953321838  0.17463863487752837  0.9628709157934429  1.0000
  H   H949      1.0  0.8163518843632749  0.16913584991219968  0.9496187276433494  1.0000
  H   H950      1.0  0.8415890411797098  0.22916315583676125  0.9765758342243617  1.0000
  H   H951      1.0  0.8591578114705014  0.1913325382528308  0.9763994566044978  1.0000
  H   H952      1.0  0.8517242930290304  0.21128754564348157  0.01132223097258045  1.0000
  N   N59       1.0  0.16963970505747314  0.651720230546813  0.6364425365406436  1.0000
  C   C617      1.0  0.17470276889890587  0.6225047989215504  0.6196122924457802  1.0000
  C   C618      1.0  0.20048030798604877  0.6623923593074614  0.6466144804585516  1.0000
  C   C619      1.0  0.14777737242335762  0.6466034168275778  0.6628153673160359  1.0000
  C   C620      1.0  0.155692023556394  0.6753370733646148  0.6167373546622892  1.0000
  H   H953      1.0  0.15232975428860981  0.6146555879173489  0.6099238150582393  1.0000
  H   H954      1.0  0.18382638749206864  0.6038149064560115  0.6342267158639734  1.0000
  H   H955      1.0  0.19247732682910626  0.6251094173740716  0.6006020133971811  1.0000
  H   H956      1.0  0.19748032240480137  0.6839063718191174  0.6601425208140144  1.0000
  H   H957      1.0  0.2121196344402456  0.644715989647568  0.6607889216475714  1.0000
  H   H958      1.0  0.21724271005476764  0.6672103252620459  0.6271115101114768  1.0000
  H   H959      1.0  0.14307787015688267  0.6682281365263184  0.6759150685613421  1.0000
  H   H960      1.0  0.15774254253759  0.6292250581747081  0.6783578608736736  1.0000
  H   H961      1.0  0.12452260160958034  0.6380553899887814  0.6558575742399357  1.0000
  H   H962      1.0  0.1329783193869863  0.6676796456572487  0.607605039663001  1.0000
  H   H963      1.0  0.17216744828657873  0.6805746928581574  0.5971988728908595  1.0000
  H   H964      1.0  0.15029201259740602  0.6973258775815779  0.6290307898198707  1.0000
  N   N60       1.0  0.12046857442373082  0.9942537780697147  0.7903702554875712  1.0000
  C   C621      1.0  0.13754849469489372  0.008988955980596236  0.8146759269349755  1.0000
  C   C622      1.0  0.14256741409914753  0.9730821630160766  0.7732294686842902  1.0000
  C   C623      1.0  0.10818454717801296  0.018276723002341067  0.7701238778476985  1.0000
  C   C624      1.0  0.09360493873546627  0.9766090126794834  0.8035347476600216  1.0000
  H   H965      1.0  0.1490457162674319  0.9915016760832726  0.829140667864046  1.0000
  H   H966      1.0  0.12107333674437748  0.02336427964197285  0.8294787952168653  1.0000
  H   H967      1.0  0.15659405053047037  0.024216386969190484  0.8055975216909879  1.0000
  H   H968      1.0  0.1305815952546603  0.9616974966574973  0.7545403220376559  1.0000
  H   H969      1.0  0.16341374617844173  0.9854810782341115  0.7633467381152357  1.0000
  H   H970      1.0  0.15187222752968754  0.9545100430502556  0.7880158126980664  1.0000
  H   H971      1.0  0.09451806262488915  0.008137600835475656  0.7518601259273932  1.0000
  H   H972      1.0  0.12781478852096884  0.03178885952243027  0.7594506464085528  1.0000
  H   H973      1.0  0.09195823193014818  0.03493030798431995  0.7826528590782852  1.0000
  H   H974      1.0  0.07986599341885725  0.9655879063255498  0.785834210247928  1.0000
  H   H975      1.0  0.07676347808808393  0.9916766548962699  0.8172141456847662  1.0000
  H   H976      1.0  0.10206198633822217  0.9579934332466294  0.8185930054063664  1.0000
  N   N61       1.0  0.926102487396241  0.2831675869286285  0.8696107849441143  1.0000
  C   C625      1.0  0.8954291456438055  0.2920483194349448  0.8851285323163702  1.0000
  C   C626      1.0  0.9259110061822433  0.2501986241845787  0.8612780793329342  1.0000
  C   C627      1.0  0.9523104649078883  0.2885630891883745  0.8898828203297122  1.0000
  C   C628      1.0  0.9306935335172895  0.3018911330772546  0.8420738908562854  1.0000
  H   H977      1.0  0.8950285704191899  0.3166371118447499  0.8923289984514096  1.0000
  H   H978      1.0  0.890614463495597  0.27794613475165303  0.90566150403496  1.0000
  H   H979      1.0  0.8752417311060131  0.2889955728863277  0.8702123828284308  1.0000
  H   H980      1.0  0.949019620666359  0.24251543362597694  0.8502388910131766  1.0000
  H   H981      1.0  0.9212777346478789  0.2353637469888524  0.8813276992984335  1.0000
  H   H982      1.0  0.9070973725651913  0.24556372670778387  0.8451614315324245  1.0000
  H   H983      1.0  0.9759237655782329  0.2825061610286525  0.878864573786159  1.0000
  H   H984      1.0  0.9496055819746739  0.27474076400579533  0.910864535750884  1.0000
  H   H985      1.0  0.9530177440473172  0.31318607292509837  0.8967138991135946  1.0000
  H   H986      1.0  0.9540285863564945  0.29648269869216365  0.8301936972492734  1.0000
  H   H987      1.0  0.9300001524831928  0.32692762258666647  0.8474288644076001  1.0000
  H   H988      1.0  0.9117187266160034  0.2977359185436776  0.8259850047170446  1.0000
  N   N62       1.0  0.20942312502756297  0.8366368982045598  0.1198704670561565  1.0000
  C   C629      1.0  0.17857419965416438  0.8290754784251391  0.1074274142149043  1.0000
  C   C630      1.0  0.22652279620500004  0.807913889491958  0.12787161711988576  1.0000
  C   C631      1.0  0.20374973716342604  0.8559080666776389  0.1470858601151591  1.0000
  C   C632      1.0  0.22884761779011548  0.8536823807527365  0.0971789805438005  1.0000
  H   H989      1.0  0.16473629867652245  0.8502943966285496  0.10197641809562162  1.0000
  H   H990      1.0  0.16348185248280617  0.815672124961649  0.12364790336328899  1.0000
  H   H991      1.0  0.18176150467688057  0.8153053853957287  0.08631738006649148  1.0000
  H   H992      1.0  0.23242113132684014  0.793355169518335  0.10766631807594026  1.0000
  H   H993      1.0  0.2494034166266525  0.8128942692636634  0.13834602027108392  1.0000
  H   H994      1.0  0.21223159374386802  0.7938940174064419  0.14421266590882498  1.0000
  H   H995      1.0  0.1894546742354882  0.8436846086057426  0.16482845107425864  1.0000
  H   H996      1.0  0.19050164899553368  0.8776069105209247  0.1419144493134706  1.0000
  H   H997      1.0  0.22653071986474943  0.8625301465319938  0.15681578155522496  1.0000
  H   H998      1.0  0.2529014236854439  0.8584398707306852  0.10530081931137278  1.0000
  H   H999      1.0  0.21748983912746483  0.8762753407012472  0.0917133638908569  1.0000
  H   H1000     1.0  0.23229772872071155  0.8404961829145497  0.07575576242929821  1.0000
  N   N63       1.0  0.6915103345087752  0.11492752492752967  0.4993141429914726  1.0000
  C   C633      1.0  0.7174888317050265  0.1333347332441961  0.4855616722683771  1.0000
  C   C634      1.0  0.6627846351181116  0.11862857031509244  0.4816191553812314  1.0000
  C   C635      1.0  0.6843709878512134  0.1255534008335728  0.5305217334418798  1.0000
  C   C636      1.0  0.701451898962706  0.08208097885818999  0.49955934985215766  1.0000
  H   H1001     1.0  0.7396500351368088  0.1308036910137047  0.49820359140498366  1.0000
  H   H1002     1.0  0.710904184009996  0.15829084824036954  0.4852140550788953  1.0000
  H   H1003     1.0  0.723476012251428  0.12603790554721273  0.4619235066851936  1.0000
  H   H1004     1.0  0.6425361299139013  0.10534231636269475  0.49150542643911416  1.0000
  H   H1005     1.0  0.6546625581689692  0.14319245877135955  0.48049257764605097  1.0000
  H   H1006     1.0  0.6674074543727677  0.1102137557629137  0.4581694314277227  1.0000
  H   H1007     1.0  0.6760801012520222  0.150096699339634  0.5311024633074771  1.0000
  H   H1008     1.0  0.7057952602959695  0.12369320752791024  0.5442481849743198  1.0000
  H   H1009     1.0  0.665500041934578  0.11160509613283143  0.5418665622930234  1.0000
  H   H1010     1.0  0.708239555774831  0.07349422226927627  0.47652559262268346  1.0000
  H   H1011     1.0  0.6820183631500133  0.06735181480161456  0.5086918004600934  1.0000
  H   H1012     1.0  0.7224764428639057  0.0782224795270059  0.5134005376331504  1.0000
  N   N64       1.0  0.9367644669909205  0.8368315917088689  0.5159308199252796  1.0000
  C   C637      1.0  0.9159509444254431  0.8100912381162199  0.5205861563699747  1.0000
  C   C638      1.0  0.9238135264439711  0.863161219844859  0.5340842110713734  1.0000
  C   C639      1.0  0.9381016189763596  0.8454528865567458  0.4837661080159934  1.0000
  C   C640      1.0  0.9691617895782144  0.8286174771050638  0.5252188421721736  1.0000
  H   H1013     1.0  0.9146658388160035  0.8026566308774156  0.5445357587970014  1.0000
  H   H1014     1.0  0.9248692280988456  0.7898888081744522  0.5069781737480606  1.0000
  H   H1015     1.0  0.8912575126466402  0.815423909677313  0.5138734091024392  1.0000
  H   H1016     1.0  0.9389770613081106  0.8837345450168416  0.5311369304920943  1.0000
  H   H1017     1.0  0.8994582024955208  0.8699862647543981  0.5273493745625355  1.0000
  H   H1018     1.0  0.9222621546229327  0.8574656822467097  0.5584958666231136  1.0000
  H   H1019     1.0  0.9140037356686442  0.8512820854188059  0.47578782217478605  1.0000
  H   H1020     1.0  0.9481969490433753  0.8262794799592387  0.4694508688721263  1.0000
  H   H1021     1.0  0.953209370899082  0.8658143129287076  0.47937746810942633  1.0000
  H   H1022     1.0  0.9690963126831379  0.8217652234391299  0.5493261092277594  1.0000
  H   H1023     1.0  0.9855887220571066  0.8481840369681538  0.5219118109181233  1.0000
  H   H1024     1.0  0.9795273695627265  0.8088290749647182  0.511807887723271  1.0000
