data_image0
_chemical_formula_structural       CSFeH2SH3SCFeHFeSCFeC4HSNCFeCSC6H5C4SHFeH2CHS2CH3NFeH2C3HCH3SCH4SFeHSHSCHCSH2C2H2FeHSH2SHCSCFeHC2HC2HCHCH3FeC3H2C2HNHS2HNC2HCHCHFeCHSCHSHC2FeCHSHCH7CHCSHCS2CH2CH4S2CSC2HCFeHC6HSHC2H2FeHNH7SH7CHNHCH3CH2CHCHCHSCHSCHCH3CSHSH2SHFeC3FeCHCHC2H2CHFeSHSH2FeH2SH2FeCSCSH2SHNH3C3H3CH2C3SFeSFeNSFeH2FeS2H2SCH4SC6H3CH2SH2CSNH5SCH2CHC2FeH5SCH2FeH3SNHC2HCH2NHC2H3C2H4CHCH4C2H2CHSCHCH2SH2NH4CHCHC3H2CH4CH2CH2CH4CHFeS3HCHCFeHCHC2SCSCH2C2H2CHFeSHFeHSHC2SH2CHFeC2H3CNC2SCHCHCH2CSCHCH4C2H4NCH5CFeNS2HCHCH4SCHNSH2C2NH3C2HCHCHCNH8CHCHC2HCHCH2CSFeHSNH2CH2SCHFeSHC2H2CFeHFeHSHC2H2CSHFeNHCS2NC5H3CSH5SH3NH5CH2CHCHSCH3FeH3C2FeHCSH4CH2CH2SNH3CHC4HCHCHSFeHCHSH2FeSH5C6S2H3CHC4SHSC2H3S2H2FeCHFeHFeHSFeS2FeHSCHSC6H4C2H4SHSC2FeHC2FeCHNH5CH2CHC2HCH2CNSCH4CFeHCHS2CHCH2FeC2HCHS2HC3FeHC2HCSH5NFeS3FeHC2H8CH2C3H2FeH3N2H3SCH2CHCH2CHC4H3CHSH3SHCH2NCHSHC3H2CH3SFeCSH3SHCH2CHCFeCH4C3HSHCH2CH3CH2CH6SHNC3H2CFeH2S2FeH2CHCHCS2HC2HNC2H5CSH3FeS2FeSH6C4SHNH4C2HFeH3C3SCH6SC5HC2HCFeHCNSH2CH3C2SH2SFeCHCSFeHCHCH2C2SHC2S2CHSHC2HCH2CH2CHCHCNCH2FeH2CH2FeHSHC2H2NC2HFeH4C2H2C3FeC2H2NH3CSH5SFeS2H2SCH2CH2C4HSNHCH3C3HCH7FeCSNH2NHC2HFeHSC2HCH4SFeSCS3HSHC3HFeH2CH2CHFeHSHCHFeHCSHC3H4SC2FeCH2SHCH3CHNC3H2CSH3CH9CHCH4CHNH2CHSHC2H3C2SHCHC2SFeSCFeHC2FeCH2SCH3CHSH2C2H2CH6CH4CSNH2SHCNHCH2S2HCH2C2FeHFeCFeSHSH3C2HCH3C2SHCH2CH2CH3C2FeHSHC6H5CH2NHFeSH4CHCHSHCFeSHC7HCH2SHCH4NHSHFeSHC3NH3CH8CHCHSFe3SCHFeHCSCHSFeH2CFeSCHFeS2NH2CH3C6H3SHCHC2S2HNHCSHFeCSH2C2SHCHCH4NH5C2H4C2HCFeH5CHCHS2H2CHNH3C6HCH3SCHC2H3SC2H4NCH3NHSH4SCH2S2H2CHNH2SH5CHC2HCH2C2H2FeHFeHC2H4C2FeHC3SCFeCHC3H3CSCS2Fe2SH5FeHSHNSHCHFeS3FeSC6H4SH2SH3CHC3H2C2H2SH3C2HNCHSHCHC2HCH2SH3SCH6C2H2CHCHCHC2H4CSCHC2NHCFeHSHCSH6CSFe2NHFeHCHC2H2CHFeHS2NSCHC7HC3H3SHSHC2H3SH3SCSFeH2SC2HCH2CH3S3HCSCSFeC2HCNH3FeH5NSHFeSHFe2CHSH2SFeHCH3C2HC2SHC3SCH2CSCFeHCH3C2HNCH2SHCHCHCH2C2NH2CSC2NCSH4CSCH3SHCHFeC2SFeC2H4CHFe2HSH3CSFeS2HC6H3SH5CH2CFeSHFeH7CSHCHCFeSFeHFeCHSHC5H2CH3SFeSC2SC2H4NCH2CHCSNH2CHCHSC3SHFeHCHCFeSHCH2SH2FeHCH2S2HS2H2CFeC2HC2HC2H2FeCH3C2SHNC2HS2H2C5H3SH3FeH3CH4C3SHCHFeS2CFeHS2CSC3HFeC6H7CFeH3CNHCH2SHSHC2H3NHFeCH2CH8C2H3CFe2H3S2CH2SCFeH3SCH3CNSCHC2H4SHSCH2C7H2CHCHNH2SFeH4CHNCH2SH3CH6FeCHCH6NH3CHCH2SHCH4
_chemical_formula_sum              "C720 S288 Fe144 H1152 N72"
_cell_length_a       46.0313
_cell_length_b       46.6026
_cell_length_c       45.9438
_cell_angle_alpha    89.715
_cell_angle_beta     89.7851
_cell_angle_gamma    89.9016

_space_group_name_H-M_alt    "P 1"
_space_group_IT_number       1

loop_
  _space_group_symop_operation_xyz
  'x, y, z'

loop_
  _atom_site_type_symbol
  _atom_site_label
  _atom_site_symmetry_multiplicity
  _atom_site_fract_x
  _atom_site_fract_y
  _atom_site_fract_z
  _atom_site_occupancy
  C   C1        1.0  0.10530  0.29772  0.38099  1.0000
  S   S1        1.0  0.25413  0.08466  0.19068  1.0000
  Fe  Fe1       1.0  0.29596  0.10493  0.20394  1.0000
  H   H1        1.0  0.23405  0.14958  0.29423  1.0000
  H   H2        1.0  0.36247  0.11904  0.24315  1.0000
  S   S2        1.0  0.17852  0.24173  0.11927  1.0000
  H   H3        1.0  0.19840  0.14000  0.21400  1.0000
  H   H4        1.0  0.17307  0.16851  0.25158  1.0000
  H   H5        1.0  0.09224  0.25117  0.18368  1.0000
  S   S3        1.0  0.19131  0.28890  0.18880  1.0000
  C   C2        1.0  0.16999  0.11350  0.29857  1.0000
  Fe  Fe2       1.0  0.08021  0.19971  0.34580  1.0000
  H   H6        1.0  0.28381  0.21045  0.18806  1.0000
  Fe  Fe3       1.0  0.16183  0.27002  0.08326  1.0000
  S   S4        1.0  0.10626  0.16124  0.27560  1.0000
  C   C3        1.0  0.15932  0.27454  0.20358  1.0000
  Fe  Fe4       1.0  0.25837  0.05937  0.23183  1.0000
  C   C4        1.0  0.13290  0.25540  0.24517  1.0000
  C   C5        1.0  0.10923  0.24916  0.22729  1.0000
  C   C6        1.0  0.11055  0.25588  0.19758  1.0000
  C   C7        1.0  0.13573  0.26820  0.18564  1.0000
  H   H7        1.0  0.35707  0.15552  0.23191  1.0000
  S   S5        1.0  0.24549  0.20347  0.08882  1.0000
  N   N1        1.0  0.19558  0.18613  0.21450  1.0000
  C   C8        1.0  0.38384  0.13075  0.29622  1.0000
  Fe  Fe5       1.0  0.08664  0.20493  0.28039  1.0000
  C   C9        1.0  0.37659  0.17984  0.28120  1.0000
  S   S6        1.0  0.32389  0.07320  0.18007  1.0000
  C   C10       1.0  0.26112  0.18980  0.12083  1.0000
  C   C11       1.0  0.26669  0.20774  0.14449  1.0000
  C   C12       1.0  0.27923  0.19648  0.16992  1.0000
  C   C13       1.0  0.28557  0.16715  0.17198  1.0000
  C   C14       1.0  0.27988  0.14920  0.14838  1.0000
  C   C15       1.0  0.26793  0.16057  0.12275  1.0000
  H   H8        1.0  0.26175  0.23035  0.14306  1.0000
  H   H9        1.0  0.21968  0.21189  0.18396  1.0000
  H   H10       1.0  0.09941  0.26135  0.35323  1.0000
  H   H11       1.0  0.37480  0.18677  0.30434  1.0000
  H   H12       1.0  0.28506  0.12659  0.14967  1.0000
  C   C16       1.0  0.33546  0.14797  0.28584  1.0000
  C   C17       1.0  0.20684  0.08465  0.27454  1.0000
  C   C18       1.0  0.22665  0.10716  0.27745  1.0000
  C   C19       1.0  0.21848  0.13242  0.29164  1.0000
  S   S7        1.0  0.11515  0.21788  0.31731  1.0000
  H   H13       1.0  0.24843  0.10502  0.26926  1.0000
  Fe  Fe6       1.0  0.13162  0.17290  0.31534  1.0000
  H   H14       1.0  0.07632  0.29653  0.31433  1.0000
  H   H15       1.0  0.17485  0.18642  0.17261  1.0000
  C   C20       1.0  0.17847  0.08782  0.28513  1.0000
  H   H16       1.0  0.21882  0.15786  0.18565  1.0000
  S   S8        1.0  0.29975  0.15296  0.20440  1.0000
  S   S9        1.0  0.07779  0.23327  0.24176  1.0000
  C   C21       1.0  0.16925  0.18724  0.19619  1.0000
  H   H17       1.0  0.23179  0.15781  0.22236  1.0000
  H   H18       1.0  0.23511  0.21004  0.21982  1.0000
  H   H19       1.0  0.20346  0.23156  0.21310  1.0000
  N   N2        1.0  0.36643  0.15001  0.27749  1.0000
  Fe  Fe7       1.0  0.22116  0.24462  0.09604  1.0000
  H   H20       1.0  0.36371  0.19506  0.26765  1.0000
  H   H21       1.0  0.15678  0.20744  0.19986  1.0000
  C   C22       1.0  0.18697  0.18715  0.24549  1.0000
  C   C23       1.0  0.21177  0.15926  0.20882  1.0000
  C   C24       1.0  0.21431  0.21098  0.20757  1.0000
  H   H22       1.0  0.26383  0.14662  0.10446  1.0000
  C   C25       1.0  0.06511  0.28313  0.29784  1.0000
  H   H23       1.0  0.38345  0.06750  0.20066  1.0000
  H   H24       1.0  0.17437  0.20691  0.25059  1.0000
  H   H25       1.0  0.20623  0.18676  0.26005  1.0000
  S   S10       1.0  0.17980  0.16809  0.31805  1.0000
  C   C26       1.0  0.19014  0.13565  0.30210  1.0000
  H   H26       1.0  0.32155  0.16138  0.27132  1.0000
  H   H27       1.0  0.13194  0.25067  0.26813  1.0000
  H   H28       1.0  0.15437  0.16904  0.20116  1.0000
  H   H29       1.0  0.18785  0.19827  0.06902  1.0000
  S   S11       1.0  0.29838  0.08207  0.24676  1.0000
  Fe  Fe8       1.0  0.19220  0.28268  0.14046  1.0000
  H   H30       1.0  0.16300  0.07053  0.28286  1.0000
  S   S12       1.0  0.06325  0.22149  0.38604  1.0000
  H   H31       1.0  0.13672  0.27307  0.16261  1.0000
  S   S13       1.0  0.23635  0.28344  0.11994  1.0000
  C   C27       1.0  0.09393  0.27080  0.37379  1.0000
  H   H32       1.0  0.14800  0.11595  0.30660  1.0000
  C   C28       1.0  0.36994  0.14148  0.24673  1.0000
  S   S14       1.0  0.09915  0.15532  0.34712  1.0000
  H   H33       1.0  0.38188  0.13667  0.31962  1.0000
  H   H34       1.0  0.17599  0.27331  0.24731  1.0000
  C   C29       1.0  0.15778  0.26838  0.23339  1.0000
  C   C30       1.0  0.39026  0.05295  0.24465  1.0000
  H   H35       1.0  0.32746  0.12552  0.28417  1.0000
  H   H36       1.0  0.33184  0.15508  0.30867  1.0000
  Fe  Fe9       1.0  0.07180  0.14735  0.30746  1.0000
  H   H37       1.0  0.07447  0.26119  0.29913  1.0000
  S   S15       1.0  0.21736  0.05269  0.25745  1.0000
  H   H38       1.0  0.37690  0.10798  0.29395  1.0000
  H   H39       1.0  0.07073  0.29163  0.27581  1.0000
  S   S16       1.0  0.11924  0.25883  0.06184  1.0000
  H   H40       1.0  0.15636  0.17776  0.05960  1.0000
  C   C31       1.0  0.13578  0.25437  0.45780  1.0000
  S   S17       1.0  0.18087  0.27424  0.52767  1.0000
  C   C32       1.0  0.18624  0.24834  0.44500  1.0000
  Fe  Fe10      1.0  0.37471  0.19216  0.52005  1.0000
  H   H41       1.0  0.22723  0.24025  0.55208  1.0000
  C   C33       1.0  0.23689  0.25635  0.53802  1.0000
  C   C34       1.0  0.06849  0.26905  0.41987  1.0000
  H   H42       1.0  0.20290  0.23463  0.43425  1.0000
  C   C35       1.0  0.21897  0.27572  0.52293  1.0000
  C   C36       1.0  0.07596  0.25616  0.39345  1.0000
  H   H43       1.0  0.31998  0.13049  0.56907  1.0000
  C   C37       1.0  0.26737  0.25824  0.53572  1.0000
  H   H44       1.0  0.30998  0.18587  0.60416  1.0000
  C   C38       1.0  0.34375  0.13132  0.56463  1.0000
  H   H45       1.0  0.34973  0.09366  0.52111  1.0000
  H   H46       1.0  0.14101  0.25725  0.48125  1.0000
  H   H47       1.0  0.12675  0.22170  0.41064  1.0000
  Fe  Fe11      1.0  0.29264  0.06416  0.68293  1.0000
  C   C39       1.0  0.14876  0.23144  0.41259  1.0000
  C   C40       1.0  0.35070  0.08956  0.59508  1.0000
  C   C41       1.0  0.30211  0.12450  0.64420  1.0000
  H   H48       1.0  0.18671  0.26981  0.43427  1.0000
  H   H49       1.0  0.37122  0.21086  0.40470  1.0000
  C   C42       1.0  0.38125  0.19225  0.41466  1.0000
  C   C43       1.0  0.07998  0.29589  0.42718  1.0000
  H   H50       1.0  0.19308  0.25142  0.46802  1.0000
  N   N3        1.0  0.15702  0.23531  0.44340  1.0000
  H   H51       1.0  0.32684  0.08760  0.59890  1.0000
  S   S18       1.0  0.37978  0.15233  0.49303  1.0000
  S   S19       1.0  0.36674  0.19729  0.62881  1.0000
  H   H52       1.0  0.28102  0.24375  0.54807  1.0000
  N   N4        1.0  0.35713  0.10254  0.56633  1.0000
  C   C44       1.0  0.29564  0.14630  0.62412  1.0000
  C   C45       1.0  0.37481  0.18521  0.44368  1.0000
  H   H53       1.0  0.33323  0.10905  0.67550  1.0000
  C   C46       1.0  0.28003  0.27936  0.51804  1.0000
  H   H54       1.0  0.13552  0.27606  0.44754  1.0000
  C   C47       1.0  0.34093  0.17032  0.63556  1.0000
  H   H55       1.0  0.27572  0.14535  0.61172  1.0000
  Fe  Fe12      1.0  0.36876  0.21288  0.58244  1.0000
  C   C48       1.0  0.15724  0.20716  0.45836  1.0000
  H   H56       1.0  0.16336  0.20942  0.48170  1.0000
  S   S20       1.0  0.31797  0.28453  0.51635  1.0000
  C   C49       1.0  0.31504  0.16918  0.61977  1.0000
  H   H57       1.0  0.14821  0.25233  0.40074  1.0000
  S   S21       1.0  0.27884  0.09480  0.64761  1.0000
  H   H58       1.0  0.35963  0.19823  0.45590  1.0000
  C   C50       1.0  0.26206  0.29803  0.50224  1.0000
  C   C51       1.0  0.38892  0.10516  0.56251  1.0000
  Fe  Fe13      1.0  0.34904  0.25058  0.53304  1.0000
  C   C52       1.0  0.34703  0.14894  0.65617  1.0000
  H   H59       1.0  0.34661  0.14105  0.54269  1.0000
  S   S22       1.0  0.33621  0.20594  0.54683  1.0000
  H   H60       1.0  0.11334  0.24559  0.45657  1.0000
  C   C53       1.0  0.32779  0.12595  0.66030  1.0000
  H   H61       1.0  0.36701  0.14972  0.66847  1.0000
  H   H62       1.0  0.13543  0.19686  0.45764  1.0000
  H   H63       1.0  0.16427  0.21713  0.40093  1.0000
  H   H64       1.0  0.35462  0.06236  0.54368  1.0000
  H   H65       1.0  0.17303  0.19217  0.44806  1.0000
  H   H66       1.0  0.36026  0.06771  0.59720  1.0000
  H   H67       1.0  0.35954  0.10285  0.61305  1.0000
  C   C54       1.0  0.23171  0.29629  0.50472  1.0000
  H   H68       1.0  0.32110  0.08222  0.54521  1.0000
  C   C55       1.0  0.34512  0.08433  0.54306  1.0000
  S   S23       1.0  0.37930  0.25860  0.57070  1.0000
  H   H69       1.0  0.35371  0.14624  0.58054  1.0000
  C   C56       1.0  0.38742  0.16101  0.45658  1.0000
  S   S24       1.0  0.38508  0.23606  0.50322  1.0000
  S   S25       1.0  0.31076  0.07895  0.72544  1.0000
  C   C57       1.0  0.19680  0.11018  0.80915  1.0000
  H   H70       1.0  0.17176  0.15689  0.78698  1.0000
  H   H71       1.0  0.20598  0.13037  0.81805  1.0000
  C   C58       1.0  0.17523  0.08659  0.76788  1.0000
  H   H72       1.0  0.21539  0.15015  0.01121  1.0000
  H   H73       1.0  0.08174  0.22823  0.02284  1.0000
  H   H74       1.0  0.16333  0.26858  0.96511  1.0000
  H   H75       1.0  0.17851  0.10375  0.82365  1.0000
  S   S26       1.0  0.10000  0.20523  0.85584  1.0000
  S   S27       1.0  0.12776  0.23681  0.92645  1.0000
  C   C59       1.0  0.12760  0.06604  0.83947  1.0000
  S   S28       1.0  0.12309  0.12401  0.84778  1.0000
  C   C60       1.0  0.20654  0.20710  0.01381  1.0000
  C   C61       1.0  0.11025  0.09058  0.83569  1.0000
  H   H76       1.0  0.14457  0.12964  0.79025  1.0000
  C   C62       1.0  0.21194  0.12291  0.76041  1.0000
  Fe  Fe14      1.0  0.09433  0.20955  0.90413  1.0000
  H   H77       1.0  0.19221  0.06956  0.76759  1.0000
  C   C63       1.0  0.12080  0.25365  0.02399  1.0000
  C   C64       1.0  0.09949  0.23712  0.01020  1.0000
  C   C65       1.0  0.10137  0.23162  0.98017  1.0000
  C   C66       1.0  0.12457  0.24274  0.96396  1.0000
  C   C67       1.0  0.14554  0.25963  0.97766  1.0000
  C   C68       1.0  0.14357  0.26520  0.00754  1.0000
  H   H78       1.0  0.06942  0.27193  0.85334  1.0000
  S   S29       1.0  0.08943  0.16240  0.91184  1.0000
  H   H79       1.0  0.14973  0.16086  0.00922  1.0000
  C   C69       1.0  0.16493  0.17804  0.00200  1.0000
  C   C70       1.0  0.16414  0.13626  0.77760  1.0000
  H   H80       1.0  0.17526  0.17110  0.98124  1.0000
  H   H81       1.0  0.15699  0.07877  0.78183  1.0000
  Fe  Fe15      1.0  0.09161  0.15826  0.86330  1.0000
  H   H82       1.0  0.08611  0.09109  0.92283  1.0000
  N   N5        1.0  0.18687  0.18430  0.02451  1.0000
  H   H83       1.0  0.19440  0.22717  0.00874  1.0000
  H   H84       1.0  0.15700  0.14051  0.75488  1.0000
  H   H85       1.0  0.21815  0.20051  0.99364  1.0000
  H   H86       1.0  0.06399  0.10167  0.87662  1.0000
  H   H87       1.0  0.14851  0.06776  0.84999  1.0000
  H   H88       1.0  0.08500  0.21867  0.96966  1.0000
  H   H89       1.0  0.18985  0.14056  0.03938  1.0000
  S   S30       1.0  0.25158  0.05245  0.78169  1.0000
  H   H90       1.0  0.09620  0.29781  0.97585  1.0000
  H   H91       1.0  0.07003  0.10702  0.81857  1.0000
  H   H92       1.0  0.15944  0.27883  0.01772  1.0000
  H   H93       1.0  0.15159  0.19737  0.99701  1.0000
  H   H94       1.0  0.21389  0.09331  0.81089  1.0000
  H   H95       1.0  0.20555  0.12553  0.73721  1.0000
  H   H96       1.0  0.22978  0.10673  0.76111  1.0000
  C   C71       1.0  0.07345  0.06115  0.81288  1.0000
  H   H97       1.0  0.22122  0.14364  0.76786  1.0000
  N   N6        1.0  0.18703  0.11399  0.77875  1.0000
  H   H98       1.0  0.07565  0.27048  0.93487  1.0000
  C   C72       1.0  0.20393  0.15813  0.03094  1.0000
  H   H99       1.0  0.16690  0.08887  0.74529  1.0000
  H   H100      1.0  0.08734  0.05289  0.88574  1.0000
  H   H101      1.0  0.22333  0.21248  0.03032  1.0000
  C   C73       1.0  0.17206  0.19400  0.05133  1.0000
  H   H102      1.0  0.22078  0.16234  0.04777  1.0000
  H   H103      1.0  0.15980  0.21420  0.04757  1.0000
  C   C74       1.0  0.08329  0.08812  0.82208  1.0000
  H   H104      1.0  0.06907  0.06672  0.94814  1.0000
  C   C75       1.0  0.06395  0.29032  0.92814  1.0000
  H   H105      1.0  0.12247  0.29712  0.92904  1.0000
  C   C76       1.0  0.06480  0.08243  0.93035  1.0000
  H   H106      1.0  0.06050  0.28888  0.90424  1.0000
  S   S31       1.0  0.20376  0.26984  0.05836  1.0000
  C   C77       1.0  0.20366  0.41020  0.11385  1.0000
  H   H107      1.0  0.36536  0.47296  0.22055  1.0000
  S   S32       1.0  0.28212  0.46788  0.19615  1.0000
  C   C78       1.0  0.30242  0.36605  0.17753  1.0000
  H   H108      1.0  0.27282  0.39685  0.06744  1.0000
  C   C79       1.0  0.23191  0.37948  0.08190  1.0000
  H   H109      1.0  0.18987  0.36856  0.09933  1.0000
  H   H110      1.0  0.18433  0.41385  0.12680  1.0000
  H   H111      1.0  0.28108  0.36610  0.12296  1.0000
  C   C80       1.0  0.20685  0.38446  0.09844  1.0000
  S   S33       1.0  0.35383  0.42590  0.18172  1.0000
  H   H112      1.0  0.24759  0.34836  0.13177  1.0000
  S   S34       1.0  0.17105  0.31105  0.10708  1.0000
  H   H113      1.0  0.21192  0.44380  0.36980  1.0000
  H   H114      1.0  0.26660  0.32116  0.18842  1.0000
  S   S35       1.0  0.23791  0.34642  0.06478  1.0000
  H   H115      1.0  0.28150  0.33024  0.13724  1.0000
  Fe  Fe16      1.0  0.32517  0.46413  0.17352  1.0000
  C   C81       1.0  0.25346  0.40058  0.08033  1.0000
  C   C82       1.0  0.26280  0.50245  0.27469  1.0000
  C   C83       1.0  0.28441  0.54370  0.29781  1.0000
  Fe  Fe17      1.0  0.21442  0.30880  0.08470  1.0000
  C   C84       1.0  0.27833  0.52817  0.27249  1.0000
  H   H116      1.0  0.38337  0.39469  0.33708  1.0000
  C   C85       1.0  0.19898  0.42821  0.38299  1.0000
  H   H117      1.0  0.26764  0.44166  0.09545  1.0000
  C   C86       1.0  0.22594  0.43060  0.11353  1.0000
  C   C87       1.0  0.25067  0.42588  0.09644  1.0000
  H   H118      1.0  0.25722  0.35076  0.21170  1.0000
  H   H119      1.0  0.31395  0.34505  0.17761  1.0000
  C   C88       1.0  0.25268  0.49287  0.30202  1.0000
  H   H120      1.0  0.20685  0.53130  0.07910  1.0000
  Fe  Fe18      1.0  0.26540  0.47866  0.15155  1.0000
  S   S36       1.0  0.22286  0.46136  0.13524  1.0000
  H   H121      1.0  0.38434  0.39367  0.28308  1.0000
  S   S37       1.0  0.27213  0.52603  0.15638  1.0000
  H   H122      1.0  0.32842  0.49530  0.07139  1.0000
  H   H123      1.0  0.30438  0.37554  0.19962  1.0000
  Fe  Fe19      1.0  0.31583  0.51758  0.13631  1.0000
  H   H124      1.0  0.25786  0.40065  0.19191  1.0000
  H   H125      1.0  0.25791  0.49038  0.25529  1.0000
  S   S38       1.0  0.33757  0.51031  0.17937  1.0000
  H   H126      1.0  0.31440  0.38055  0.16231  1.0000
  H   H127      1.0  0.23335  0.34028  0.18281  1.0000
  Fe  Fe20      1.0  0.29301  0.51471  0.19906  1.0000
  C   C89       1.0  0.27393  0.53438  0.32497  1.0000
  S   S39       1.0  0.24301  0.49808  0.36087  1.0000
  C   C90       1.0  0.25770  0.50914  0.32714  1.0000
  S   S40       1.0  0.30765  0.47093  0.12856  1.0000
  H   H128      1.0  0.11979  0.30865  0.36603  1.0000
  H   H129      1.0  0.24027  0.47323  0.30356  1.0000
  S   S41       1.0  0.28760  0.54327  0.23844  1.0000
  H   H130      1.0  0.17903  0.42306  0.37044  1.0000
  N   N7        1.0  0.27172  0.36291  0.16879  1.0000
  H   H131      1.0  0.23413  0.38981  0.16310  1.0000
  H   H132      1.0  0.21204  0.40818  0.38492  1.0000
  H   H133      1.0  0.27863  0.54665  0.34427  1.0000
  C   C91       1.0  0.27045  0.35142  0.13892  1.0000
  C   C92       1.0  0.25732  0.39127  0.16970  1.0000
  C   C93       1.0  0.25664  0.34295  0.18887  1.0000
  H   H134      1.0  0.26814  0.40688  0.15478  1.0000
  H   H135      1.0  0.20991  0.47857  0.07242  1.0000
  H   H136      1.0  0.24851  0.50413  0.09856  1.0000
  C   C94       1.0  0.38499  0.46044  0.21819  1.0000
  H   H137      1.0  0.27286  0.52762  0.07946  1.0000
  H   H138      1.0  0.27514  0.48950  0.07426  1.0000
  C   C95       1.0  0.33372  0.54085  0.06568  1.0000
  C   C96       1.0  0.25979  0.50764  0.07739  1.0000
  C   C97       1.0  0.38511  0.43590  0.20080  1.0000
  S   S42       1.0  0.33290  0.54927  0.10297  1.0000
  Fe  Fe21      1.0  0.23406  0.53432  0.39218  1.0000
  S   S43       1.0  0.18810  0.55020  0.39175  1.0000
  Fe  Fe22      1.0  0.12245  0.34357  0.46667  1.0000
  N   N8        1.0  0.19170  0.44002  0.41192  1.0000
  S   S44       1.0  0.11613  0.34178  0.41826  1.0000
  Fe  Fe23      1.0  0.15605  0.37847  0.51083  1.0000
  H   H139      1.0  0.24671  0.31416  0.56553  1.0000
  H   H140      1.0  0.13083  0.53664  0.71460  1.0000
  Fe  Fe24      1.0  0.09960  0.34942  0.52823  1.0000
  S   S45       1.0  0.16894  0.34327  0.48051  1.0000
  S   S46       1.0  0.11077  0.38183  0.49352  1.0000
  H   H141      1.0  0.16863  0.42696  0.45053  1.0000
  H   H142      1.0  0.15395  0.41312  0.41739  1.0000
  S   S47       1.0  0.14455  0.34865  0.54739  1.0000
  C   C98       1.0  0.17458  0.46665  0.40825  1.0000
  H   H143      1.0  0.24766  0.38757  0.53212  1.0000
  H   H144      1.0  0.26507  0.53235  0.55591  1.0000
  H   H145      1.0  0.23220  0.42703  0.43123  1.0000
  H   H146      1.0  0.27587  0.38695  0.57889  1.0000
  S   S48       1.0  0.23538  0.52845  0.44077  1.0000
  C   C99       1.0  0.17664  0.44827  0.50792  1.0000
  C   C100      1.0  0.19700  0.47043  0.50562  1.0000
  C   C101      1.0  0.18893  0.49700  0.49369  1.0000
  C   C102      1.0  0.16048  0.50149  0.48413  1.0000
  C   C103      1.0  0.13967  0.47999  0.48816  1.0000
  C   C104      1.0  0.14776  0.45340  0.50009  1.0000
  H   H147      1.0  0.21927  0.46680  0.51219  1.0000
  H   H148      1.0  0.20478  0.51395  0.49184  1.0000
  H   H149      1.0  0.11752  0.48349  0.48115  1.0000
  C   C105      1.0  0.09890  0.30995  0.40801  1.0000
  H   H150      1.0  0.21520  0.37652  0.60488  1.0000
  H   H151      1.0  0.28507  0.34978  0.57397  1.0000
  S   S49       1.0  0.15160  0.53250  0.46430  1.0000
  H   H152      1.0  0.21407  0.45593  0.44948  1.0000
  H   H153      1.0  0.22183  0.35967  0.52561  1.0000
  C   C106      1.0  0.24246  0.36473  0.53708  1.0000
  S   S50       1.0  0.18843  0.41384  0.51812  1.0000
  N   N9        1.0  0.23974  0.35968  0.56876  1.0000
  H   H154      1.0  0.22399  0.40243  0.57695  1.0000
  H   H155      1.0  0.25993  0.35128  0.52740  1.0000
  H   H156      1.0  0.16901  0.47635  0.42964  1.0000
  H   H157      1.0  0.20935  0.32502  0.56339  1.0000
  H   H158      1.0  0.26692  0.36106  0.60668  1.0000
  S   S51       1.0  0.06208  0.36107  0.55790  1.0000
  C   C107      1.0  0.21879  0.44661  0.42772  1.0000
  H   H159      1.0  0.13170  0.43681  0.50274  1.0000
  H   H160      1.0  0.09363  0.54324  0.70484  1.0000
  C   C108      1.0  0.21792  0.37962  0.58100  1.0000
  H   H161      1.0  0.19629  0.37650  0.57079  1.0000
  C   C109      1.0  0.23048  0.32974  0.57413  1.0000
  C   C110      1.0  0.26816  0.36461  0.58273  1.0000
  Fe  Fe25      1.0  0.15412  0.31342  0.51566  1.0000
  H   H162      1.0  0.27174  0.31412  0.48819  1.0000
  H   H163      1.0  0.22771  0.32521  0.59777  1.0000
  H   H164      1.0  0.23232  0.46248  0.41553  1.0000
  H   H165      1.0  0.26249  0.54462  0.50323  1.0000
  H   H166      1.0  0.18689  0.39842  0.43208  1.0000
  S   S52       1.0  0.10786  0.31096  0.49990  1.0000
  C   C111      1.0  0.17456  0.41871  0.42865  1.0000
  H   H167      1.0  0.21831  0.31091  0.49250  1.0000
  H   H168      1.0  0.07415  0.30570  0.44765  1.0000
  Fe  Fe26      1.0  0.19091  0.54833  0.44023  1.0000
  H   H169      1.0  0.15384  0.46258  0.39665  1.0000
  H   H170      1.0  0.18693  0.48306  0.39557  1.0000
  H   H171      1.0  0.07945  0.53598  0.75585  1.0000
  S   S53       1.0  0.33262  0.52179  0.96811  1.0000
  N   N10       1.0  0.08050  0.31633  0.93590  1.0000
  H   H172      1.0  0.23977  0.51627  0.00673  1.0000
  C   C112      1.0  0.09954  0.54729  0.76278  1.0000
  C   C113      1.0  0.33048  0.51267  0.05586  1.0000
  H   H173      1.0  0.23630  0.46378  0.04797  1.0000
  C   C114      1.0  0.33010  0.50697  0.02584  1.0000
  H   H174      1.0  0.32746  0.48516  0.01830  1.0000
  H   H175      1.0  0.26952  0.49558  0.02069  1.0000
  N   N11       1.0  0.23889  0.50958  0.05316  1.0000
  H   H176      1.0  0.07696  0.32469  0.85605  1.0000
  C   C115      1.0  0.25483  0.51398  0.02549  1.0000
  C   C116      1.0  0.22195  0.48268  0.05171  1.0000
  H   H177      1.0  0.11633  0.53055  0.76680  1.0000
  H   H178      1.0  0.26863  0.53361  0.02619  1.0000
  H   H179      1.0  0.20580  0.48333  0.03377  1.0000
  C   C117      1.0  0.10924  0.31566  0.92142  1.0000
  C   C118      1.0  0.33345  0.52933  0.00556  1.0000
  H   H180      1.0  0.12195  0.33542  0.92586  1.0000
  H   H181      1.0  0.20283  0.53615  0.04045  1.0000
  H   H182      1.0  0.06328  0.31792  0.97952  1.0000
  H   H183      1.0  0.09737  0.33622  0.97451  1.0000
  C   C119      1.0  0.06434  0.34210  0.92625  1.0000
  H   H184      1.0  0.10717  0.31353  0.89740  1.0000
  C   C120      1.0  0.08448  0.31719  0.96782  1.0000
  H   H185      1.0  0.07625  0.36214  0.93167  1.0000
  H   H186      1.0  0.06096  0.34216  0.90225  1.0000
  H   H187      1.0  0.38836  0.49076  0.03475  1.0000
  H   H188      1.0  0.39069  0.50032  0.98149  1.0000
  C   C121      1.0  0.05955  0.31622  0.84301  1.0000
  C   C122      1.0  0.21903  0.53401  0.05825  1.0000
  H   H189      1.0  0.11606  0.77661  0.18072  1.0000
  H   H190      1.0  0.06272  0.78944  0.12212  1.0000
  C   C123      1.0  0.24616  0.60933  0.27433  1.0000
  H   H191      1.0  0.22618  0.55773  0.29318  1.0000
  S   S54       1.0  0.19207  0.63295  0.37190  1.0000
  C   C124      1.0  0.08666  0.61018  0.38717  1.0000
  H   H192      1.0  0.19804  0.63253  0.29761  1.0000
  C   C125      1.0  0.13178  0.59776  0.31910  1.0000
  H   H193      1.0  0.09156  0.76017  0.15532  1.0000
  H   H194      1.0  0.19823  0.63856  0.25897  1.0000
  S   S55       1.0  0.08662  0.61767  0.28640  1.0000
  H   H195      1.0  0.23122  0.55460  0.05957  1.0000
  H   H196      1.0  0.16719  0.58237  0.34524  1.0000
  N   N12       1.0  0.21624  0.59802  0.27255  1.0000
  H   H197      1.0  0.17247  0.61422  0.27488  1.0000
  H   H198      1.0  0.07737  0.77949  0.18573  1.0000
  H   H199      1.0  0.26248  0.59219  0.27024  1.0000
  H   H200      1.0  0.21568  0.59980  0.22575  1.0000
  C   C126      1.0  0.19534  0.62188  0.27613  1.0000
  H   H201      1.0  0.25069  0.61849  0.29620  1.0000
  C   C127      1.0  0.12318  0.64898  0.32046  1.0000
  H   H202      1.0  0.11121  0.66766  0.31320  1.0000
  C   C128      1.0  0.14672  0.65220  0.33938  1.0000
  C   C129      1.0  0.16254  0.62818  0.34853  1.0000
  C   C130      1.0  0.15492  0.60093  0.33855  1.0000
  H   H203      1.0  0.25012  0.62640  0.25779  1.0000
  H   H204      1.0  0.15267  0.67336  0.34693  1.0000
  C   C131      1.0  0.11578  0.62178  0.31023  1.0000
  H   H205      1.0  0.29701  0.56324  0.29642  1.0000
  H   H206      1.0  0.21570  0.58572  0.31780  1.0000
  H   H207      1.0  0.12604  0.57669  0.31116  1.0000
  H   H208      1.0  0.18892  0.56818  0.29566  1.0000
  C   C132      1.0  0.09507  0.77944  0.16913  1.0000
  H   H209      1.0  0.06292  0.60552  0.38721  1.0000
  H   H210      1.0  0.22738  0.56612  0.24070  1.0000
  C   C133      1.0  0.21195  0.58434  0.24391  1.0000
  H   H211      1.0  0.11628  0.78690  0.11471  1.0000
  H   H212      1.0  0.18955  0.57565  0.24177  1.0000
  C   C134      1.0  0.21154  0.57652  0.29585  1.0000
  H   H213      1.0  0.09731  0.59499  0.37186  1.0000
  H   H214      1.0  0.08945  0.63218  0.37797  1.0000
  H   H215      1.0  0.32009  0.79972  0.06260  1.0000
  H   H216      1.0  0.08755  0.77767  0.06558  1.0000
  C   C135      1.0  0.08044  0.79945  0.06145  1.0000
  H   H217      1.0  0.23198  0.66578  0.54958  1.0000
  Fe  Fe27      1.0  0.25079  0.57422  0.44175  1.0000
  S   S56       1.0  0.20625  0.59350  0.44467  1.0000
  S   S57       1.0  0.28494  0.59368  0.47066  1.0000
  S   S58       1.0  0.32805  0.60203  0.67103  1.0000
  H   H218      1.0  0.07274  0.57134  0.42817  1.0000
  C   C136      1.0  0.15310  0.66297  0.71713  1.0000
  H   H219      1.0  0.19402  0.59541  0.54742  1.0000
  C   C137      1.0  0.28497  0.58481  0.50791  1.0000
  Fe  Fe28      1.0  0.32727  0.64883  0.65885  1.0000
  H   H220      1.0  0.10799  0.56262  0.41363  1.0000
  C   C138      1.0  0.35844  0.75989  0.60910  1.0000
  H   H221      1.0  0.20669  0.62529  0.52590  1.0000
  C   C139      1.0  0.11393  0.55365  0.71261  1.0000
  C   C140      1.0  0.29820  0.60360  0.52755  1.0000
  S   S59       1.0  0.28923  0.56207  0.60491  1.0000
  C   C141      1.0  0.33747  0.71580  0.62840  1.0000
  S   S60       1.0  0.07647  0.71965  0.71494  1.0000
  C   C142      1.0  0.38617  0.74998  0.61645  1.0000
  H   H222      1.0  0.16692  0.62887  0.58007  1.0000
  H   H223      1.0  0.18568  0.65810  0.59694  1.0000
  C   C143      1.0  0.27261  0.55930  0.51826  1.0000
  C   C144      1.0  0.09592  0.57809  0.42760  1.0000
  H   H224      1.0  0.06007  0.62178  0.43847  1.0000
  H   H225      1.0  0.30779  0.62334  0.51960  1.0000
  C   C145      1.0  0.13017  0.61552  0.41589  1.0000
  H   H226      1.0  0.24094  0.60042  0.59496  1.0000
  Fe  Fe29      1.0  0.26169  0.65170  0.65771  1.0000
  S   S61       1.0  0.25696  0.60538  0.66961  1.0000
  H   H227      1.0  0.35019  0.58651  0.60373  1.0000
  Fe  Fe30      1.0  0.29289  0.59806  0.63742  1.0000
  H   H228      1.0  0.20293  0.59411  0.60037  1.0000
  S   S62       1.0  0.29485  0.64386  0.62295  1.0000
  H   H229      1.0  0.35870  0.58291  0.56578  1.0000
  C   C146      1.0  0.20291  0.65844  0.70028  1.0000
  C   C147      1.0  0.37040  0.63684  0.58377  1.0000
  S   S63       1.0  0.22195  0.67757  0.64711  1.0000
  H   H230      1.0  0.16124  0.69206  0.64945  1.0000
  H   H231      1.0  0.17924  0.65878  0.55840  1.0000
  C   C148      1.0  0.28734  0.57124  0.56770  1.0000
  H   H232      1.0  0.22501  0.65147  0.70407  1.0000
  Fe  Fe31      1.0  0.29223  0.61401  0.70210  1.0000
  C   C149      1.0  0.18493  0.64451  0.57702  1.0000
  C   C150      1.0  0.36518  0.70578  0.63560  1.0000
  H   H233      1.0  0.38336  0.61313  0.63598  1.0000
  H   H234      1.0  0.30930  0.61164  0.57222  1.0000
  H   H235      1.0  0.14019  0.61420  0.43786  1.0000
  C   C151      1.0  0.18170  0.65391  0.72177  1.0000
  N   N13       1.0  0.21297  0.62977  0.57210  1.0000
  C   C152      1.0  0.19559  0.67223  0.67421  1.0000
  C   C153      1.0  0.38953  0.72287  0.62959  1.0000
  S   S64       1.0  0.36965  0.67176  0.65169  1.0000
  C   C154      1.0  0.16699  0.68142  0.66962  1.0000
  H   H236      1.0  0.22026  0.62377  0.61791  1.0000
  C   C155      1.0  0.21953  0.61120  0.59741  1.0000
  H   H237      1.0  0.12357  0.68347  0.68717  1.0000
  C   C156      1.0  0.21129  0.61202  0.54556  1.0000
  H   H238      1.0  0.09283  0.62733  0.45871  1.0000
  H   H239      1.0  0.10476  0.57567  0.45003  1.0000
  C   C157      1.0  0.14569  0.67662  0.69101  1.0000
  S   S65       1.0  0.29422  0.66130  0.69247  1.0000
  C   C158      1.0  0.29901  0.59703  0.55738  1.0000
  H   H240      1.0  0.23818  0.66512  0.58815  1.0000
  C   C159      1.0  0.33413  0.74275  0.61507  1.0000
  H   H241      1.0  0.31264  0.75037  0.60951  1.0000
  H   H242      1.0  0.35274  0.63937  0.60009  1.0000
  H   H243      1.0  0.25769  0.64104  0.56483  1.0000
  H   H244      1.0  0.12118  0.56899  0.69539  1.0000
  C   C160      1.0  0.08343  0.62766  0.43644  1.0000
  C   C161      1.0  0.23621  0.65138  0.56849  1.0000
  H   H245      1.0  0.31855  0.70292  0.63324  1.0000
  H   H246      1.0  0.08421  0.65017  0.42819  1.0000
  H   H247      1.0  0.23213  0.60056  0.54147  1.0000
  H   H248      1.0  0.36022  0.63649  0.56183  1.0000
  N   N14       1.0  0.09904  0.60787  0.41676  1.0000
  C   C162      1.0  0.36846  0.58516  0.58779  1.0000
  H   H249      1.0  0.14263  0.60073  0.40157  1.0000
  H   H250      1.0  0.38403  0.65653  0.58526  1.0000
  H   H251      1.0  0.13358  0.63770  0.40740  1.0000
  H   H252      1.0  0.38051  0.56498  0.59260  1.0000
  H   H253      1.0  0.09311  0.60688  0.72030  1.0000
  C   C163      1.0  0.27415  0.55237  0.54807  1.0000
  Fe  Fe32      1.0  0.20769  0.59381  0.39596  1.0000
  N   N15       1.0  0.38756  0.61058  0.58946  1.0000
  S   S66       1.0  0.35329  0.79353  0.59241  1.0000
  S   S67       1.0  0.25370  0.57843  0.39292  1.0000
  H   H254      1.0  0.33437  0.66766  0.80307  1.0000
  C   C164      1.0  0.37187  0.73722  0.00004  1.0000
  H   H255      1.0  0.13933  0.72525  0.73124  1.0000
  C   C165      1.0  0.33711  0.55740  0.01541  1.0000
  H   H256      1.0  0.06545  0.58127  0.73002  1.0000
  H   H257      1.0  0.16499  0.72231  0.80764  1.0000
  H   H258      1.0  0.12332  0.76038  0.73398  1.0000
  H   H259      1.0  0.38954  0.75325  0.99692  1.0000
  S   S68       1.0  0.28449  0.60037  0.74876  1.0000
  C   C166      1.0  0.11287  0.73024  0.78314  1.0000
  H   H260      1.0  0.33914  0.57484  0.99994  1.0000
  N   N16       1.0  0.38131  0.71316  0.01887  1.0000
  S   S69       1.0  0.12697  0.65744  0.74438  1.0000
  H   H261      1.0  0.11108  0.72838  0.80722  1.0000
  H   H262      1.0  0.09463  0.55775  0.78398  1.0000
  C   C167      1.0  0.38923  0.71136  0.92758  1.0000
  C   C168      1.0  0.34035  0.58094  0.75906  1.0000
  N   N17       1.0  0.37332  0.65386  0.82490  1.0000
  H   H263      1.0  0.34474  0.58497  0.73626  1.0000
  H   H264      1.0  0.35072  0.61755  0.84286  1.0000
  H   H265      1.0  0.28564  0.58484  0.80880  1.0000
  C   C169      1.0  0.30710  0.58090  0.79997  1.0000
  C   C170      1.0  0.13650  0.58199  0.75010  1.0000
  H   H266      1.0  0.16209  0.75625  0.73433  1.0000
  C   C171      1.0  0.32914  0.57044  0.81822  1.0000
  H   H267      1.0  0.13340  0.59412  0.77072  1.0000
  C   C172      1.0  0.31263  0.58630  0.77041  1.0000
  H   H268      1.0  0.36525  0.72962  0.97821  1.0000
  C   C173      1.0  0.08654  0.59069  0.73694  1.0000
  N   N18       1.0  0.14057  0.74360  0.77404  1.0000
  H   H269      1.0  0.18631  0.73460  0.77710  1.0000
  H   H270      1.0  0.08256  0.60255  0.75756  1.0000
  H   H271      1.0  0.33755  0.70089  0.02958  1.0000
  H   H272      1.0  0.36205  0.69628  0.83932  1.0000
  H   H273      1.0  0.33982  0.58495  0.05285  1.0000
  H   H274      1.0  0.34813  0.63363  0.79147  1.0000
  H   H275      1.0  0.18755  0.64339  0.74198  1.0000
  H   H276      1.0  0.16333  0.78334  0.78065  1.0000
  C   C174      1.0  0.14136  0.74652  0.74199  1.0000
  H   H277      1.0  0.36754  0.72010  0.92547  1.0000
  C   C175      1.0  0.33731  0.56311  0.04537  1.0000
  H   H278      1.0  0.35297  0.74885  0.00959  1.0000
  C   C176      1.0  0.36240  0.57030  0.77732  1.0000
  C   C177      1.0  0.35471  0.65542  0.79877  1.0000
  H   H279      1.0  0.37072  0.63797  0.86865  1.0000
  C   C178      1.0  0.35691  0.56533  0.80700  1.0000
  H   H280      1.0  0.35277  0.68278  0.99857  1.0000
  C   C179      1.0  0.35721  0.63967  0.84878  1.0000
  H   H281      1.0  0.16369  0.70348  0.77367  1.0000
  H   H282      1.0  0.14257  0.77098  0.81156  1.0000
  C   C180      1.0  0.16501  0.72525  0.78359  1.0000
  S   S70       1.0  0.37882  0.79886  0.04159  1.0000
  Fe  Fe33      1.0  0.37549  0.61212  0.92129  1.0000
  H   H283      1.0  0.11047  0.70834  0.77401  1.0000
  S   S71       1.0  0.36333  0.65882  0.92473  1.0000
  N   N19       1.0  0.10913  0.56840  0.74064  1.0000
  H   H284      1.0  0.32458  0.56626  0.84095  1.0000
  H   H285      1.0  0.33717  0.65170  0.85477  1.0000
  C   C181      1.0  0.38762  0.72408  0.04833  1.0000
  H   H286      1.0  0.14462  0.59763  0.73356  1.0000
  H   H287      1.0  0.36613  0.66594  0.78018  1.0000
  S   S72       1.0  0.34319  0.58077  0.90325  1.0000
  C   C182      1.0  0.35791  0.69151  0.02054  1.0000
  H   H288      1.0  0.15396  0.56584  0.75373  1.0000
  Fe  Fe34      1.0  0.35873  0.55190  0.93955  1.0000
  S   S73       1.0  0.38781  0.58475  0.95960  1.0000
  H   H289      1.0  0.09395  0.74302  0.77558  1.0000
  C   C183      1.0  0.14295  0.77231  0.78738  1.0000
  C   C184      1.0  0.06907  0.79429  0.74593  1.0000
  H   H290      1.0  0.12449  0.78640  0.78080  1.0000
  H   H291      1.0  0.06639  0.77973  0.72794  1.0000
  C   C185      1.0  0.38156  0.68311  0.83405  1.0000
  Fe  Fe35      1.0  0.38132  0.56393  0.87776  1.0000
  H   H292      1.0  0.36423  0.67302  0.03461  1.0000
  Fe  Fe36      1.0  0.08351  0.67495  0.73139  1.0000
  H   H293      1.0  0.38382  0.56626  0.76848  1.0000
  S   S74       1.0  0.38538  0.55384  0.82982  1.0000
  H   H294      1.0  0.36828  0.73483  0.05807  1.0000
  C   C186      1.0  0.28984  0.88306  0.07785  1.0000
  C   C187      1.0  0.23894  0.98771  0.10505  1.0000
  H   H295      1.0  0.31621  0.94990  0.06425  1.0000
  H   H296      1.0  0.34179  0.92674  0.10550  1.0000
  C   C188      1.0  0.11867  0.80526  0.12995  1.0000
  S   S75       1.0  0.22542  0.90465  0.12727  1.0000
  H   H297      1.0  0.20643  0.04290  0.19779  1.0000
  Fe  Fe37      1.0  0.20812  0.89103  0.08378  1.0000
  N   N20       1.0  0.18771  0.00106  0.19290  1.0000
  H   H298      1.0  0.29879  0.86207  0.08524  1.0000
  C   C189      1.0  0.19955  0.02790  0.18041  1.0000
  S   S76       1.0  0.21627  0.84636  0.06744  1.0000
  S   S77       1.0  0.16086  0.89169  0.07230  1.0000
  N   N21       1.0  0.09476  0.80606  0.15148  1.0000
  C   C190      1.0  0.25810  0.99703  0.12662  1.0000
  C   C191      1.0  0.26764  0.97767  0.14789  1.0000
  C   C192      1.0  0.25745  0.94930  0.14806  1.0000
  C   C193      1.0  0.23801  0.94012  0.12671  1.0000
  C   C194      1.0  0.22879  0.95935  0.10517  1.0000
  H   H299      1.0  0.23143  0.00265  0.08858  1.0000
  H   H300      1.0  0.28309  0.98445  0.16406  1.0000
  H   H301      1.0  0.26477  0.93445  0.16469  1.0000
  C   C195      1.0  0.21056  0.98620  0.20980  1.0000
  S   S78       1.0  0.28268  0.02305  0.21134  1.0000
  H   H302      1.0  0.14542  0.01942  0.20034  1.0000
  H   H303      1.0  0.30749  0.91685  0.12133  1.0000
  H   H304      1.0  0.21322  0.95266  0.08902  1.0000
  H   H305      1.0  0.18324  0.03931  0.16680  1.0000
  H   H306      1.0  0.11917  0.82517  0.11644  1.0000
  S   S79       1.0  0.26883  0.03316  0.12715  1.0000
  H   H307      1.0  0.16982  0.02202  0.23054  1.0000
  H   H308      1.0  0.15343  0.98819  0.22211  1.0000
  H   H309      1.0  0.22970  0.98102  0.19595  1.0000
  N   N22       1.0  0.31258  0.90534  0.07634  1.0000
  H   H310      1.0  0.16925  0.96153  0.17759  1.0000
  H   H311      1.0  0.28199  0.94005  0.08013  1.0000
  H   H312      1.0  0.27228  0.88908  0.09328  1.0000
  H   H313      1.0  0.14025  0.80316  0.14055  1.0000
  H   H314      1.0  0.06571  0.82788  0.12203  1.0000
  C   C196      1.0  0.17785  0.98225  0.16910  1.0000
  H   H315      1.0  0.11953  0.83019  0.18245  1.0000
  H   H316      1.0  0.08075  0.83240  0.18715  1.0000
  C   C197      1.0  0.09848  0.83116  0.17063  1.0000
  H   H317      1.0  0.16047  0.99265  0.15596  1.0000
  C   C198      1.0  0.16296  0.00792  0.21228  1.0000
  H   H318      1.0  0.20249  0.96577  0.21942  1.0000
  S   S80       1.0  0.36127  0.02874  0.24435  1.0000
  C   C199      1.0  0.32468  0.90988  0.10571  1.0000
  H   H319      1.0  0.19603  0.97710  0.15399  1.0000
  H   H320      1.0  0.34557  0.87509  0.06338  1.0000
  H   H321      1.0  0.21850  0.99973  0.22800  1.0000
  Fe  Fe38      1.0  0.32265  0.04836  0.22213  1.0000
  H   H322      1.0  0.33453  0.88982  0.11454  1.0000
  H   H323      1.0  0.21890  0.02372  0.16647  1.0000
  H   H324      1.0  0.09811  0.85156  0.15787  1.0000
  C   C200      1.0  0.06669  0.80842  0.13619  1.0000
  C   C201      1.0  0.29974  0.93247  0.06553  1.0000
  Fe  Fe39      1.0  0.28195  0.05025  0.17097  1.0000
  H   H325      1.0  0.26066  0.84478  0.59947  1.0000
  C   C202      1.0  0.31678  0.85419  0.61125  1.0000
  S   S81       1.0  0.32741  0.03166  0.67482  1.0000
  H   H326      1.0  0.19583  0.95985  0.68904  1.0000
  H   H327      1.0  0.31320  0.86926  0.62957  1.0000
  H   H328      1.0  0.30857  0.90829  0.59161  1.0000
  H   H329      1.0  0.22748  0.93708  0.68814  1.0000
  C   C203      1.0  0.30512  0.84176  0.56168  1.0000
  H   H330      1.0  0.17135  0.92682  0.72448  1.0000
  H   H331      1.0  0.29760  0.82009  0.56875  1.0000
  C   C204      1.0  0.21679  0.95502  0.70002  1.0000
  H   H332      1.0  0.25690  0.87247  0.57232  1.0000
  H   H333      1.0  0.33577  0.89055  0.57028  1.0000
  S   S82       1.0  0.38579  0.92993  0.58814  1.0000
  N   N23       1.0  0.30087  0.86327  0.58487  1.0000
  H   H334      1.0  0.30111  0.89867  0.55454  1.0000
  H   H335      1.0  0.34803  0.97735  0.59814  1.0000
  H   H336      1.0  0.31075  0.98678  0.63589  1.0000
  C   C205      1.0  0.31766  0.94671  0.65835  1.0000
  H   H337      1.0  0.29332  0.84770  0.54145  1.0000
  C   C206      1.0  0.32296  0.96695  0.63644  1.0000
  C   C207      1.0  0.35386  0.91525  0.63681  1.0000
  C   C208      1.0  0.35951  0.93574  0.61518  1.0000
  C   C209      1.0  0.34390  0.96152  0.61496  1.0000
  H   H338      1.0  0.36591  0.89541  0.63726  1.0000
  C   C210      1.0  0.31198  0.89142  0.57487  1.0000
  H   H339      1.0  0.30998  0.83241  0.61869  1.0000
  C   C211      1.0  0.33283  0.92066  0.65832  1.0000
  H   H340      1.0  0.32890  0.90501  0.67536  1.0000
  S   S83       1.0  0.29327  0.95456  0.68658  1.0000
  Fe  Fe40      1.0  0.29879  0.00087  0.69892  1.0000
  H   H341      1.0  0.09702  0.82311  0.72190  1.0000
  C   C212      1.0  0.26959  0.86570  0.59176  1.0000
  H   H342      1.0  0.26563  0.88178  0.60920  1.0000
  S   S84       1.0  0.26202  0.03209  0.70283  1.0000
  H   H343      1.0  0.34059  0.85308  0.60708  1.0000
  H   H344      1.0  0.32848  0.83939  0.55591  1.0000
  Fe  Fe41      1.0  0.34365  0.04387  0.71887  1.0000
  S   S85       1.0  0.38864  0.85526  0.55185  1.0000
  H   H345      1.0  0.23112  0.97409  0.69733  1.0000
  H   H346      1.0  0.37848  0.97521  0.66791  1.0000
  H   H347      1.0  0.38375  0.99033  0.70328  1.0000
  H   H348      1.0  0.20254  0.90359  0.72252  1.0000
  H   H349      1.0  0.37222  0.95376  0.69988  1.0000
  C   C213      1.0  0.38659  0.97047  0.69021  1.0000
  C   C214      1.0  0.20168  0.99337  0.82263  1.0000
  C   C215      1.0  0.34742  0.81590  0.02806  1.0000
  C   C216      1.0  0.22011  0.96953  0.82414  1.0000
  C   C217      1.0  0.06171  0.85542  0.05022  1.0000
  C   C218      1.0  0.08924  0.83863  0.76534  1.0000
  S   S86       1.0  0.13607  0.94293  0.78955  1.0000
  S   S87       1.0  0.31781  0.01026  0.74264  1.0000
  H   H350      1.0  0.25227  0.92366  0.73304  1.0000
  H   H351      1.0  0.29025  0.92979  0.04344  1.0000
  H   H352      1.0  0.17956  0.99183  0.83050  1.0000
  C   C219      1.0  0.24876  0.97167  0.81409  1.0000
  H   H353      1.0  0.37815  0.94286  0.87386  1.0000
  C   C220      1.0  0.29668  0.84305  0.00749  1.0000
  C   C221      1.0  0.24005  0.02092  0.79917  1.0000
  C   C222      1.0  0.21182  0.01921  0.81058  1.0000
  C   C223      1.0  0.25854  0.99717  0.80109  1.0000
  S   S88       1.0  0.07688  0.00303  0.80622  1.0000
  H   H354      1.0  0.21329  0.99179  0.74541  1.0000
  S   S89       1.0  0.11151  0.86909  0.76048  1.0000
  C   C224      1.0  0.09049  0.03651  0.81719  1.0000
  C   C225      1.0  0.34839  0.83260  0.00272  1.0000
  H   H355      1.0  0.27535  0.82351  0.04435  1.0000
  H   H356      1.0  0.32397  0.85892  0.97278  1.0000
  H   H357      1.0  0.28052  0.99857  0.79290  1.0000
  S   S90       1.0  0.07600  0.92111  0.82158  1.0000
  S   S91       1.0  0.22283  0.91250  0.04261  1.0000
  H   H358      1.0  0.26312  0.95331  0.81547  1.0000
  H   H359      1.0  0.27957  0.87977  0.05627  1.0000
  Fe  Fe42      1.0  0.16985  0.84890  0.05203  1.0000
  C   C226      1.0  0.11768  0.03902  0.83040  1.0000
  H   H360      1.0  0.13098  0.02014  0.83370  1.0000
  Fe  Fe43      1.0  0.11319  0.90095  0.79737  1.0000
  H   H361      1.0  0.24120  0.91780  0.89726  1.0000
  Fe  Fe44      1.0  0.22759  0.86799  0.02513  1.0000
  H   H362      1.0  0.25555  0.96035  0.74385  1.0000
  S   S92       1.0  0.26575  0.86153  0.99476  1.0000
  Fe  Fe45      1.0  0.17624  0.90916  0.02946  1.0000
  S   S93       1.0  0.15445  0.94601  0.00678  1.0000
  S   S94       1.0  0.18205  0.86639  0.00809  1.0000
  Fe  Fe46      1.0  0.10314  0.91391  0.86139  1.0000
  H   H363      1.0  0.07708  0.84837  0.80950  1.0000
  S   S95       1.0  0.08522  0.89410  0.90244  1.0000
  C   C227      1.0  0.32099  0.81271  0.04303  1.0000
  H   H364      1.0  0.32735  0.89266  0.03387  1.0000
  S   S96       1.0  0.12576  0.95657  0.85936  1.0000
  C   C228      1.0  0.13037  0.93308  0.98059  1.0000
  C   C229      1.0  0.12185  0.95079  0.95748  1.0000
  C   C230      1.0  0.10685  0.93912  0.93381  1.0000
  C   C231      1.0  0.10034  0.90983  0.93337  1.0000
  C   C232      1.0  0.10713  0.89261  0.95742  1.0000
  C   C233      1.0  0.12184  0.90432  0.98115  1.0000
  H   H365      1.0  0.12798  0.97320  0.95726  1.0000
  H   H366      1.0  0.10061  0.95273  0.91580  1.0000
  H   H367      1.0  0.10230  0.86994  0.95721  1.0000
  H   H368      1.0  0.12721  0.89090  0.99957  1.0000
  C   C234      1.0  0.08626  0.81901  0.74248  1.0000
  C   C235      1.0  0.18564  0.88197  0.92995  1.0000
  H   H369      1.0  0.19873  0.94858  0.90250  1.0000
  H   H370      1.0  0.19864  0.86465  0.94051  1.0000
  H   H371      1.0  0.17464  0.92132  0.88956  1.0000
  H   H372      1.0  0.18987  0.91640  0.75711  1.0000
  S   S97       1.0  0.13831  0.89025  0.83759  1.0000
  H   H373      1.0  0.16838  0.93741  0.92434  1.0000
  S   S98       1.0  0.20697  0.93632  0.83624  1.0000
  C   C236      1.0  0.29566  0.82622  0.03277  1.0000
  C   C237      1.0  0.32304  0.84597  0.99237  1.0000
  Fe  Fe47      1.0  0.15847  0.93352  0.83173  1.0000
  H   H374      1.0  0.16762  0.88757  0.94506  1.0000
  C   C238      1.0  0.21615  0.91868  0.95049  1.0000
  C   C239      1.0  0.22743  0.89902  0.90319  1.0000
  Fe  Fe48      1.0  0.10122  0.96237  0.81762  1.0000
  C   C240      1.0  0.10102  0.82093  0.05588  1.0000
  H   H375      1.0  0.17560  0.87301  0.90994  1.0000
  N   N24       1.0  0.20372  0.90734  0.92325  1.0000
  H   H376      1.0  0.24173  0.88237  0.91311  1.0000
  H   H377      1.0  0.19876  0.92500  0.96615  1.0000
  H   H378      1.0  0.21866  0.89033  0.88245  1.0000
  H   H379      1.0  0.22999  0.90237  0.96159  1.0000
  H   H380      1.0  0.22974  0.93798  0.94631  1.0000
  C   C241      1.0  0.18558  0.92966  0.90933  1.0000
  H   H381      1.0  0.36866  0.83532  0.99110  1.0000
  H   H382      1.0  0.35370  0.91193  0.05486  1.0000
  C   C242      1.0  0.07496  0.83335  0.79176  1.0000
  H   H383      1.0  0.19463  0.96745  0.76932  1.0000
  C   C243      1.0  0.19896  0.97254  0.74607  1.0000
  C   C244      1.0  0.24084  0.94137  0.74457  1.0000
  H   H384      1.0  0.23825  0.93483  0.76777  1.0000
  C   C245      1.0  0.06590  0.04525  0.89391  1.0000
  H   H385      1.0  0.10725  0.86568  0.04575  1.0000
  H   H386      1.0  0.19749  0.03758  0.80952  1.0000
  C   C246      1.0  0.09158  0.84896  0.05018  1.0000
  N   N25       1.0  0.21245  0.94786  0.73110  1.0000
  S   S99       1.0  0.13829  0.81221  0.05727  1.0000
  C   C247      1.0  0.19324  0.92256  0.73385  1.0000
  H   H387      1.0  0.17778  0.97853  0.73610  1.0000
  H   H388      1.0  0.07007  0.02824  0.91046  1.0000
  H   H389      1.0  0.37549  0.03338  0.77665  1.0000
  H   H390      1.0  0.06292  0.84341  0.93655  1.0000
  C   C248      1.0  0.33586  0.89590  0.05627  1.0000
  Fe  Fe49      1.0  0.28300  0.04415  0.74497  1.0000
  H   H391      1.0  0.05846  0.81761  0.98465  1.0000
  C   C249      1.0  0.05776  0.80861  0.79520  1.0000
  H   H392      1.0  0.56912  0.29735  0.25313  1.0000
  S   S100      1.0  0.46483  0.18201  0.30200  1.0000
  S   S101      1.0  0.46123  0.12077  0.24739  1.0000
  C   C250      1.0  0.50187  0.25984  0.32298  1.0000
  H   H393      1.0  0.39983  0.18208  0.27476  1.0000
  C   C251      1.0  0.52366  0.05533  0.36559  1.0000
  H   H394      1.0  0.57253  0.26993  0.30382  1.0000
  H   H395      1.0  0.56083  0.24431  0.25296  1.0000
  Fe  Fe50      1.0  0.47312  0.13578  0.29210  1.0000
  C   C252      1.0  0.43481  0.09384  0.24635  1.0000
  C   C253      1.0  0.41867  0.09012  0.22093  1.0000
  H   H396      1.0  0.40729  0.13185  0.29034  1.0000
  C   C254      1.0  0.54279  0.24818  0.23730  1.0000
  H   H397      1.0  0.52159  0.25903  0.18375  1.0000
  S   S102      1.0  0.54183  0.21715  0.31106  1.0000
  S   S103      1.0  0.51928  0.13688  0.30708  1.0000
  H   H398      1.0  0.42305  0.10335  0.20198  1.0000
  C   C255      1.0  0.55027  0.27512  0.30936  1.0000
  C   C256      1.0  0.49317  0.28875  0.32468  1.0000
  C   C257      1.0  0.42936  0.07642  0.27062  1.0000
  Fe  Fe51      1.0  0.50945  0.18206  0.32093  1.0000
  H   H399      1.0  0.57493  0.25041  0.18853  1.0000
  C   C258      1.0  0.53044  0.25300  0.31514  1.0000
  C   C259      1.0  0.39612  0.07000  0.22023  1.0000
  H   H400      1.0  0.54043  0.22843  0.22401  1.0000
  C   C260      1.0  0.57574  0.26981  0.20251  1.0000
  S   S104      1.0  0.52483  0.09109  0.37758  1.0000
  H   H401      1.0  0.44209  0.07881  0.29010  1.0000
  H   H402      1.0  0.48647  0.24289  0.32756  1.0000
  H   H403      1.0  0.52764  0.29712  0.18421  1.0000
  H   H404      1.0  0.52259  0.25063  0.25049  1.0000
  H   H405      1.0  0.39307  0.14277  0.23965  1.0000
  N   N26       1.0  0.54833  0.27376  0.21893  1.0000
  Fe  Fe52      1.0  0.45060  0.16564  0.34566  1.0000
  S   S105      1.0  0.49480  0.16934  0.36582  1.0000
  S   S106      1.0  0.40976  0.18579  0.36295  1.0000
  S   S107      1.0  0.45501  0.11910  0.33431  1.0000
  Fe  Fe53      1.0  0.50077  0.12385  0.35041  1.0000
  H   H406      1.0  0.50312  0.28113  0.21000  1.0000
  C   C261      1.0  0.40729  0.05573  0.26966  1.0000
  C   C262      1.0  0.52408  0.27787  0.19831  1.0000
  H   H407      1.0  0.58026  0.28850  0.18800  1.0000
  H   H408      1.0  0.47105  0.29398  0.33068  1.0000
  H   H409      1.0  0.59464  0.26744  0.21739  1.0000
  H   H410      1.0  0.68391  0.05719  0.34492  1.0000
  H   H411      1.0  0.52780  0.06928  0.23533  1.0000
  H   H412      1.0  0.71104  0.07037  0.38952  1.0000
  H   H413      1.0  0.50303  0.07673  0.26454  1.0000
  H   H414      1.0  0.48944  0.06421  0.23039  1.0000
  C   C263      1.0  0.50757  0.06176  0.24623  1.0000
  H   H415      1.0  0.47980  0.05770  0.34966  1.0000
  H   H416      1.0  0.71756  0.05491  0.32502  1.0000
  C   C264      1.0  0.55071  0.29933  0.23764  1.0000
  C   C265      1.0  0.45390  0.20575  0.46316  1.0000
  C   C266      1.0  0.49957  0.21844  0.44058  1.0000
  H   H417      1.0  0.48411  0.26357  0.64959  1.0000
  H   H418      1.0  0.45593  0.18331  0.45520  1.0000
  Fe  Fe54      1.0  0.41408  0.23978  0.54209  1.0000
  H   H419      1.0  0.51133  0.23356  0.42586  1.0000
  H   H420      1.0  0.50221  0.19649  0.43145  1.0000
  H   H421      1.0  0.39446  0.11503  0.54105  1.0000
  N   N27       1.0  0.46856  0.22630  0.44339  1.0000
  N   N28       1.0  0.64301  0.18291  0.72129  1.0000
  H   H422      1.0  0.41000  0.24073  0.62895  1.0000
  H   H423      1.0  0.64541  0.21918  0.69229  1.0000
  H   H424      1.0  0.66653  0.16022  0.62508  1.0000
  S   S108      1.0  0.58506  0.26162  0.66920  1.0000
  C   C267      1.0  0.44145  0.23424  0.67674  1.0000
  H   H425      1.0  0.44200  0.25729  0.68301  1.0000
  H   H426      1.0  0.46311  0.20658  0.48554  1.0000
  C   C268      1.0  0.40671  0.14399  0.44046  1.0000
  H   H427      1.0  0.47574  0.27186  0.44041  1.0000
  C   C269      1.0  0.41381  0.15150  0.41165  1.0000
  H   H428      1.0  0.51063  0.21879  0.46210  1.0000
  H   H429      1.0  0.52162  0.24600  0.55292  1.0000
  C   C270      1.0  0.69473  0.22406  0.64641  1.0000
  H   H430      1.0  0.39858  0.11901  0.57961  1.0000
  C   C271      1.0  0.48223  0.24038  0.64404  1.0000
  C   C272      1.0  0.45471  0.22540  0.41444  1.0000
  C   C273      1.0  0.46789  0.28921  0.57870  1.0000
  C   C274      1.0  0.46606  0.25560  0.45536  1.0000
  H   H431      1.0  0.47748  0.25739  0.47659  1.0000
  H   H432      1.0  0.43494  0.27022  0.63038  1.0000
  H   H433      1.0  0.71370  0.14316  0.64416  1.0000
  C   C275      1.0  0.52690  0.27673  0.58745  1.0000
  H   H434      1.0  0.61314  0.21788  0.71425  1.0000
  S   S109      1.0  0.46188  0.24879  0.53554  1.0000
  H   H435      1.0  0.43132  0.23146  0.41565  1.0000
  H   H436      1.0  0.41655  0.12527  0.45040  1.0000
  H   H437      1.0  0.46442  0.18623  0.65369  1.0000
  S   S110      1.0  0.65307  0.28207  0.67578  1.0000
  H   H438      1.0  0.43028  0.21048  0.46504  1.0000
  C   C276      1.0  0.62968  0.16430  0.69907  1.0000
  H   H439      1.0  0.63812  0.16942  0.67691  1.0000
  H   H440      1.0  0.44522  0.29431  0.57524  1.0000
  N   N29       1.0  0.45191  0.23019  0.64659  1.0000
  C   C277      1.0  0.43326  0.24673  0.62646  1.0000
  H   H441      1.0  0.60570  0.16714  0.69837  1.0000
  S   S111      1.0  0.40587  0.19483  0.55699  1.0000
  H   H442      1.0  0.42904  0.13855  0.39941  1.0000
  C   C278      1.0  0.68175  0.17537  0.63419  1.0000
  C   C279      1.0  0.67452  0.20449  0.63556  1.0000
  C   C280      1.0  0.48138  0.26808  0.56191  1.0000
  H   H443      1.0  0.63435  0.14119  0.70345  1.0000
  H   H444      1.0  0.44295  0.26161  0.45930  1.0000
  C   C281      1.0  0.51099  0.26216  0.56604  1.0000
  H   H445      1.0  0.46548  0.24021  0.39870  1.0000
  H   H446      1.0  0.69007  0.24671  0.64600  1.0000
  H   H447      1.0  0.54963  0.27180  0.59081  1.0000
  S   S112      1.0  0.71944  0.09763  0.68283  1.0000
  Fe  Fe55      1.0  0.62626  0.25856  0.64310  1.0000
  C   C282      1.0  0.70823  0.16561  0.64548  1.0000
  S   S113      1.0  0.63946  0.21547  0.62558  1.0000
  H   H448      1.0  0.45504  0.22213  0.69259  1.0000
  H   H449      1.0  0.45807  0.19574  0.61623  1.0000
  H   H450      1.0  0.43936  0.24275  0.60336  1.0000
  S   S114      1.0  0.61701  0.29722  0.61514  1.0000
  H   H451      1.0  0.42796  0.19111  0.64071  1.0000
  C   C283      1.0  0.45058  0.19943  0.63900  1.0000
  H   H452      1.0  0.49704  0.22838  0.65882  1.0000
  H   H453      1.0  0.49065  0.23783  0.62146  1.0000
  C   C284      1.0  0.63688  0.21331  0.71424  1.0000
  H   H454      1.0  0.68463  0.18366  0.70022  1.0000
  C   C285      1.0  0.67475  0.17812  0.72159  1.0000
  Fe  Fe56      1.0  0.61120  0.28876  0.69935  1.0000
  C   C286      1.0  0.40087  0.17553  0.39868  1.0000
  H   H455      1.0  0.45578  0.20348  0.40504  1.0000
  H   H456      1.0  0.41860  0.22665  0.67931  1.0000
  H   H457      1.0  0.39980  0.08385  0.56362  1.0000
  H   H458      1.0  0.69172  0.29927  0.62110  1.0000
  C   C287      1.0  0.72116  0.21429  0.65788  1.0000
  C   C288      1.0  0.51333  0.29771  0.60442  1.0000
  C   C289      1.0  0.64917  0.06100  0.75641  1.0000
  H   H459      1.0  0.64698  0.22812  0.73024  1.0000
  S   S115      1.0  0.66419  0.09456  0.74724  1.0000
  H   H460      1.0  0.71033  0.09151  0.81844  1.0000
  C   C290      1.0  0.63081  0.17579  0.75023  1.0000
  H   H461      1.0  0.60834  0.07875  0.77086  1.0000
  H   H462      1.0  0.70241  0.06577  0.79089  1.0000
  C   C291      1.0  0.71235  0.28384  0.98192  1.0000
  H   H463      1.0  0.68562  0.19155  0.73826  1.0000
  H   H464      1.0  0.68752  0.26071  0.93487  1.0000
  H   H465      1.0  0.63521  0.15296  0.75617  1.0000
  C   C292      1.0  0.62122  0.05944  0.76856  1.0000
  H   H466      1.0  0.65991  0.26965  0.96097  1.0000
  H   H467      1.0  0.67684  0.22458  0.00662  1.0000
  C   C293      1.0  0.67797  0.25437  0.95623  1.0000
  H   H468      1.0  0.66783  0.07243  0.84630  1.0000
  H   H469      1.0  0.64035  0.18953  0.76747  1.0000
  H   H470      1.0  0.60685  0.17906  0.75077  1.0000
  H   H471      1.0  0.66817  0.23270  0.95382  1.0000
  H   H472      1.0  0.71508  0.21173  0.97110  1.0000
  H   H473      1.0  0.66833  0.26159  0.01333  1.0000
  S   S116      1.0  0.61175  0.28340  0.74789  1.0000
  H   H474      1.0  0.70222  0.24679  0.02562  1.0000
  N   N30       1.0  0.70000  0.25469  0.97955  1.0000
  C   C294      1.0  0.68623  0.24653  0.00750  1.0000
  C   C295      1.0  0.72137  0.05424  0.86138  1.0000
  C   C296      1.0  0.72344  0.23408  0.97263  1.0000
  H   H475      1.0  0.72352  0.29058  0.96151  1.0000
  H   H476      1.0  0.71644  0.07618  0.86959  1.0000
  C   C297      1.0  0.71453  0.06905  0.81145  1.0000
  Fe  Fe57      1.0  0.71041  0.09297  0.73051  1.0000
  H   H477      1.0  0.68015  0.15525  0.72624  1.0000
  H   H478      1.0  0.69521  0.30002  0.98665  1.0000
  S   S117      1.0  0.50130  0.34685  0.31920  1.0000
  S   S118      1.0  0.54211  0.35920  0.18000  1.0000
  Fe  Fe58      1.0  0.52210  0.37662  0.28634  1.0000
  H   H479      1.0  0.64453  0.33744  0.19949  1.0000
  H   H480      1.0  0.41059  0.40034  0.18511  1.0000
  C   C298      1.0  0.56723  0.51821  0.31344  1.0000
  H   H481      1.0  0.61604  0.40096  0.17350  1.0000
  C   C299      1.0  0.60914  0.53663  0.28761  1.0000
  H   H482      1.0  0.69263  0.40478  0.14668  1.0000
  C   C300      1.0  0.52138  0.54760  0.21177  1.0000
  S   S119      1.0  0.46605  0.46174  0.25102  1.0000
  S   S120      1.0  0.54101  0.43040  0.22427  1.0000
  H   H483      1.0  0.61573  0.32487  0.11167  1.0000
  C   C301      1.0  0.43545  0.45203  0.23082  1.0000
  C   C302      1.0  0.41015  0.46856  0.23310  1.0000
  H   H484      1.0  0.61368  0.39539  0.13495  1.0000
  N   N31       1.0  0.64922  0.42210  0.14841  1.0000
  C   C303      1.0  0.41038  0.41926  0.19866  1.0000
  C   C304      1.0  0.43564  0.42746  0.21346  1.0000
  H   H485      1.0  0.40985  0.48748  0.24665  1.0000
  H   H486      1.0  0.66801  0.38542  0.17005  1.0000
  H   H487      1.0  0.45523  0.41488  0.21121  1.0000
  H   H488      1.0  0.63407  0.50522  0.26372  1.0000
  H   H489      1.0  0.65416  0.43130  0.19398  1.0000
  C   C305      1.0  0.54146  0.30396  0.31059  1.0000
  S   S121      1.0  0.52483  0.42411  0.29402  1.0000
  H   H490      1.0  0.64081  0.46070  0.17254  1.0000
  H   H491      1.0  0.63722  0.45593  0.11867  1.0000
  H   H492      1.0  0.68766  0.54771  0.34090  1.0000
  Fe  Fe59      1.0  0.50106  0.42822  0.25187  1.0000
  S   S122      1.0  0.60410  0.45135  0.27045  1.0000
  S   S123      1.0  0.68919  0.30076  0.06322  1.0000
  Fe  Fe60      1.0  0.53797  0.38250  0.22256  1.0000
  S   S124      1.0  0.49527  0.38098  0.24602  1.0000
  H   H493      1.0  0.39861  0.43016  0.33571  1.0000
  H   H494      1.0  0.44244  0.36103  0.29323  1.0000
  H   H495      1.0  0.46273  0.41002  0.32998  1.0000
  H   H496      1.0  0.67460  0.44485  0.11630  1.0000
  H   H497      1.0  0.41803  0.39869  0.26400  1.0000
  H   H498      1.0  0.40840  0.35445  0.31143  1.0000
  C   C306      1.0  0.42846  0.36769  0.31190  1.0000
  C   C307      1.0  0.44916  0.41517  0.31060  1.0000
  C   C308      1.0  0.40413  0.40688  0.33621  1.0000
  C   C309      1.0  0.48201  0.53535  0.24442  1.0000
  S   S125      1.0  0.71951  0.35952  0.08965  1.0000
  H   H499      1.0  0.52167  0.50117  0.26905  1.0000
  N   N32       1.0  0.42177  0.39872  0.31061  1.0000
  H   H500      1.0  0.51996  0.49326  0.23107  1.0000
  H   H501      1.0  0.54871  0.52168  0.32756  1.0000
  H   H502      1.0  0.44061  0.36203  0.33207  1.0000
  H   H503      1.0  0.64666  0.42259  0.10167  1.0000
  C   C310      1.0  0.57732  0.34813  0.17059  1.0000
  C   C311      1.0  0.59947  0.34721  0.19133  1.0000
  H   H504      1.0  0.41603  0.40256  0.35685  1.0000
  Fe  Fe61      1.0  0.67965  0.33295  0.09816  1.0000
  H   H505      1.0  0.55440  0.31905  0.22454  1.0000
  H   H506      1.0  0.51338  0.53226  0.19513  1.0000
  H   H507      1.0  0.59525  0.35365  0.21344  1.0000
  C   C312      1.0  0.63347  0.33051  0.15456  1.0000
  C   C313      1.0  0.61130  0.33121  0.13386  1.0000
  C   C314      1.0  0.62740  0.33802  0.18341  1.0000
  S   S126      1.0  0.65027  0.36000  0.07048  1.0000
  C   C315      1.0  0.58317  0.33969  0.14196  1.0000
  H   H508      1.0  0.53049  0.30285  0.25052  1.0000
  H   H509      1.0  0.55157  0.51064  0.24574  1.0000
  H   H510      1.0  0.56604  0.34012  0.12587  1.0000
  H   H511      1.0  0.66529  0.38227  0.13134  1.0000
  H   H512      1.0  0.60300  0.42916  0.15041  1.0000
  H   H513      1.0  0.40089  0.42856  0.28149  1.0000
  S   S127      1.0  0.56485  0.37454  0.26247  1.0000
  C   C316      1.0  0.57320  0.49051  0.30305  1.0000
  C   C317      1.0  0.40548  0.40516  0.28367  1.0000
  C   C318      1.0  0.65201  0.43709  0.12011  1.0000
  C   C319      1.0  0.65600  0.44209  0.17233  1.0000
  C   C320      1.0  0.58495  0.54141  0.30549  1.0000
  H   H514      1.0  0.55950  0.47282  0.30948  1.0000
  C   C321      1.0  0.61530  0.50881  0.27747  1.0000
  C   C322      1.0  0.59710  0.48574  0.28483  1.0000
  H   H515      1.0  0.67850  0.45061  0.17033  1.0000
  C   C323      1.0  0.61918  0.41146  0.15193  1.0000
  Fe  Fe62      1.0  0.56481  0.42290  0.26605  1.0000
  H   H516      1.0  0.46243  0.41019  0.29105  1.0000
  C   C324      1.0  0.66970  0.39765  0.14922  1.0000
  N   N33       1.0  0.51390  0.53783  0.24151  1.0000
  S   S128      1.0  0.66910  0.32159  0.14461  1.0000
  H   H517      1.0  0.47297  0.51996  0.22834  1.0000
  H   H518      1.0  0.54535  0.54956  0.20894  1.0000
  C   C325      1.0  0.51284  0.31084  0.31802  1.0000
  H   H519      1.0  0.55691  0.32090  0.30613  1.0000
  H   H520      1.0  0.47573  0.52724  0.26641  1.0000
  H   H521      1.0  0.44514  0.43875  0.31020  1.0000
  C   C326      1.0  0.52743  0.50953  0.24703  1.0000
  C   C327      1.0  0.71108  0.31235  0.62217  1.0000
  S   S129      1.0  0.67567  0.35493  0.64367  1.0000
  H   H522      1.0  0.47338  0.32044  0.61276  1.0000
  H   H523      1.0  0.64093  0.37901  0.69757  1.0000
  S   S130      1.0  0.53199  0.31560  0.63231  1.0000
  Fe  Fe63      1.0  0.64115  0.32109  0.64999  1.0000
  C   C328      1.0  0.65274  0.39281  0.71333  1.0000
  H   H524      1.0  0.71983  0.36510  0.57399  1.0000
  C   C329      1.0  0.70929  0.34045  0.63258  1.0000
  S   S131      1.0  0.60123  0.33013  0.67659  1.0000
  Fe  Fe64      1.0  0.57781  0.30247  0.64418  1.0000
  H   H525      1.0  0.70293  0.39280  0.55276  1.0000
  C   C330      1.0  0.48387  0.30404  0.59983  1.0000
  H   H526      1.0  0.64839  0.41554  0.70723  1.0000
  C   C331      1.0  0.71828  0.37435  0.55165  1.0000
  H   H527      1.0  0.67634  0.38866  0.70992  1.0000
  H   H528      1.0  0.70835  0.35767  0.53760  1.0000
  C   C332      1.0  0.65541  0.43078  0.97668  1.0000
  C   C333      1.0  0.72143  0.44216  0.03566  1.0000
  S   S132      1.0  0.53821  0.38467  0.80151  1.0000
  H   H529      1.0  0.71207  0.44086  0.96614  1.0000
  C   C334      1.0  0.50772  0.52126  0.92196  1.0000
  C   C335      1.0  0.70055  0.42738  0.94992  1.0000
  S   S133      1.0  0.63586  0.31410  0.99798  1.0000
  S   S134      1.0  0.54447  0.51657  0.84203  1.0000
  C   C336      1.0  0.66667  0.46557  0.93922  1.0000
  H   H530      1.0  0.43926  0.47925  0.86860  1.0000
  S   S135      1.0  0.53793  0.43716  0.86650  1.0000
  H   H531      1.0  0.42490  0.50887  0.96482  1.0000
  C   C337      1.0  0.59542  0.31908  0.79224  1.0000
  C   C338      1.0  0.52464  0.52834  0.87234  1.0000
  H   H532      1.0  0.53345  0.35451  0.74775  1.0000
  C   C339      1.0  0.46381  0.51748  0.81032  1.0000
  H   H533      1.0  0.63191  0.43651  0.97595  1.0000
  H   H534      1.0  0.65352  0.40130  0.78696  1.0000
  C   C340      1.0  0.52540  0.51291  0.89853  1.0000
  H   H535      1.0  0.50834  0.50921  0.94213  1.0000
  H   H536      1.0  0.53955  0.49449  0.90076  1.0000
  C   C341      1.0  0.47647  0.46896  0.82394  1.0000
  H   H537      1.0  0.66573  0.44413  0.99379  1.0000
  C   C342      1.0  0.56712  0.32231  0.74805  1.0000
  H   H538      1.0  0.42839  0.54268  0.03797  1.0000
  C   C343      1.0  0.41232  0.48753  0.03453  1.0000
  N   N34       1.0  0.45373  0.49136  0.82567  1.0000
  C   C344      1.0  0.65023  0.35633  0.75066  1.0000
  H   H539      1.0  0.46790  0.50513  0.86785  1.0000
  H   H540      1.0  0.63825  0.34148  0.73606  1.0000
  Fe  Fe65      1.0  0.56527  0.47384  0.85101  1.0000
  H   H541      1.0  0.43166  0.51587  0.85858  1.0000
  H   H542      1.0  0.65640  0.39370  0.93224  1.0000
  C   C345      1.0  0.45802  0.49991  0.01170  1.0000
  H   H543      1.0  0.67696  0.46958  0.91763  1.0000
  H   H544      1.0  0.68363  0.40232  0.76205  1.0000
  Fe  Fe66      1.0  0.56277  0.41153  0.83353  1.0000
  H   H545      1.0  0.42050  0.49347  0.05647  1.0000
  S   S136      1.0  0.56986  0.42068  0.94434  1.0000
  H   H546      1.0  0.64386  0.35091  0.77342  1.0000
  C   C346      1.0  0.57956  0.34201  0.80410  1.0000
  C   C347      1.0  0.42678  0.48092  0.81193  1.0000
  H   H547      1.0  0.70426  0.48321  0.02246  1.0000
  H   H548      1.0  0.41645  0.46419  0.03144  1.0000
  N   N35       1.0  0.42628  0.50486  0.01137  1.0000
  C   C348      1.0  0.55075  0.34467  0.76021  1.0000
  C   C349      1.0  0.55727  0.35490  0.78802  1.0000
  H   H549      1.0  0.40923  0.49742  0.81298  1.0000
  Fe  Fe67      1.0  0.66348  0.33026  0.03450  1.0000
  H   H550      1.0  0.63167  0.42228  0.92407  1.0000
  H   H551      1.0  0.67378  0.35149  0.74819  1.0000
  H   H552      1.0  0.59003  0.36739  0.91823  1.0000
  H   H553      1.0  0.61207  0.36527  0.02362  1.0000
  C   C350      1.0  0.71424  0.46671  0.86390  1.0000
  C   C351      1.0  0.59280  0.38918  0.98862  1.0000
  H   H554      1.0  0.43037  0.47568  0.78859  1.0000
  H   H555      1.0  0.65512  0.42860  0.75945  1.0000
  C   C352      1.0  0.60970  0.34341  0.95326  1.0000
  C   C353      1.0  0.61628  0.34290  0.98299  1.0000
  C   C354      1.0  0.60776  0.36580  0.00060  1.0000
  Fe  Fe68      1.0  0.57521  0.42731  0.89619  1.0000
  C   C355      1.0  0.59520  0.36714  0.94111  1.0000
  C   C356      1.0  0.58687  0.39011  0.95881  1.0000
  H   H556      1.0  0.58442  0.34956  0.82573  1.0000
  H   H557      1.0  0.48155  0.46319  0.80100  1.0000
  N   N36       1.0  0.66945  0.43513  0.94801  1.0000
  H   H558      1.0  0.46794  0.51327  0.78686  1.0000
  H   H559      1.0  0.46344  0.47697  0.00772  1.0000
  H   H560      1.0  0.49712  0.47641  0.83392  1.0000
  C   C357      1.0  0.61220  0.39186  0.74688  1.0000
  S   S137      1.0  0.39378  0.53198  0.91218  1.0000
  H   H561      1.0  0.67022  0.53736  0.87099  1.0000
  H   H562      1.0  0.61271  0.30921  0.80467  1.0000
  H   H563      1.0  0.60632  0.41434  0.74113  1.0000
  H   H564      1.0  0.46989  0.44899  0.83558  1.0000
  H   H565      1.0  0.41853  0.46124  0.82297  1.0000
  S   S138      1.0  0.58742  0.44910  0.81554  1.0000
  Fe  Fe69      1.0  0.62030  0.43817  0.84965  1.0000
  S   S139      1.0  0.66845  0.43626  0.84226  1.0000
  S   S140      1.0  0.60051  0.46647  0.88363  1.0000
  H   H566      1.0  0.66516  0.41948  0.90423  1.0000
  H   H567      1.0  0.67730  0.48005  0.95514  1.0000
  S   S141      1.0  0.59780  0.39811  0.86467  1.0000
  C   C358      1.0  0.58960  0.30963  0.76397  1.0000
  H   H568      1.0  0.60486  0.38814  0.76970  1.0000
  H   H569      1.0  0.71175  0.43040  0.92858  1.0000
  C   C359      1.0  0.44784  0.49819  0.85653  1.0000
  H   H570      1.0  0.58612  0.40675  0.00243  1.0000
  H   H571      1.0  0.65694  0.40799  0.98397  1.0000
  C   C360      1.0  0.65973  0.40552  0.76384  1.0000
  C   C361      1.0  0.68254  0.51764  0.86921  1.0000
  C   C362      1.0  0.66933  0.49305  0.85778  1.0000
  C   C363      1.0  0.68515  0.46753  0.85518  1.0000
  H   H572      1.0  0.64344  0.47210  0.93744  1.0000
  S   S142      1.0  0.70176  0.35636  0.02059  1.0000
  N   N37       1.0  0.64374  0.38665  0.74367  1.0000
  H   H573      1.0  0.64704  0.49403  0.85053  1.0000
  C   C364      1.0  0.41453  0.49642  0.98277  1.0000
  H   H574      1.0  0.61601  0.32563  0.93957  1.0000
  H   H575      1.0  0.46919  0.51274  0.99445  1.0000
  H   H576      1.0  0.48453  0.52547  0.81965  1.0000
  C   C365      1.0  0.48874  0.54457  0.91895  1.0000
  C   C366      1.0  0.42019  0.53559  0.01644  1.0000
  C   C367      1.0  0.71154  0.51679  0.87826  1.0000
  H   H577      1.0  0.46769  0.50611  0.03291  1.0000
  C   C368      1.0  0.65511  0.41682  0.92617  1.0000
  H   H578      1.0  0.70345  0.40460  0.95672  1.0000
  H   H579      1.0  0.44752  0.53513  0.81190  1.0000
  H   H580      1.0  0.41840  0.47330  0.97828  1.0000
  H   H581      1.0  0.56221  0.31482  0.72638  1.0000
  H   H582      1.0  0.59932  0.37736  0.73270  1.0000
  H   H583      1.0  0.39647  0.54014  0.01581  1.0000
  H   H584      1.0  0.43068  0.54933  0.99953  1.0000
  Fe  Fe70      1.0  0.69086  0.38377  0.05882  1.0000
  C   C369      1.0  0.72284  0.46897  0.02190  1.0000
  S   S143      1.0  0.68956  0.43154  0.05358  1.0000
  N   N38       1.0  0.69401  0.65279  0.18009  1.0000
  H   H585      1.0  0.70520  0.63866  0.33873  1.0000
  H   H586      1.0  0.67374  0.57982  0.30026  1.0000
  N   N39       1.0  0.56382  0.78031  0.13834  1.0000
  H   H587      1.0  0.63694  0.76494  0.37058  1.0000
  C   C370      1.0  0.70407  0.56059  0.33009  1.0000
  C   C371      1.0  0.57711  0.76163  0.11602  1.0000
  H   H588      1.0  0.61770  0.71842  0.23077  1.0000
  Fe  Fe71      1.0  0.70886  0.69729  0.06931  1.0000
  H   H589      1.0  0.64795  0.65079  0.18807  1.0000
  S   S144      1.0  0.70641  0.62147  0.26742  1.0000
  C   C372      1.0  0.72134  0.64286  0.35620  1.0000
  C   C373      1.0  0.57899  0.77615  0.16635  1.0000
  H   H590      1.0  0.56937  0.78959  0.18387  1.0000
  C   C374      1.0  0.60761  0.79340  0.34781  1.0000
  H   H591      1.0  0.66721  0.65779  0.37265  1.0000
  H   H592      1.0  0.68021  0.60536  0.37159  1.0000
  H   H593      1.0  0.51168  0.56899  0.20696  1.0000
  H   H594      1.0  0.67871  0.69248  0.19814  1.0000
  S   S145      1.0  0.58120  0.65717  0.29389  1.0000
  Fe  Fe72      1.0  0.60517  0.65764  0.25128  1.0000
  S   S146      1.0  0.58562  0.67005  0.20836  1.0000
  C   C375      1.0  0.59232  0.74476  0.31563  1.0000
  S   S147      1.0  0.62196  0.61263  0.25518  1.0000
  S   S148      1.0  0.64541  0.67803  0.26904  1.0000
  S   S149      1.0  0.57504  0.57625  0.31673  1.0000
  H   H595      1.0  0.71724  0.69073  0.19275  1.0000
  S   S150      1.0  0.66357  0.71381  0.07504  1.0000
  H   H596      1.0  0.64994  0.75362  0.20615  1.0000
  C   C376      1.0  0.60646  0.69655  0.19119  1.0000
  C   C377      1.0  0.60946  0.69626  0.16092  1.0000
  C   C378      1.0  0.62072  0.76669  0.35369  1.0000
  H   H597      1.0  0.59812  0.68032  0.14824  1.0000
  Fe  Fe73      1.0  0.60144  0.61343  0.29943  1.0000
  H   H598      1.0  0.55182  0.77300  0.37027  1.0000
  H   H599      1.0  0.52201  0.78655  0.15835  1.0000
  C   C379      1.0  0.57877  0.77129  0.31020  1.0000
  H   H600      1.0  0.67195  0.67694  0.14682  1.0000
  H   H601      1.0  0.70051  0.67130  0.22237  1.0000
  C   C380      1.0  0.69785  0.67793  0.19917  1.0000
  H   H602      1.0  0.62972  0.71581  0.12372  1.0000
  Fe  Fe74      1.0  0.66004  0.63298  0.27699  1.0000
  H   H603      1.0  0.66378  0.61800  0.17514  1.0000
  S   S151      1.0  0.69126  0.77841  0.06653  1.0000
  H   H604      1.0  0.57790  0.75339  0.17376  1.0000
  C   C381      1.0  0.58623  0.79567  0.32632  1.0000
  H   H605      1.0  0.56579  0.76380  0.09476  1.0000
  Fe  Fe75      1.0  0.62298  0.67415  0.31229  1.0000
  H   H606      1.0  0.57589  0.73862  0.12243  1.0000
  C   C382      1.0  0.61310  0.74229  0.33762  1.0000
  S   S152      1.0  0.64103  0.63031  0.32187  1.0000
  H   H607      1.0  0.51475  0.58033  0.25984  1.0000
  C   C383      1.0  0.64281  0.73644  0.16330  1.0000
  C   C384      1.0  0.66767  0.63696  0.18919  1.0000
  C   C385      1.0  0.62080  0.71744  0.20746  1.0000
  H   H608      1.0  0.60048  0.76692  0.11241  1.0000
  H   H609      1.0  0.60239  0.78200  0.16447  1.0000
  H   H610      1.0  0.58632  0.72609  0.30311  1.0000
  H   H611      1.0  0.69266  0.68317  0.38646  1.0000
  S   S153      1.0  0.62909  0.70883  0.34602  1.0000
  C   C386      1.0  0.62772  0.71610  0.14703  1.0000
  C   C387      1.0  0.69615  0.57889  0.30719  1.0000
  Fe  Fe76      1.0  0.68405  0.74719  0.10310  1.0000
  C   C388      1.0  0.53281  0.77282  0.14175  1.0000
  H   H612      1.0  0.52086  0.77575  0.12085  1.0000
  H   H613      1.0  0.56226  0.77286  0.29356  1.0000
  S   S154      1.0  0.66579  0.76136  0.14626  1.0000
  H   H614      1.0  0.53013  0.75004  0.14869  1.0000
  C   C389      1.0  0.63882  0.73750  0.19349  1.0000
  H   H615      1.0  0.66956  0.62913  0.21206  1.0000
  H   H616      1.0  0.68795  0.64408  0.13445  1.0000
  H   H617      1.0  0.39451  0.70656  0.06333  1.0000
  C   C390      1.0  0.68462  0.66079  0.38911  1.0000
  H   H618      1.0  0.54878  0.56173  0.26069  1.0000
  N   N40       1.0  0.70828  0.63958  0.38546  1.0000
  C   C391      1.0  0.69095  0.66246  0.14953  1.0000
  C   C392      1.0  0.71960  0.63375  0.18262  1.0000
  C   C393      1.0  0.69648  0.61024  0.38874  1.0000
  H   H619      1.0  0.71396  0.59378  0.38704  1.0000
  H   H620      1.0  0.71047  0.67445  0.14188  1.0000
  C   C394      1.0  0.71712  0.59588  0.29338  1.0000
  S   S155      1.0  0.71611  0.64968  0.07318  1.0000
  H   H621      1.0  0.49286  0.79493  0.38799  1.0000
  H   H622      1.0  0.71739  0.61454  0.16853  1.0000
  H   H623      1.0  0.47103  0.55637  0.24101  1.0000
  C   C395      1.0  0.52486  0.55883  0.26280  1.0000
  H   H624      1.0  0.62321  0.55426  0.28171  1.0000
  H   H625      1.0  0.72251  0.62602  0.20544  1.0000
  H   H626      1.0  0.52046  0.55181  0.28561  1.0000
  H   H627      1.0  0.50647  0.77728  0.43724  1.0000
  H   H628      1.0  0.42577  0.62710  0.56829  1.0000
  H   H629      1.0  0.41101  0.71526  0.63524  1.0000
  H   H630      1.0  0.67428  0.65900  0.41096  1.0000
  H   H631      1.0  0.41434  0.59315  0.62363  1.0000
  H   H632      1.0  0.54288  0.78243  0.45032  1.0000
  C   C396      1.0  0.41095  0.60824  0.56746  1.0000
  H   H633      1.0  0.42432  0.58861  0.57098  1.0000
  C   C397      1.0  0.52544  0.79205  0.43667  1.0000
  H   H634      1.0  0.40501  0.76315  0.61200  1.0000
  H   H635      1.0  0.40191  0.60718  0.54503  1.0000
  H   H636      1.0  0.68576  0.60712  0.41026  1.0000
  H   H637      1.0  0.56399  0.76049  0.40507  1.0000
  C   C398      1.0  0.40047  0.61214  0.61883  1.0000
  H   H638      1.0  0.41400  0.63179  0.62137  1.0000
  N   N41       1.0  0.53563  0.79731  0.40655  1.0000
  H   H639      1.0  0.72199  0.64169  0.43018  1.0000
  H   H640      1.0  0.52732  0.75377  0.39354  1.0000
  C   C399      1.0  0.54509  0.76993  0.39337  1.0000
  H   H641      1.0  0.59302  0.78909  0.95030  1.0000
  S   S156      1.0  0.63945  0.74938  0.00341  1.0000
  H   H642      1.0  0.54083  0.77546  0.94781  1.0000
  C   C400      1.0  0.44532  0.68892  0.93245  1.0000
  C   C401      1.0  0.54103  0.78170  0.92437  1.0000
  H   H643      1.0  0.46703  0.68016  0.93442  1.0000
  H   H644      1.0  0.40528  0.74036  0.04774  1.0000
  H   H645      1.0  0.68545  0.62322  0.92251  1.0000
  C   C402      1.0  0.60919  0.78515  0.04002  1.0000
  C   C403      1.0  0.41282  0.72980  0.93227  1.0000
  S   S157      1.0  0.46501  0.55338  0.94747  1.0000
  H   H646      1.0  0.41638  0.68255  0.02093  1.0000
  C   C404      1.0  0.44090  0.71855  0.93482  1.0000
  H   H647      1.0  0.50611  0.56454  0.84967  1.0000
  C   C405      1.0  0.55533  0.77343  0.01452  1.0000
  C   C406      1.0  0.39982  0.63714  0.81819  1.0000
  S   S158      1.0  0.47056  0.74106  0.94162  1.0000
  Fe  Fe77      1.0  0.46001  0.77795  0.97099  1.0000
  S   S159      1.0  0.45511  0.77079  0.01902  1.0000
  C   C407      1.0  0.50644  0.55232  0.86974  1.0000
  Fe  Fe78      1.0  0.42180  0.56681  0.92986  1.0000
  H   H648      1.0  0.40936  0.75271  0.93363  1.0000
  C   C408      1.0  0.42162  0.67043  0.92873  1.0000
  C   C409      1.0  0.39351  0.68162  0.92655  1.0000
  Fe  Fe79      1.0  0.67387  0.74352  0.03800  1.0000
  C   C410      1.0  0.69639  0.64060  0.93492  1.0000
  H   H649      1.0  0.53450  0.76813  0.00517  1.0000
  H   H650      1.0  0.54572  0.76193  0.91170  1.0000
  S   S160      1.0  0.71778  0.72390  0.02935  1.0000
  C   C411      1.0  0.58080  0.76049  0.00373  1.0000
  H   H651      1.0  0.39441  0.61483  0.81158  1.0000
  H   H652      1.0  0.57954  0.74549  0.98588  1.0000
  H   H653      1.0  0.41246  0.64707  0.80008  1.0000
  C   C412      1.0  0.60775  0.76606  0.01670  1.0000
  H   H654      1.0  0.51858  0.78867  0.91864  1.0000
  S   S161      1.0  0.41256  0.59732  0.89332  1.0000
  H   H655      1.0  0.69283  0.66112  0.92294  1.0000
  H   H656      1.0  0.42514  0.64751  0.92836  1.0000
  C   C413      1.0  0.40777  0.69981  0.00654  1.0000
  C   C414      1.0  0.59184  0.79427  0.92661  1.0000
  H   H657      1.0  0.47390  0.57845  0.89061  1.0000
  H   H658      1.0  0.39532  0.68253  0.85399  1.0000
  C   C415      1.0  0.48813  0.56012  0.89285  1.0000
  H   H659      1.0  0.40334  0.68995  0.98508  1.0000
  H   H660      1.0  0.62992  0.78995  0.04981  1.0000
  H   H661      1.0  0.42542  0.71581  0.00314  1.0000
  H   H662      1.0  0.41438  0.63552  0.83744  1.0000
  H   H663      1.0  0.56773  0.79293  0.87335  1.0000
  H   H664      1.0  0.72093  0.60790  0.97639  1.0000
  C   C416      1.0  0.55680  0.79230  0.03808  1.0000
  H   H665      1.0  0.68518  0.64244  0.95638  1.0000
  H   H666      1.0  0.72140  0.58888  0.94236  1.0000
  H   H667      1.0  0.59793  0.77446  0.91460  1.0000
  H   H668      1.0  0.39400  0.69449  0.81670  1.0000
  C   C417      1.0  0.58389  0.79856  0.05034  1.0000
  S   S162      1.0  0.58955  0.90964  0.32096  1.0000
  N   N42       1.0  0.71683  0.03128  0.36531  1.0000
  H   H669      1.0  0.53671  0.00756  0.28646  1.0000
  H   H670      1.0  0.55404  0.81487  0.10881  1.0000
  S   S163      1.0  0.56658  0.82778  0.32057  1.0000
  H   H671      1.0  0.46420  0.02381  0.25518  1.0000
  C   C418      1.0  0.54783  0.03747  0.36990  1.0000
  N   N43       1.0  0.51024  0.03182  0.25666  1.0000
  H   H672      1.0  0.56676  0.99580  0.36231  1.0000
  C   C419      1.0  0.48272  0.02296  0.27071  1.0000
  H   H673      1.0  0.47866  0.00674  0.33400  1.0000
  H   H674      1.0  0.58544  0.81376  0.06789  1.0000
  S   S164      1.0  0.52219  0.96285  0.33273  1.0000
  S   S165      1.0  0.54063  0.88999  0.36868  1.0000
  H   H675      1.0  0.51848  0.98995  0.23910  1.0000
  C   C420      1.0  0.52275  0.99792  0.34678  1.0000
  H   H676      1.0  0.47710  0.03731  0.28918  1.0000
  H   H677      1.0  0.48414  0.00064  0.27945  1.0000
  C   C421      1.0  0.54755  0.00895  0.36012  1.0000
  C   C422      1.0  0.49818  0.01544  0.34355  1.0000
  Fe  Fe80      1.0  0.55610  0.93138  0.34894  1.0000
  H   H678      1.0  0.68611  0.99686  0.37076  1.0000
  Fe  Fe81      1.0  0.57713  0.86888  0.34429  1.0000
  C   C423      1.0  0.53420  0.02985  0.27792  1.0000
  Fe  Fe82      1.0  0.61933  0.91626  0.35899  1.0000
  S   S166      1.0  0.66469  0.93284  0.35200  1.0000
  H   H679      1.0  0.69307  0.02490  0.32569  1.0000
  S   S167      1.0  0.60948  0.87390  0.38034  1.0000
  H   H680      1.0  0.49868  0.01370  0.21539  1.0000
  H   H681      1.0  0.51896  0.81425  0.36627  1.0000
  H   H682      1.0  0.61387  0.81208  0.36009  1.0000
  C   C424      1.0  0.71316  0.94371  0.38400  1.0000
  C   C425      1.0  0.68420  0.93458  0.38456  1.0000
  H   H683      1.0  0.55532  0.03626  0.26804  1.0000
  C   C426      1.0  0.51640  0.01271  0.23182  1.0000
  H   H684      1.0  0.72362  0.94815  0.36338  1.0000
  H   H685      1.0  0.53702  0.01873  0.22065  1.0000
  H   H686      1.0  0.40286  0.04242  0.28852  1.0000
  C   C427      1.0  0.70218  0.04260  0.33907  1.0000
  C   C428      1.0  0.56637  0.81066  0.12919  1.0000
  S   S168      1.0  0.58686  0.94110  0.38524  1.0000
  H   H687      1.0  0.56711  0.04599  0.38012  1.0000
  C   C429      1.0  0.49876  0.04423  0.35246  1.0000
  H   H688      1.0  0.53030  0.04411  0.29693  1.0000
  H   H689      1.0  0.56760  0.82294  0.38452  1.0000
  C   C430      1.0  0.69572  0.01497  0.38320  1.0000
  H   H690      1.0  0.58946  0.81665  0.12507  1.0000
  H   H691      1.0  0.55761  0.82541  0.14606  1.0000
  C   C431      1.0  0.51177  0.80972  0.38906  1.0000
  H   H692      1.0  0.67745  0.02880  0.39064  1.0000
  H   H693      1.0  0.55931  0.95886  0.44739  1.0000
  H   H694      1.0  0.60332  0.99833  0.71766  1.0000
  C   C432      1.0  0.71511  0.94069  0.43662  1.0000
  C   C433      1.0  0.43523  0.98379  0.67590  1.0000
  Fe  Fe83      1.0  0.57385  0.89813  0.40306  1.0000
  H   H695      1.0  0.51288  0.89753  0.72338  1.0000
  S   S169      1.0  0.43827  0.80939  0.57407  1.0000
  H   H696      1.0  0.51311  0.87806  0.42051  1.0000
  C   C434      1.0  0.47890  0.85756  0.48283  1.0000
  C   C435      1.0  0.48351  0.86274  0.45314  1.0000
  C   C436      1.0  0.50999  0.87405  0.44334  1.0000
  C   C437      1.0  0.53217  0.87992  0.46311  1.0000
  C   C438      1.0  0.52744  0.87507  0.49288  1.0000
  C   C439      1.0  0.50080  0.86395  0.50276  1.0000
  H   H697      1.0  0.46648  0.85798  0.43772  1.0000
  H   H698      1.0  0.50498  0.00631  0.41162  1.0000
  H   H699      1.0  0.49742  0.85981  0.52572  1.0000
  H   H700      1.0  0.42841  0.98800  0.65306  1.0000
  H   H701      1.0  0.51855  0.81232  0.44744  1.0000
  C   C440      1.0  0.58519  0.93469  0.68665  1.0000
  H   H702      1.0  0.48871  0.94237  0.41271  1.0000
  H   H703      1.0  0.60772  0.97810  0.65510  1.0000
  N   N44       1.0  0.51472  0.97021  0.43930  1.0000
  H   H704      1.0  0.57256  0.98996  0.69500  1.0000
  Fe  Fe84      1.0  0.43524  0.84572  0.54179  1.0000
  S   S170      1.0  0.44593  0.84226  0.49405  1.0000
  H   H705      1.0  0.70615  0.00571  0.40299  1.0000
  H   H706      1.0  0.54447  0.87967  0.50834  1.0000
  H   H707      1.0  0.63509  0.95116  0.66099  1.0000
  H   H708      1.0  0.63842  0.92659  0.70919  1.0000
  C   C441      1.0  0.49751  0.99615  0.43235  1.0000
  H   H709      1.0  0.57200  0.92584  0.70497  1.0000
  C   C442      1.0  0.50415  0.95727  0.46682  1.0000
  H   H710      1.0  0.51722  0.93801  0.47290  1.0000
  S   S171      1.0  0.45202  0.87950  0.57192  1.0000
  H   H711      1.0  0.49844  0.94258  0.64284  1.0000
  C   C443      1.0  0.58884  0.98070  0.71029  1.0000
  Fe  Fe85      1.0  0.45133  0.84413  0.60537  1.0000
  S   S172      1.0  0.48506  0.83845  0.64017  1.0000
  H   H712      1.0  0.49939  0.01260  0.44971  1.0000
  C   C444      1.0  0.54566  0.97807  0.44239  1.0000
  C   C445      1.0  0.49363  0.87100  0.65713  1.0000
  C   C446      1.0  0.49258  0.89679  0.64147  1.0000
  C   C447      1.0  0.49918  0.92275  0.65515  1.0000
  C   C448      1.0  0.50619  0.92309  0.68473  1.0000
  C   C449      1.0  0.50743  0.89739  0.70050  1.0000
  C   C450      1.0  0.50146  0.87130  0.68658  1.0000
  H   H713      1.0  0.48722  0.89668  0.61866  1.0000
  C   C451      1.0  0.62556  0.94460  0.71848  1.0000
  H   H714      1.0  0.50236  0.85136  0.69874  1.0000
  H   H715      1.0  0.51924  0.95825  0.39444  1.0000
  S   S173      1.0  0.51291  0.95601  0.70151  1.0000
  H   H716      1.0  0.52483  0.92968  0.41985  1.0000
  C   C452      1.0  0.62228  0.96840  0.67178  1.0000
  H   H717      1.0  0.43338  0.00439  0.68799  1.0000
  H   H718      1.0  0.56952  0.94340  0.67041  1.0000
  H   H719      1.0  0.63783  0.98533  0.67873  1.0000
  H   H720      1.0  0.45274  0.04115  0.72449  1.0000
  N   N45       1.0  0.41730  0.96114  0.68960  1.0000
  H   H721      1.0  0.54887  0.99375  0.46027  1.0000
  S   S174      1.0  0.40595  0.85308  0.62079  1.0000
  H   H722      1.0  0.50559  0.97263  0.48522  1.0000
  Fe  Fe86      1.0  0.40548  0.88577  0.58502  1.0000
  S   S175      1.0  0.56575  0.89376  0.45127  1.0000
  H   H723      1.0  0.47407  0.99096  0.42973  1.0000
  C   C453      1.0  0.42752  0.95601  0.71966  1.0000
  C   C454      1.0  0.68652  0.93052  0.43712  1.0000
  C   C455      1.0  0.67092  0.92782  0.41112  1.0000
  N   N46       1.0  0.60547  0.95708  0.69678  1.0000
  H   H724      1.0  0.67624  0.92514  0.45767  1.0000
  H   H725      1.0  0.64860  0.92061  0.41169  1.0000
  H   H726      1.0  0.55429  0.83811  0.41771  1.0000
  C   C456      1.0  0.51167  0.94921  0.41555  1.0000
  H   H727      1.0  0.48113  0.95019  0.46506  1.0000
  H   H728      1.0  0.45075  0.94922  0.71993  1.0000
  H   H729      1.0  0.59687  0.91643  0.67636  1.0000
  H   H730      1.0  0.50394  0.83031  0.39840  1.0000
  H   H731      1.0  0.55434  0.98791  0.42201  1.0000
  H   H732      1.0  0.44253  0.92600  0.67284  1.0000
  H   H733      1.0  0.41383  0.93781  0.64941  1.0000
  H   H734      1.0  0.45862  0.97765  0.67548  1.0000
  C   C457      1.0  0.41991  0.93438  0.67261  1.0000
  H   H735      1.0  0.40569  0.91715  0.68152  1.0000
  C   C458      1.0  0.56028  0.81758  0.40697  1.0000
  H   H736      1.0  0.57923  0.80856  0.41888  1.0000
  S   S176      1.0  0.39206  0.04928  0.71744  1.0000
  Fe  Fe87      1.0  0.39276  0.82161  0.58658  1.0000
  Fe  Fe88      1.0  0.52479  0.91960  0.80705  1.0000
  Fe  Fe89      1.0  0.50414  0.98107  0.80574  1.0000
  S   S177      1.0  0.48822  0.94149  0.78352  1.0000
  C   C459      1.0  0.55525  0.83035  0.93549  1.0000
  H   H737      1.0  0.57098  0.84803  0.93137  1.0000
  Fe  Fe90      1.0  0.56762  0.96722  0.79283  1.0000
  H   H738      1.0  0.46452  0.83757  0.91199  1.0000
  C   C460      1.0  0.62729  0.00829  0.77680  1.0000
  S   S178      1.0  0.42279  0.80888  0.96725  1.0000
  C   C461      1.0  0.44604  0.01969  0.79505  1.0000
  H   H739      1.0  0.39561  0.94946  0.83941  1.0000
  S   S179      1.0  0.53450  0.99405  0.76976  1.0000
  Fe  Fe91      1.0  0.42050  0.80488  0.01603  1.0000
  H   H740      1.0  0.60873  0.81077  0.92204  1.0000
  H   H741      1.0  0.39822  0.91464  0.85623  1.0000
  C   C462      1.0  0.39791  0.93811  0.86069  1.0000
  Fe  Fe92      1.0  0.52112  0.95265  0.74944  1.0000
  S   S180      1.0  0.55612  0.92634  0.77011  1.0000
  C   C463      1.0  0.39879  0.03127  0.77432  1.0000
  H   H742      1.0  0.48627  0.83495  0.86245  1.0000
  Fe  Fe93      1.0  0.45656  0.84233  0.97646  1.0000
  S   S181      1.0  0.45151  0.84087  0.02502  1.0000
  S   S182      1.0  0.46163  0.88437  0.95316  1.0000
  N   N47       1.0  0.70568  0.04814  0.83407  1.0000
  H   H743      1.0  0.42085  0.99062  0.86060  1.0000
  H   H744      1.0  0.44393  0.98615  0.89142  1.0000
  C   C464      1.0  0.61012  0.03302  0.77847  1.0000
  H   H745      1.0  0.40509  0.98425  0.89582  1.0000
  H   H746      1.0  0.66822  0.99067  0.76261  1.0000
  H   H747      1.0  0.40553  0.01780  0.81876  1.0000
  C   C465      1.0  0.50480  0.87735  0.86411  1.0000
  C   C466      1.0  0.48943  0.85391  0.87558  1.0000
  C   C467      1.0  0.47716  0.85536  0.90358  1.0000
  C   C468      1.0  0.48011  0.88038  0.92001  1.0000
  C   C469      1.0  0.49641  0.90330  0.90901  1.0000
  C   C470      1.0  0.50888  0.90169  0.88122  1.0000
  H   H748      1.0  0.55547  0.82569  0.95931  1.0000
  H   H749      1.0  0.70611  0.00238  0.84052  1.0000
  H   H750      1.0  0.49924  0.92245  0.92191  1.0000
  S   S183      1.0  0.49392  0.81183  0.97571  1.0000
  H   H751      1.0  0.47060  0.94839  0.86746  1.0000
  C   C471      1.0  0.42348  0.97837  0.88125  1.0000
  H   H752      1.0  0.52151  0.91941  0.87307  1.0000
  C   C472      1.0  0.41582  0.02248  0.79813  1.0000
  C   C473      1.0  0.45014  0.94034  0.85757  1.0000
  S   S184      1.0  0.52505  0.80703  0.05361  1.0000
  S   S185      1.0  0.51801  0.87621  0.82820  1.0000
  H   H753      1.0  0.44652  0.93832  0.91620  1.0000
  N   N48       1.0  0.42459  0.94714  0.87588  1.0000
  H   H754      1.0  0.42823  0.90809  0.90081  1.0000
  C   C474      1.0  0.56214  0.81182  0.88700  1.0000
  S   S186      1.0  0.53888  0.95864  0.83161  1.0000
  H   H755      1.0  0.57781  0.82926  0.88165  1.0000
  Fe  Fe94      1.0  0.48646  0.80719  0.02346  1.0000
  C   C475      1.0  0.71287  0.01882  0.82420  1.0000
  S   S187      1.0  0.46754  0.00741  0.82411  1.0000
  H   H756      1.0  0.40776  0.93594  0.91827  1.0000
  H   H757      1.0  0.44841  0.95051  0.83569  1.0000
  C   C476      1.0  0.42682  0.93173  0.90397  1.0000
  C   C477      1.0  0.65489  0.00977  0.76403  1.0000
  S   S188      1.0  0.61576  0.97555  0.79178  1.0000
  H   H758      1.0  0.45266  0.91680  0.85427  1.0000
  C   C478      1.0  0.66557  0.03593  0.75338  1.0000
  H   H759      1.0  0.42582  0.97581  0.73305  1.0000
  C   C479      1.0  0.44228  0.03561  0.74489  1.0000
  H   H760      1.0  0.70173  0.01371  0.80342  1.0000
  H   H761      1.0  0.58879  0.03202  0.78841  1.0000
  H   H762      1.0  0.61359  0.93617  0.73783  1.0000
  H   H763      1.0  0.57671  0.97298  0.72969  1.0000
  N   N49       1.0  0.56256  0.80453  0.91836  1.0000
  H   H764      1.0  0.41465  0.93892  0.73066  1.0000
  H   H765      1.0  0.53327  0.83871  0.92989  1.0000
  H   H766      1.0  0.68675  0.03672  0.74337  1.0000
  H   H767      1.0  0.54028  0.81947  0.88007  1.0000
  H   H768      1.0  0.66157  0.04582  0.81899  1.0000
  C   C480      1.0  0.41214  0.03801  0.74774  1.0000
  C   C481      1.0  0.45911  0.02613  0.76833  1.0000
  H   H769      1.0  0.48234  0.02468  0.76589  1.0000
  H   H770      1.0  0.66653  0.03502  0.85614  1.0000
  H   H771      1.0  0.71545  0.03878  0.87895  1.0000
  H   H772      1.0  0.64106  0.96094  0.72666  1.0000
  C   C482      1.0  0.67403  0.05046  0.83915  1.0000
  C   C483      1.0  0.83865  0.06235  0.10967  1.0000
  H   H773      1.0  0.95210  0.09078  0.31105  1.0000
  C   C484      1.0  0.84643  0.17972  0.07814  1.0000
  Fe  Fe95      1.0  0.91074  0.06717  0.21838  1.0000
  H   H774      1.0  0.87168  0.13931  0.11166  1.0000
  H   H775      1.0  0.89810  0.07320  0.06656  1.0000
  H   H776      1.0  0.84206  0.13466  0.13659  1.0000
  H   H777      1.0  0.80641  0.13996  0.06466  1.0000
  H   H778      1.0  0.88413  0.06822  0.11842  1.0000
  C   C485      1.0  0.90239  0.06473  0.29629  1.0000
  H   H779      1.0  0.74484  0.06792  0.36978  1.0000
  C   C486      1.0  0.81745  0.06132  0.08786  1.0000
  H   H780      1.0  0.99555  0.26393  0.28270  1.0000
  S   S189      1.0  0.92978  0.10918  0.23273  1.0000
  S   S190      1.0  0.86278  0.06108  0.22523  1.0000
  H   H781      1.0  0.02459  0.27273  0.25776  1.0000
  H   H782      1.0  0.00329  0.26894  0.33602  1.0000
  C   C487      1.0  0.02705  0.27035  0.33178  1.0000
  H   H783      1.0  0.86549  0.16950  0.06733  1.0000
  N   N50       1.0  0.83182  0.15957  0.09837  1.0000
  H   H784      1.0  0.79492  0.05786  0.09372  1.0000
  H   H785      1.0  0.01015  0.15207  0.28568  1.0000
  H   H786      1.0  0.74191  0.27029  0.07247  1.0000
  C   C488      1.0  0.96358  0.10782  0.25031  1.0000
  C   C489      1.0  0.97841  0.08187  0.25419  1.0000
  C   C490      1.0  0.00451  0.08119  0.26996  1.0000
  C   C491      1.0  0.01619  0.10655  0.28128  1.0000
  C   C492      1.0  0.00151  0.13249  0.27696  1.0000
  C   C493      1.0  0.97521  0.13310  0.26166  1.0000
  H   H787      1.0  0.88660  0.06570  0.35222  1.0000
  C   C494      1.0  0.82193  0.13417  0.08214  1.0000
  H   H788      1.0  0.96383  0.15323  0.25868  1.0000
  H   H789      1.0  0.79492  0.15923  0.12720  1.0000
  H   H790      1.0  0.79049  0.18087  0.09509  1.0000
  S   S191      1.0  0.04997  0.19036  0.30902  1.0000
  C   C495      1.0  0.85237  0.15026  0.12123  1.0000
  H   H791      1.0  0.02764  0.24215  0.28098  1.0000
  C   C496      1.0  0.87558  0.06980  0.07247  1.0000
  C   C497      1.0  0.86769  0.06687  0.10189  1.0000
  H   H792      1.0  0.88652  0.08203  0.30140  1.0000
  H   H793      1.0  0.92369  0.10171  0.33533  1.0000
  H   H794      1.0  0.85420  0.19920  0.08960  1.0000
  S   S192      1.0  0.04860  0.10514  0.30143  1.0000
  C   C498      1.0  0.93808  0.08341  0.32944  1.0000
  C   C499      1.0  0.80649  0.17389  0.11187  1.0000
  H   H795      1.0  0.81070  0.11861  0.09674  1.0000
  H   H796      1.0  0.86029  0.16876  0.13420  1.0000
  H   H797      1.0  0.81308  0.19331  0.12417  1.0000
  H   H798      1.0  0.81283  0.06684  0.33060  1.0000
  N   N51       1.0  0.03335  0.28254  0.30266  1.0000
  C   C500      1.0  0.01957  0.26465  0.28009  1.0000
  H   H799      1.0  0.95267  0.07897  0.34820  1.0000
  H   H800      1.0  0.03608  0.24828  0.33413  1.0000
  H   H801      1.0  0.01592  0.06109  0.27302  1.0000
  N   N52       1.0  0.92104  0.05777  0.32143  1.0000
  H   H802      1.0  0.91554  0.07214  0.27744  1.0000
  S   S193      1.0  0.82824  0.05756  0.14627  1.0000
  H   H803      1.0  0.74259  0.21727  0.07005  1.0000
  H   H804      1.0  0.03676  0.28351  0.34941  1.0000
  H   H805      1.0  0.84048  0.12301  0.07153  1.0000
  H   H806      1.0  0.96993  0.06238  0.24496  1.0000
  S   S194      1.0  0.91014  0.05530  0.17127  1.0000
  C   C501      1.0  0.72851  0.05537  0.38247  1.0000
  H   H807      1.0  0.83141  0.18700  0.06060  1.0000
  H   H808      1.0  0.76534  0.18651  0.57332  1.0000
  S   S195      1.0  0.75951  0.17265  0.67467  1.0000
  S   S196      1.0  0.78923  0.09792  0.70016  1.0000
  H   H809      1.0  0.85210  0.06149  0.52225  1.0000
  H   H810      1.0  0.77877  0.09810  0.58049  1.0000
  C   C502      1.0  0.79068  0.23190  0.62514  1.0000
  H   H811      1.0  0.80991  0.24610  0.62779  1.0000
  N   N53       1.0  0.79216  0.21560  0.59764  1.0000
  H   H812      1.0  0.74563  0.21103  0.59623  1.0000
  H   H813      1.0  0.88830  0.07061  0.53314  1.0000
  S   S197      1.0  0.78626  0.06479  0.52861  1.0000
  H   H814      1.0  0.76971  0.08434  0.63204  1.0000
  H   H815      1.0  0.76462  0.18107  0.61186  1.0000
  H   H816      1.0  0.81384  0.24963  0.57444  1.0000
  H   H817      1.0  0.98946  0.28649  0.53853  1.0000
  H   H818      1.0  0.77505  0.25047  0.57215  1.0000
  C   C503      1.0  0.85540  0.05827  0.58028  1.0000
  H   H819      1.0  0.73623  0.22944  0.66722  1.0000
  C   C504      1.0  0.77038  0.06804  0.61537  1.0000
  C   C505      1.0  0.77543  0.07580  0.58618  1.0000
  H   H820      1.0  0.73875  0.27970  0.60416  1.0000
  C   C506      1.0  0.81807  0.19685  0.59806  1.0000
  H   H821      1.0  0.81981  0.18403  0.57775  1.0000
  H   H822      1.0  0.81720  0.18153  0.61677  1.0000
  C   C507      1.0  0.79418  0.23581  0.57282  1.0000
  C   C508      1.0  0.76578  0.19782  0.59458  1.0000
  H   H823      1.0  0.79531  0.22436  0.55167  1.0000
  H   H824      1.0  0.77118  0.24598  0.62593  1.0000
  Fe  Fe96      1.0  0.75290  0.12978  0.69631  1.0000
  H   H825      1.0  0.78962  0.21738  0.64441  1.0000
  Fe  Fe97      1.0  0.75484  0.06544  0.69033  1.0000
  H   H826      1.0  0.83835  0.20966  0.60021  1.0000
  C   C509      1.0  0.72753  0.18493  0.65821  1.0000
  C   C510      1.0  0.77655  0.05478  0.56444  1.0000
  H   H827      1.0  0.87064  0.07613  0.58498  1.0000
  H   H828      1.0  0.83508  0.06811  0.57175  1.0000
  H   H829      1.0  0.05416  0.25807  0.43497  1.0000
  H   H830      1.0  0.97224  0.29538  0.63805  1.0000
  C   C511      1.0  0.87279  0.05248  0.53101  1.0000
  C   C512      1.0  0.75676  0.22967  0.05599  1.0000
  Fe  Fe98      1.0  0.77447  0.09335  0.74663  1.0000
  H   H831      1.0  0.82722  0.06891  0.83832  1.0000
  C   C513      1.0  0.89342  0.14890  0.85444  1.0000
  C   C514      1.0  0.85440  0.06879  0.05071  1.0000
  C   C515      1.0  0.01592  0.29414  0.80765  1.0000
  S   S198      1.0  0.76182  0.11142  0.91054  1.0000
  C   C516      1.0  0.79453  0.09551  0.81826  1.0000
  Fe  Fe99      1.0  0.04182  0.17029  0.90526  1.0000
  C   C517      1.0  0.76095  0.11861  0.85157  1.0000
  H   H832      1.0  0.05244  0.10069  0.93993  1.0000
  C   C518      1.0  0.79308  0.26190  0.01963  1.0000
  C   C519      1.0  0.79377  0.23179  0.01844  1.0000
  C   C520      1.0  0.77520  0.21574  0.03632  1.0000
  H   H833      1.0  0.80879  0.06395  0.04171  1.0000
  H   H834      1.0  0.84715  0.15637  0.89086  1.0000
  H   H835      1.0  0.75994  0.12373  0.80492  1.0000
  C   C521      1.0  0.77077  0.11360  0.82310  1.0000
  S   S199      1.0  0.80716  0.08873  0.78289  1.0000
  C   C522      1.0  0.77522  0.10600  0.87529  1.0000
  S   S200      1.0  0.80125  0.16998  0.95196  1.0000
  S   S201      1.0  0.79167  0.11122  0.99096  1.0000
  Fe  Fe100     1.0  0.80084  0.15770  0.99909  1.0000
  Fe  Fe101     1.0  0.79589  0.12293  0.94367  1.0000
  S   S202      1.0  0.04339  0.16261  0.85711  1.0000
  H   H836      1.0  0.80993  0.07797  0.88876  1.0000
  H   H837      1.0  0.87000  0.15108  0.80080  1.0000
  H   H838      1.0  0.80693  0.27441  0.00534  1.0000
  H   H839      1.0  0.80817  0.22108  0.00330  1.0000
  H   H840      1.0  0.74534  0.05296  0.85819  1.0000
  Fe  Fe102     1.0  0.05154  0.21028  0.85436  1.0000
  H   H841      1.0  0.89961  0.15802  0.87587  1.0000
  S   S203      1.0  0.77343  0.17836  0.03374  1.0000
  H   H842      1.0  0.90914  0.15722  0.83800  1.0000
  N   N54       1.0  0.86317  0.15650  0.84686  1.0000
  S   S204      1.0  0.01063  0.14576  0.93384  1.0000
  H   H843      1.0  0.03361  0.08125  0.86347  1.0000
  C   C523      1.0  0.75608  0.25967  0.05713  1.0000
  H   H844      1.0  0.87491  0.19708  0.82771  1.0000
  Fe  Fe103     1.0  0.84894  0.15997  0.95369  1.0000
  S   S205      1.0  0.84376  0.11366  0.94166  1.0000
  S   S206      1.0  0.88017  0.18861  0.92931  1.0000
  S   S207      1.0  0.04638  0.21820  0.90229  1.0000
  Fe  Fe104     1.0  0.84008  0.10646  0.99004  1.0000
  S   S208      1.0  0.84913  0.15222  0.00194  1.0000
  C   C524      1.0  0.97447  0.15794  0.93249  1.0000
  C   C525      1.0  0.95301  0.14343  0.94848  1.0000
  C   C526      1.0  0.92401  0.15281  0.94771  1.0000
  C   C527      1.0  0.91645  0.17690  0.93112  1.0000
  C   C528      1.0  0.93787  0.19134  0.91500  1.0000
  C   C529      1.0  0.96684  0.18181  0.91558  1.0000
  H   H845      1.0  0.95881  0.12496  0.96161  1.0000
  H   H846      1.0  0.90758  0.14149  0.96013  1.0000
  H   H847      1.0  0.93209  0.20992  0.90205  1.0000
  H   H848      1.0  0.98325  0.19302  0.90307  1.0000
  S   S209      1.0  0.74091  0.12811  0.74364  1.0000
  H   H849      1.0  0.85728  0.11958  0.81951  1.0000
  H   H850      1.0  0.83767  0.19452  0.83960  1.0000
  S   S210      1.0  0.02723  0.23799  0.82208  1.0000
  H   H851      1.0  0.00710  0.07595  0.92649  1.0000
  H   H852      1.0  0.73436  0.23948  0.95168  1.0000
  H   H853      1.0  0.99909  0.28560  0.79380  1.0000
  C   C530      1.0  0.80882  0.08294  0.84200  1.0000
  H   H854      1.0  0.72850  0.28510  0.99979  1.0000
  C   C531      1.0  0.02047  0.05828  0.91700  1.0000
  C   C532      1.0  0.77381  0.27585  0.03859  1.0000
  C   C533      1.0  0.03338  0.27528  0.82389  1.0000
  H   H855      1.0  0.89639  0.12524  0.85603  1.0000
  H   H856      1.0  0.84650  0.12226  0.87342  1.0000
  C   C534      1.0  0.84334  0.14562  0.86970  1.0000
  C   C535      1.0  0.85553  0.14342  0.81864  1.0000
  H   H857      1.0  0.74041  0.23406  0.98977  1.0000
  H   H858      1.0  0.83274  0.14851  0.81231  1.0000
  S   S211      1.0  0.86481  0.07204  0.01407  1.0000
  H   H859      1.0  0.02840  0.10797  0.89085  1.0000
  H   H860      1.0  0.82016  0.14932  0.86395  1.0000
  H   H861      1.0  0.86621  0.19844  0.86585  1.0000
  C   C536      1.0  0.86036  0.18805  0.84483  1.0000
  C   C537      1.0  0.79912  0.08810  0.87050  1.0000
  H   H862      1.0  0.74240  0.13243  0.85527  1.0000
  N   N55       1.0  0.04866  0.06917  0.90613  1.0000
  C   C538      1.0  0.04345  0.09090  0.88322  1.0000
  H   H863      1.0  0.73806  0.06704  0.80615  1.0000
  S   S212      1.0  0.74314  0.05777  0.73728  1.0000
  H   H864      1.0  0.05251  0.05931  0.80242  1.0000
  C   C539      1.0  0.05538  0.28640  0.84140  1.0000
  H   H865      1.0  0.04225  0.28986  0.93886  1.0000
  C   C540      1.0  0.82526  0.06479  0.05845  1.0000
  C   C541      1.0  0.82432  0.53293  0.08536  1.0000
  H   H866      1.0  0.81832  0.51149  0.09434  1.0000
  C   C542      1.0  0.02174  0.31208  0.30088  1.0000
  H   H867      1.0  0.84643  0.53824  0.09343  1.0000
  H   H868      1.0  0.02616  0.32185  0.27914  1.0000
  S   S213      1.0  0.74119  0.53915  0.37074  1.0000
  H   H869      1.0  0.03177  0.32614  0.31759  1.0000
  H   H870      1.0  0.80892  0.54895  0.09465  1.0000
  H   H871      1.0  0.99781  0.31244  0.30446  1.0000
  S   S214      1.0  0.88997  0.54374  0.39036  1.0000
  C   C543      1.0  0.00641  0.35988  0.63415  1.0000
  H   H872      1.0  0.01554  0.37563  0.64981  1.0000
  H   H873      1.0  0.94591  0.42026  0.72404  1.0000
  H   H874      1.0  0.91996  0.45391  0.42455  1.0000
  H   H875      1.0  0.89631  0.41894  0.70337  1.0000
  H   H876      1.0  0.74503  0.42486  0.56069  1.0000
  H   H877      1.0  0.98972  0.37123  0.62098  1.0000
  C   C544      1.0  0.76131  0.34616  0.62416  1.0000
  C   C545      1.0  0.73446  0.35735  0.63350  1.0000
  H   H878      1.0  0.78068  0.35914  0.62551  1.0000
  H   H879      1.0  0.96255  0.32564  0.61598  1.0000
  C   C546      1.0  0.76306  0.31808  0.61361  1.0000
  H   H880      1.0  0.00681  0.38712  0.56785  1.0000
  C   C547      1.0  0.02154  0.31981  0.54375  1.0000
  H   H881      1.0  0.95343  0.35643  0.65826  1.0000
  C   C548      1.0  0.88814  0.44898  0.47322  1.0000
  H   H882      1.0  0.78101  0.41272  0.55208  1.0000
  C   C549      1.0  0.90254  0.47024  0.42737  1.0000
  C   C550      1.0  0.96331  0.41770  0.65206  1.0000
  H   H883      1.0  0.73325  0.37905  0.64169  1.0000
  H   H884      1.0  0.90946  0.49009  0.41565  1.0000
  H   H885      1.0  0.99716  0.30869  0.61088  1.0000
  H   H886      1.0  0.91931  0.49201  0.49580  1.0000
  C   C551      1.0  0.96728  0.41885  0.68225  1.0000
  S   S215      1.0  0.85450  0.33047  0.54681  1.0000
  C   C552      1.0  0.01694  0.31972  0.66556  1.0000
  H   H887      1.0  0.86791  0.50226  0.48413  1.0000
  C   C553      1.0  0.93524  0.41563  0.64040  1.0000
  C   C554      1.0  0.96968  0.32569  0.55359  1.0000
  N   N56       1.0  0.74711  0.38327  0.54057  1.0000
  H   H888      1.0  0.76176  0.39742  0.58252  1.0000
  C   C555      1.0  0.97095  0.34441  0.66976  1.0000
  Fe  Fe105     1.0  0.89674  0.33823  0.56970  1.0000
  H   H889      1.0  0.98194  0.41844  0.63770  1.0000
  S   S216      1.0  0.87572  0.33712  0.61399  1.0000
  H   H890      1.0  0.88273  0.46224  0.41617  1.0000
  C   C556      1.0  0.99315  0.30863  0.54443  1.0000
  S   S217      1.0  0.87574  0.41433  0.64493  1.0000
  H   H891      1.0  0.73497  0.37893  0.49564  1.0000
  H   H892      1.0  0.78865  0.36399  0.53152  1.0000
  H   H893      1.0  0.87846  0.51768  0.44974  1.0000
  H   H894      1.0  0.88275  0.45260  0.49658  1.0000
  H   H895      1.0  0.86861  0.43933  0.46294  1.0000
  H   H896      1.0  0.72991  0.41433  0.51036  1.0000
  C   C557      1.0  0.91501  0.41843  0.68903  1.0000
  S   S218      1.0  0.82658  0.38156  0.58693  1.0000
  Fe  Fe106     1.0  0.80575  0.54656  0.45676  1.0000
  Fe  Fe107     1.0  0.87079  0.38462  0.60705  1.0000
  N   N57       1.0  0.99380  0.33477  0.64930  1.0000
  H   H897      1.0  0.76997  0.34906  0.56217  1.0000
  Fe  Fe108     1.0  0.83310  0.33418  0.59051  1.0000
  H   H898      1.0  0.85266  0.48901  0.45100  1.0000
  C   C558      1.0  0.00300  0.36529  0.56090  1.0000
  H   H899      1.0  0.95678  0.36753  0.56853  1.0000
  C   C559      1.0  0.97462  0.35425  0.56125  1.0000
  C   C560      1.0  0.82217  0.47831  0.52863  1.0000
  H   H900      1.0  0.97995  0.35899  0.68661  1.0000
  H   H901      1.0  0.83894  0.43932  0.54782  1.0000
  C   C561      1.0  0.94308  0.41937  0.70072  1.0000
  H   H902      1.0  0.96061  0.32601  0.68125  1.0000
  Fe  Fe109     1.0  0.85093  0.37828  0.54489  1.0000
  H   H903      1.0  0.82770  0.49146  0.54715  1.0000
  S   S219      1.0  0.81140  0.52196  0.41531  1.0000
  S   S220      1.0  0.83281  0.39610  0.50318  1.0000
  N   N58       1.0  0.89671  0.47596  0.45847  1.0000
  S   S221      1.0  0.00249  0.41766  0.69675  1.0000
  C   C562      1.0  0.02659  0.34802  0.55261  1.0000
  H   H904      1.0  0.80389  0.43159  0.46160  1.0000
  C   C563      1.0  0.76678  0.35817  0.54002  1.0000
  C   C564      1.0  0.82234  0.43214  0.50465  1.0000
  C   C565      1.0  0.80887  0.44456  0.48041  1.0000
  C   C566      1.0  0.80977  0.49098  0.50388  1.0000
  C   C567      1.0  0.82852  0.44885  0.52902  1.0000
  C   C568      1.0  0.80249  0.47395  0.48007  1.0000
  C   C569      1.0  0.92313  0.48751  0.47229  1.0000
  H   H905      1.0  0.75817  0.34075  0.52605  1.0000
  C   C570      1.0  0.91106  0.41608  0.65893  1.0000
  C   C571      1.0  0.87295  0.49717  0.46099  1.0000
  C   C572      1.0  0.75924  0.40554  0.55982  1.0000
  H   H906      1.0  0.93005  0.50795  0.46169  1.0000
  H   H907      1.0  0.90573  0.43260  0.47240  1.0000
  H   H908      1.0  0.94155  0.47208  0.47078  1.0000
  S   S222      1.0  0.80580  0.52831  0.50214  1.0000
  H   H909      1.0  0.79223  0.48349  0.46124  1.0000
  S   S223      1.0  0.89488  0.38620  0.56436  1.0000
  H   H910      1.0  0.93225  0.41443  0.61710  1.0000
  C   C573      1.0  0.74422  0.39505  0.51078  1.0000
  C   C574      1.0  0.98094  0.31519  0.62767  1.0000
  H   H911      1.0  0.76575  0.40162  0.50180  1.0000
  H   H912      1.0  0.02426  0.35355  0.61902  1.0000
  H   H913      1.0  0.03963  0.30626  0.53759  1.0000
  S   S224      1.0  0.93511  0.30995  0.55814  1.0000
  H   H914      1.0  0.00826  0.30074  0.67752  1.0000
  H   H915      1.0  0.02716  0.33419  0.68183  1.0000
  H   H916      1.0  0.03444  0.31212  0.65066  1.0000
  S   S225      1.0  0.79613  0.30366  0.60063  1.0000
  C   C575      1.0  0.73783  0.30126  0.61263  1.0000
  S   S226      1.0  0.77052  0.31334  0.03741  1.0000
  Fe  Fe110     1.0  0.80341  0.50747  0.95996  1.0000
  H   H917      1.0  0.93703  0.37339  0.81674  1.0000
  H   H918      1.0  0.77749  0.54210  0.05148  1.0000
  S   S227      1.0  0.80162  0.50323  0.91138  1.0000
  C   C576      1.0  0.77244  0.45903  0.00666  1.0000
  C   C577      1.0  0.77097  0.43232  0.02059  1.0000
  H   H919      1.0  0.78961  0.41812  0.02034  1.0000
  C   C578      1.0  0.74820  0.47722  0.00706  1.0000
  H   H920      1.0  0.97316  0.33104  0.85163  1.0000
  H   H921      1.0  0.74899  0.49776  0.99637  1.0000
  C   C579      1.0  0.89289  0.54033  0.80066  1.0000
  H   H922      1.0  0.95270  0.40768  0.85592  1.0000
  H   H923      1.0  0.92547  0.50635  0.76700  1.0000
  H   H924      1.0  0.84407  0.51127  0.01757  1.0000
  S   S228      1.0  0.04236  0.43307  0.77030  1.0000
  S   S229      1.0  0.80528  0.46962  0.99033  1.0000
  S   S230      1.0  0.84101  0.53789  0.95959  1.0000
  H   H925      1.0  0.00648  0.33831  0.79677  1.0000
  C   C580      1.0  0.02009  0.32400  0.80930  1.0000
  S   S231      1.0  0.76991  0.54216  0.96279  1.0000
  C   C581      1.0  0.92668  0.34537  0.88436  1.0000
  S   S232      1.0  0.03719  0.51242  0.80019  1.0000
  Fe  Fe111     1.0  0.83650  0.53692  0.91114  1.0000
  C   C582      1.0  0.94090  0.39367  0.87164  1.0000
  C   C583      1.0  0.74540  0.42373  0.03475  1.0000
  H   H926      1.0  0.90363  0.35211  0.88740  1.0000
  C   C584      1.0  0.84387  0.51138  0.04179  1.0000
  N   N59       1.0  0.94137  0.36337  0.86222  1.0000
  H   H927      1.0  0.72661  0.44706  0.86180  1.0000
  H   H928      1.0  0.79237  0.52570  0.01941  1.0000
  H   H929      1.0  0.93758  0.34691  0.90587  1.0000
  Fe  Fe112     1.0  0.77079  0.54070  0.91412  1.0000
  H   H930      1.0  0.92546  0.33799  0.82661  1.0000
  H   H931      1.0  0.74978  0.49044  0.88215  1.0000
  H   H932      1.0  0.94917  0.52223  0.81111  1.0000
  H   H933      1.0  0.95134  0.39648  0.89322  1.0000
  H   H934      1.0  0.90337  0.36876  0.83551  1.0000
  N   N60       1.0  0.82337  0.53308  0.05322  1.0000
  S   S233      1.0  0.72745  0.54782  0.89289  1.0000
  H   H935      1.0  0.94504  0.53431  0.74858  1.0000
  Fe  Fe113     1.0  0.01713  0.46915  0.79062  1.0000
  S   S234      1.0  0.97769  0.46380  0.76273  1.0000
  H   H936      1.0  0.83768  0.48927  0.04876  1.0000
  Fe  Fe114     1.0  0.00147  0.42568  0.74488  1.0000
  Fe  Fe115     1.0  0.96261  0.43309  0.79720  1.0000
  C   C585      1.0  0.92671  0.47840  0.84520  1.0000
  H   H937      1.0  0.94928  0.47569  0.83941  1.0000
  S   S235      1.0  0.91605  0.43094  0.81203  1.0000
  H   H938      1.0  0.00355  0.51869  0.74694  1.0000
  H   H939      1.0  0.91828  0.40216  0.87311  1.0000
  S   S236      1.0  0.98276  0.39415  0.77683  1.0000
  Fe  Fe116     1.0  0.02159  0.40453  0.80413  1.0000
  H   H940      1.0  0.74448  0.40297  0.04532  1.0000
  C   C586      1.0  0.97182  0.35383  0.85870  1.0000
  H   H941      1.0  0.98335  0.36698  0.84196  1.0000
  H   H942      1.0  0.93420  0.51734  0.86914  1.0000
  H   H943      1.0  0.86650  0.51547  0.04905  1.0000
  C   C587      1.0  0.87673  0.46262  0.84304  1.0000
  C   C588      1.0  0.92611  0.36064  0.83411  1.0000
  H   H944      1.0  0.84543  0.48955  0.86491  1.0000
  C   C589      1.0  0.86815  0.48622  0.85992  1.0000
  C   C590      1.0  0.90594  0.45903  0.83520  1.0000
  S   S237      1.0  0.00001  0.44139  0.82702  1.0000
  H   H945      1.0  0.86058  0.44764  0.83534  1.0000
  C   C591      1.0  0.88883  0.50621  0.86895  1.0000
  C   C592      1.0  0.91815  0.50198  0.86201  1.0000
  C   C593      1.0  0.02442  0.54263  0.78089  1.0000
  S   S238      1.0  0.87842  0.53826  0.88584  1.0000
  C   C594      1.0  0.04170  0.33514  0.82733  1.0000
  H   H946      1.0  0.78674  0.50450  0.05138  1.0000
  H   H947      1.0  0.92667  0.32235  0.87796  1.0000
  C   C595      1.0  0.79364  0.52612  0.04355  1.0000
  S   S239      1.0  0.04611  0.37245  0.83222  1.0000
  C   C596      1.0  0.00813  0.53976  0.75544  1.0000
  Fe  Fe117     1.0  0.72681  0.32945  0.05231  1.0000
  H   H948      1.0  0.98429  0.35590  0.87926  1.0000
  C   C597      1.0  0.94491  0.54513  0.80579  1.0000
  H   H949      1.0  0.89305  0.51732  0.80722  1.0000
  H   H950      1.0  0.87362  0.54357  0.78647  1.0000
  H   H951      1.0  0.04254  0.34328  0.93673  1.0000
  C   C598      1.0  0.72735  0.49125  0.87561  1.0000
  C   C599      1.0  0.92445  0.52934  0.76024  1.0000
  H   H952      1.0  0.90638  0.53149  0.74435  1.0000
  N   N61       1.0  0.92016  0.54834  0.78559  1.0000
  C   C600      1.0  0.03683  0.73042  0.21308  1.0000
  H   H953      1.0  0.87800  0.61639  0.38781  1.0000
  H   H954      1.0  0.84886  0.78031  0.16853  1.0000
  S   S240      1.0  0.89751  0.73850  0.09430  1.0000
  H   H955      1.0  0.92730  0.63042  0.37034  1.0000
  C   C601      1.0  0.93321  0.56556  0.35636  1.0000
  H   H956      1.0  0.94785  0.55392  0.37052  1.0000
  C   C602      1.0  0.74622  0.59387  0.30193  1.0000
  H   H957      1.0  0.76253  0.60688  0.29119  1.0000
  C   C603      1.0  0.86377  0.75022  0.08061  1.0000
  H   H958      1.0  0.96295  0.75897  0.34858  1.0000
  H   H959      1.0  0.86229  0.78208  0.13189  1.0000
  C   C604      1.0  0.75406  0.57591  0.32529  1.0000
  C   C605      1.0  0.80873  0.76962  0.06232  1.0000
  N   N62       1.0  0.98291  0.79903  0.36044  1.0000
  H   H960      1.0  0.98454  0.78294  0.25242  1.0000
  H   H961      1.0  0.93421  0.66942  0.16331  1.0000
  C   C606      1.0  0.90320  0.56353  0.36057  1.0000
  S   S241      1.0  0.94135  0.77495  0.15132  1.0000
  C   C607      1.0  0.86086  0.77721  0.06752  1.0000
  C   C608      1.0  0.03325  0.72870  0.24330  1.0000
  N   N63       1.0  0.95554  0.68143  0.20304  1.0000
  C   C609      1.0  0.94785  0.65448  0.21836  1.0000
  S   S242      1.0  0.01375  0.66155  0.27490  1.0000
  H   H962      1.0  0.96365  0.64936  0.23592  1.0000
  H   H963      1.0  0.97117  0.70222  0.24166  1.0000
  H   H964      1.0  0.00167  0.67532  0.20749  1.0000
  H   H965      1.0  0.96031  0.72617  0.21296  1.0000
  C   C610      1.0  0.95504  0.70546  0.22391  1.0000
  S   S243      1.0  0.93991  0.62261  0.29006  1.0000
  C   C611      1.0  0.98497  0.67877  0.19033  1.0000
  H   H966      1.0  0.99118  0.69849  0.17803  1.0000
  H   H967      1.0  0.98639  0.66046  0.17494  1.0000
  H   H968      1.0  0.94759  0.63586  0.20330  1.0000
  S   S244      1.0  0.01682  0.61734  0.33097  1.0000
  H   H969      1.0  0.79282  0.72893  0.07794  1.0000
  C   C612      1.0  0.83922  0.73269  0.08391  1.0000
  H   H970      1.0  0.92607  0.65584  0.22891  1.0000
  Fe  Fe118     1.0  0.01415  0.69712  0.30760  1.0000
  C   C613      1.0  0.92577  0.59851  0.31597  1.0000
  C   C614      1.0  0.94444  0.58304  0.33415  1.0000
  S   S245      1.0  0.72882  0.72821  0.10062  1.0000
  Fe  Fe119     1.0  0.98805  0.77586  0.13791  1.0000
  C   C615      1.0  0.88441  0.57821  0.34179  1.0000
  C   C616      1.0  0.89568  0.59568  0.31947  1.0000
  H   H971      1.0  0.88109  0.60733  0.30526  1.0000
  H   H972      1.0  0.72997  0.66488  0.35267  1.0000
  H   H973      1.0  0.96643  0.79961  0.31664  1.0000
  H   H974      1.0  0.97594  0.76039  0.38526  1.0000
  C   C617      1.0  0.98063  0.76743  0.36256  1.0000
  H   H975      1.0  0.96757  0.58420  0.33093  1.0000
  Fe  Fe120     1.0  0.01698  0.65631  0.35894  1.0000
  Fe  Fe121     1.0  0.98243  0.64035  0.30550  1.0000
  H   H976      1.0  0.77644  0.57468  0.33212  1.0000
  S   S246      1.0  0.97994  0.67751  0.33596  1.0000
  H   H977      1.0  0.91837  0.66767  0.37407  1.0000
  H   H978      1.0  0.91191  0.68929  0.18831  1.0000
  H   H979      1.0  0.73965  0.62757  0.35305  1.0000
  C   C618      1.0  0.73286  0.55960  0.33969  1.0000
  S   S247      1.0  0.02352  0.75021  0.15901  1.0000
  Fe  Fe122     1.0  0.93172  0.77179  0.10368  1.0000
  S   S248      1.0  0.00721  0.74314  0.29469  1.0000
  S   S249      1.0  0.81309  0.58520  0.38191  1.0000
  H   H980      1.0  0.93334  0.70781  0.23438  1.0000
  C   C619      1.0  0.93437  0.68707  0.17955  1.0000
  C   C620      1.0  0.99930  0.76842  0.24150  1.0000
  C   C621      1.0  0.01415  0.74738  0.25746  1.0000
  C   C622      1.0  0.00256  0.76988  0.21114  1.0000
  C   C623      1.0  0.02099  0.75054  0.19695  1.0000
  C   C624      1.0  0.81171  0.74240  0.07493  1.0000
  H   H981      1.0  0.84138  0.71169  0.09381  1.0000
  H   H982      1.0  0.00110  0.75669  0.35555  1.0000
  H   H983      1.0  0.04529  0.71289  0.25566  1.0000
  S   S250      1.0  0.97880  0.76832  0.09081  1.0000
  H   H984      1.0  0.93962  0.70725  0.16749  1.0000
  H   H985      1.0  0.73988  0.64506  0.17605  1.0000
  H   H986      1.0  0.99047  0.78565  0.19873  1.0000
  H   H987      1.0  0.03499  0.78920  0.06612  1.0000
  H   H988      1.0  0.86121  0.57606  0.34433  1.0000
  C   C625      1.0  0.85800  0.79503  0.15174  1.0000
  H   H989      1.0  0.05130  0.71562  0.20214  1.0000
  H   H990      1.0  0.86876  0.65377  0.39059  1.0000
  C   C626      1.0  0.92681  0.64858  0.38597  1.0000
  Fe  Fe123     1.0  0.73452  0.75639  0.06128  1.0000
  S   S251      1.0  0.05142  0.67954  0.33360  1.0000
  H   H991      1.0  0.03931  0.70605  0.39119  1.0000
  Fe  Fe124     1.0  0.04818  0.64204  0.30326  1.0000
  H   H992      1.0  0.79919  0.79441  0.15233  1.0000
  H   H993      1.0  0.87975  0.79062  0.06438  1.0000
  H   H994      1.0  0.81261  0.79440  0.11579  1.0000
  H   H995      1.0  0.02915  0.79875  0.36706  1.0000
  H   H996      1.0  0.00519  0.79884  0.31926  1.0000
  H   H997      1.0  0.94971  0.65311  0.39226  1.0000
  H   H998      1.0  0.91760  0.69531  0.64425  1.0000
  C   C627      1.0  0.00022  0.76499  0.58599  1.0000
  S   S252      1.0  0.77077  0.57549  0.43953  1.0000
  H   H999      1.0  0.94365  0.62044  0.43411  1.0000
  C   C628      1.0  0.00428  0.75239  0.64545  1.0000
  H   H1000     1.0  0.00582  0.74766  0.66843  1.0000
  C   C629      1.0  0.82672  0.66488  0.45828  1.0000
  Fe  Fe125     1.0  0.04451  0.69971  0.68454  1.0000
  S   S253      1.0  0.84174  0.57730  0.44677  1.0000
  Fe  Fe126     1.0  0.80724  0.60438  0.42614  1.0000
  H   H1001     1.0  0.82826  0.62442  0.48105  1.0000
  Fe  Fe127     1.0  0.84453  0.55533  0.40382  1.0000
  C   C630      1.0  0.02028  0.74457  0.59589  1.0000
  H   H1002     1.0  0.02968  0.75511  0.40915  1.0000
  S   S254      1.0  0.98804  0.77675  0.45024  1.0000
  H   H1003     1.0  0.89603  0.66135  0.45194  1.0000
  C   C631      1.0  0.86662  0.68369  0.50012  1.0000
  C   C632      1.0  0.85651  0.65540  0.50077  1.0000
  C   C633      1.0  0.90835  0.66643  0.43171  1.0000
  C   C634      1.0  0.83589  0.69347  0.45835  1.0000
  C   C635      1.0  0.83640  0.64609  0.48002  1.0000
  H   H1004     1.0  0.74910  0.62882  0.40537  1.0000
  H   H1005     1.0  0.99920  0.77017  0.56308  1.0000
  C   C636      1.0  0.92097  0.61638  0.42683  1.0000
  H   H1006     1.0  0.03424  0.73365  0.58049  1.0000
  H   H1007     1.0  0.93064  0.67267  0.43833  1.0000
  H   H1008     1.0  0.86444  0.64056  0.51710  1.0000
  S   S255      1.0  0.01499  0.65146  0.40735  1.0000
  Fe  Fe128     1.0  0.93936  0.78714  0.54814  1.0000
  S   S256      1.0  0.89438  0.69401  0.52393  1.0000
  C   C637      1.0  0.73083  0.64434  0.40775  1.0000
  C   C638      1.0  0.02201  0.73787  0.62556  1.0000
  S   S257      1.0  0.80492  0.65241  0.42977  1.0000
  C   C639      1.0  0.85568  0.70291  0.47937  1.0000
  C   C640      1.0  0.91872  0.67948  0.62619  1.0000
  H   H1009     1.0  0.98013  0.67190  0.45492  1.0000
  H   H1010     1.0  0.96400  0.66680  0.56904  1.0000
  H   H1011     1.0  0.96209  0.71829  0.58101  1.0000
  H   H1012     1.0  0.94159  0.73045  0.61178  1.0000
  N   N64       1.0  0.94444  0.68454  0.60753  1.0000
  C   C641      1.0  0.97113  0.68204  0.62519  1.0000
  H   H1013     1.0  0.92319  0.71610  0.58059  1.0000
  H   H1014     1.0  0.99099  0.68526  0.61165  1.0000
  C   C642      1.0  0.94269  0.71362  0.59469  1.0000
  H   H1015     1.0  0.97171  0.69840  0.64277  1.0000
  C   C643      1.0  0.94520  0.66310  0.58393  1.0000
  S   S258      1.0  0.89275  0.77491  0.54246  1.0000
  N   N65       1.0  0.90873  0.64170  0.41170  1.0000
  H   H1016     1.0  0.92518  0.66419  0.57039  1.0000
  H   H1017     1.0  0.97302  0.66057  0.63575  1.0000
  C   C644      1.0  0.98403  0.77274  0.63549  1.0000
  H   H1018     1.0  0.94699  0.64088  0.59272  1.0000
  C   C645      1.0  0.99066  0.69009  0.44471  1.0000
  H   H1019     1.0  0.89823  0.68139  0.61346  1.0000
  S   S259      1.0  0.90830  0.76356  0.47349  1.0000
  C   C646      1.0  0.98396  0.71803  0.45379  1.0000
  C   C647      1.0  0.01003  0.68582  0.42164  1.0000
  C   C648      1.0  0.02403  0.70930  0.40878  1.0000
  S   S260      1.0  0.95649  0.74869  0.52464  1.0000
  H   H1020     1.0  0.86258  0.72497  0.47933  1.0000
  Fe  Fe129     1.0  0.95364  0.77651  0.48486  1.0000
  H   H1021     1.0  0.96782  0.72126  0.47054  1.0000
  C   C649      1.0  0.99778  0.74158  0.44079  1.0000
  H   H1022     1.0  0.82810  0.70821  0.44186  1.0000
  C   C650      1.0  0.01848  0.73708  0.41888  1.0000
  Fe  Fe130     1.0  0.90986  0.73889  0.51555  1.0000
  S   S261      1.0  0.00628  0.70373  0.71471  1.0000
  H   H1023     1.0  0.91925  0.65766  0.63616  1.0000
  C   C651      1.0  0.98152  0.77852  0.60565  1.0000
  H   H1024     1.0  0.92146  0.59730  0.41232  1.0000
  H   H1025     1.0  0.98488  0.56198  0.72135  1.0000
  S   S262      1.0  0.04484  0.70974  0.63670  1.0000
  H   H1026     1.0  0.90777  0.61050  0.44632  1.0000
  H   H1027     1.0  0.96980  0.78338  0.65084  1.0000
  Fe  Fe131     1.0  0.77945  0.55363  0.39691  1.0000
  H   H1028     1.0  0.86451  0.63059  0.42138  1.0000
  C   C652      1.0  0.87874  0.63534  0.40238  1.0000
  H   H1029     1.0  0.89788  0.68556  0.42160  1.0000
  H   H1030     1.0  0.74037  0.66622  0.40604  1.0000
  S   S263      1.0  0.05539  0.65466  0.69784  1.0000
  S   S264      1.0  0.95337  0.80062  0.59285  1.0000
  H   H1031     1.0  0.91543  0.59335  0.79441  1.0000
  S   S265      1.0  0.80552  0.57413  0.90969  1.0000
  S   S266      1.0  0.98909  0.62208  0.73396  1.0000
  H   H1032     1.0  0.04377  0.57253  0.81072  1.0000
  H   H1033     1.0  0.76343  0.68086  0.04691  1.0000
  C   C653      1.0  0.03113  0.57016  0.79106  1.0000
  Fe  Fe132     1.0  0.03933  0.72051  0.74653  1.0000
  C   C654      1.0  0.76675  0.60217  0.01976  1.0000
  C   C655      1.0  0.91838  0.57853  0.77568  1.0000
  H   H1034     1.0  0.76753  0.58035  0.01212  1.0000
  C   C656      1.0  0.74537  0.61045  0.03992  1.0000
  C   C657      1.0  0.78686  0.62231  0.00944  1.0000
  H   H1035     1.0  0.76519  0.65404  0.95801  1.0000
  C   C658      1.0  0.78582  0.65054  0.01960  1.0000
  C   C659      1.0  0.76418  0.65893  0.03932  1.0000
  H   H1036     1.0  0.73241  0.61418  0.89683  1.0000
  H   H1037     1.0  0.80150  0.66614  0.01186  1.0000
  Fe  Fe133     1.0  0.80727  0.57234  0.95828  1.0000
  C   C660      1.0  0.83158  0.56182  0.04216  1.0000
  H   H1038     1.0  0.73191  0.65958  0.97761  1.0000
  H   H1039     1.0  0.02575  0.61581  0.78468  1.0000
  H   H1040     1.0  0.72960  0.59499  0.04769  1.0000
  C   C661      1.0  0.05481  0.78895  0.77235  1.0000
  C   C662      1.0  0.00397  0.59178  0.75138  1.0000
  S   S267      1.0  0.03392  0.75756  0.77781  1.0000
  H   H1041     1.0  0.89988  0.58192  0.76053  1.0000
  N   N66       1.0  0.72768  0.63449  0.93859  1.0000
  C   C663      1.0  0.74384  0.63896  0.04937  1.0000
  C   C664      1.0  0.02103  0.59468  0.77630  1.0000
  H   H1042     1.0  0.75463  0.60206  0.95750  1.0000
  S   S268      1.0  0.77437  0.78381  0.05355  1.0000
  S   S269      1.0  0.81307  0.61317  0.98329  1.0000
  H   H1043     1.0  0.96527  0.55390  0.79626  1.0000
  H   H1044     1.0  0.94096  0.55664  0.82662  1.0000
  C   C665      1.0  0.74142  0.65783  0.95533  1.0000
  C   C666      1.0  0.83343  0.78682  0.05830  1.0000
  C   C667      1.0  0.99771  0.56429  0.74089  1.0000
  C   C668      1.0  0.73124  0.60710  0.95445  1.0000
  C   C669      1.0  0.74177  0.63217  0.90971  1.0000
  H   H1045     1.0  0.02991  0.79710  0.96804  1.0000
  H   H1046     1.0  0.93856  0.58523  0.76399  1.0000
  H   H1047     1.0  0.73870  0.67900  0.94437  1.0000
  S   S270      1.0  0.04874  0.67681  0.76542  1.0000
  H   H1048     1.0  0.73919  0.65225  0.89679  1.0000
  H   H1049     1.0  0.81682  0.57884  0.05059  1.0000
  H   H1050     1.0  0.88944  0.55314  0.82082  1.0000
  Fe  Fe134     1.0  0.01962  0.65983  0.73052  1.0000
  H   H1051     1.0  0.76548  0.62784  0.91182  1.0000
  H   H1052     1.0  0.83048  0.56287  0.01799  1.0000
  H   H1053     1.0  0.85413  0.56762  0.04841  1.0000
  C   C670      1.0  0.82103  0.04507  0.33115  1.0000
  H   H1054     1.0  0.92874  0.01461  0.30687  1.0000
  H   H1055     1.0  0.84988  0.96697  0.33276  1.0000
  H   H1056     1.0  0.83431  0.04548  0.28597  1.0000
  H   H1057     1.0  0.82423  0.82284  0.19013  1.0000
  C   C671      1.0  0.85098  0.83777  0.12272  1.0000
  C   C672      1.0  0.83324  0.03305  0.30589  1.0000
  C   C673      1.0  0.90794  0.00163  0.10146  1.0000
  S   S271      1.0  0.80335  0.04455  0.38807  1.0000
  H   H1058     1.0  0.93665  0.80501  0.36268  1.0000
  C   C674      1.0  0.82972  0.00085  0.35752  1.0000
  H   H1059     1.0  0.83949  0.97587  0.09246  1.0000
  Fe  Fe135     1.0  0.91758  0.01032  0.18713  1.0000
  S   S272      1.0  0.94806  0.98154  0.16242  1.0000
  S   S273      1.0  0.87034  0.99974  0.19129  1.0000
  C   C675      1.0  0.81930  0.02901  0.35702  1.0000
  Fe  Fe136     1.0  0.94206  0.82232  0.14315  1.0000
  H   H1060     1.0  0.01168  0.83250  0.37458  1.0000
  S   S274      1.0  0.91705  0.85007  0.17419  1.0000
  S   S275      1.0  0.92297  0.02300  0.23374  1.0000
  C   C676      1.0  0.89098  0.96953  0.06421  1.0000
  S   S276      1.0  0.98994  0.82368  0.13458  1.0000
  C   C677      1.0  0.88879  0.95523  0.11478  1.0000
  C   C678      1.0  0.84180  0.98879  0.33226  1.0000
  C   C679      1.0  0.83365  0.83619  0.17232  1.0000
  H   H1061     1.0  0.79458  0.82555  0.12951  1.0000
  Fe  Fe137     1.0  0.87483  0.01587  0.23713  1.0000
  C   C680      1.0  0.94088  0.94487  0.16737  1.0000
  C   C681      1.0  0.95487  0.92476  0.14958  1.0000
  C   C682      1.0  0.94765  0.89558  0.15159  1.0000
  C   C683      1.0  0.92670  0.88641  0.17168  1.0000
  C   C684      1.0  0.91296  0.90646  0.18970  1.0000
  C   C685      1.0  0.92004  0.93566  0.18756  1.0000
  H   H1062     1.0  0.97098  0.93183  0.13391  1.0000
  H   H1063     1.0  0.95825  0.88025  0.13750  1.0000
  H   H1064     1.0  0.89686  0.89944  0.20540  1.0000
  H   H1065     1.0  0.90947  0.95099  0.20167  1.0000
  H   H1066     1.0  0.85259  0.00102  0.11883  1.0000
  H   H1067     1.0  0.87939  0.80275  0.15972  1.0000
  H   H1068     1.0  0.90734  0.01990  0.08584  1.0000
  C   C686      1.0  0.84378  0.00489  0.30645  1.0000
  Fe  Fe138     1.0  0.97779  0.81640  0.08801  1.0000
  H   H1069     1.0  0.91060  0.94502  0.11311  1.0000
  H   H1070     1.0  0.83651  0.85617  0.11734  1.0000
  H   H1071     1.0  0.90431  0.01045  0.12365  1.0000
  C   C687      1.0  0.90263  0.04877  0.34628  1.0000
  N   N67       1.0  0.88607  0.97961  0.09429  1.0000
  H   H1072     1.0  0.93038  0.99263  0.10114  1.0000
  C   C688      1.0  0.80989  0.80797  0.13543  1.0000
  H   H1073     1.0  0.87228  0.93840  0.11058  1.0000
  H   H1074     1.0  0.81870  0.85459  0.16844  1.0000
  S   S277      1.0  0.92945  0.81945  0.09620  1.0000
  H   H1075     1.0  0.88610  0.96237  0.13775  1.0000
  S   S278      1.0  0.86025  0.98922  0.27574  1.0000
  H   H1076     1.0  0.98587  0.83143  0.32698  1.0000
  C   C689      1.0  0.00910  0.80881  0.37605  1.0000
  C   C690      1.0  0.94098  0.03414  0.31351  1.0000
  H   H1077     1.0  0.76830  0.86980  0.38993  1.0000
  H   H1078     1.0  0.85482  0.82566  0.10229  1.0000
  H   H1079     1.0  0.82847  0.98829  0.37729  1.0000
  N   N68       1.0  0.83811  0.81923  0.14555  1.0000
  H   H1080     1.0  0.87230  0.84662  0.12969  1.0000
  Fe  Fe139     1.0  0.86309  0.04582  0.17883  1.0000
  C   C691      1.0  0.85663  0.99209  0.09670  1.0000
  H   H1081     1.0  0.85455  0.84513  0.18041  1.0000
  H   H1082     1.0  0.89003  0.02910  0.34102  1.0000
  C   C692      1.0  0.74093  0.01219  0.35643  1.0000
  H   H1083     1.0  0.95523  0.04031  0.29487  1.0000
  H   H1084     1.0  0.95536  0.02814  0.33198  1.0000
  H   H1085     1.0  0.85351  0.00983  0.08072  1.0000
  H   H1086     1.0  0.91310  0.96013  0.06165  1.0000
  H   H1087     1.0  0.91588  0.04391  0.36590  1.0000
  H   H1088     1.0  0.75749  0.02396  0.34330  1.0000
  H   H1089     1.0  0.73303  0.99403  0.34299  1.0000
  H   H1090     1.0  0.95765  0.83604  0.37244  1.0000
  C   C693      1.0  0.95683  0.81221  0.37371  1.0000
  C   C694      1.0  0.98514  0.80769  0.32950  1.0000
  H   H1091     1.0  0.75240  0.00306  0.37568  1.0000
  H   H1092     1.0  0.89000  0.04564  0.28898  1.0000
  H   H1093     1.0  0.04831  0.80946  0.15191  1.0000
  C   C695      1.0  0.05064  0.80599  0.06191  1.0000
  Fe  Fe140     1.0  0.80252  0.01948  0.43034  1.0000
  Fe  Fe141     1.0  0.77053  0.97537  0.46655  1.0000
  H   H1094     1.0  0.88332  0.84564  0.54648  1.0000
  H   H1095     1.0  0.76398  0.99591  0.60693  1.0000
  H   H1096     1.0  0.78028  0.90056  0.46329  1.0000
  S   S279      1.0  0.76213  0.02200  0.45790  1.0000
  S   S280      1.0  0.80852  0.97190  0.43608  1.0000
  C   C696      1.0  0.89581  0.02655  0.57034  1.0000
  H   H1097     1.0  0.84244  0.00255  0.57587  1.0000
  H   H1098     1.0  0.88159  0.03744  0.51434  1.0000
  S   S281      1.0  0.79719  0.98301  0.50639  1.0000
  C   C697      1.0  0.77197  0.02602  0.57200  1.0000
  Fe  Fe142     1.0  0.79221  0.02961  0.49539  1.0000
  H   H1099     1.0  0.92671  0.87517  0.53728  1.0000
  H   H1100     1.0  0.89686  0.91864  0.57627  1.0000
  H   H1101     1.0  0.89280  0.01540  0.59163  1.0000
  S   S282      1.0  0.83205  0.03125  0.46711  1.0000
  C   C698      1.0  0.84759  0.01367  0.55500  1.0000
  H   H1102     1.0  0.86649  0.84512  0.58176  1.0000
  H   H1103     1.0  0.75065  0.95484  0.40952  1.0000
  H   H1104     1.0  0.85646  0.99752  0.53951  1.0000
  C   C699      1.0  0.93097  0.87456  0.56109  1.0000
  N   N69       1.0  0.86793  0.03776  0.55919  1.0000
  S   S283      1.0  0.76158  0.02866  0.65946  1.0000
  C   C700      1.0  0.72844  0.94735  0.41005  1.0000
  H   H1105     1.0  0.84968  0.04760  0.60129  1.0000
  C   C701      1.0  0.76728  0.01822  0.60118  1.0000
  C   C702      1.0  0.76657  0.03916  0.62295  1.0000
  H   H1106     1.0  0.77437  0.85040  0.48071  1.0000
  H   H1107     1.0  0.77203  0.00973  0.55544  1.0000
  H   H1108     1.0  0.82671  0.02143  0.54589  1.0000
  H   H1109     1.0  0.80825  0.88981  0.43825  1.0000
  S   S284      1.0  0.94057  0.81622  0.50916  1.0000
  H   H1110     1.0  0.77675  0.90886  0.42544  1.0000
  S   S285      1.0  0.87683  0.96300  0.48766  1.0000
  C   C703      1.0  0.88774  0.84661  0.57024  1.0000
  H   H1111     1.0  0.94512  0.85561  0.56544  1.0000
  H   H1112     1.0  0.90041  0.82712  0.57612  1.0000
  C   C704      1.0  0.86315  0.86612  0.49028  1.0000
  C   C705      1.0  0.84379  0.91455  0.49228  1.0000
  C   C706      1.0  0.87172  0.92575  0.48870  1.0000
  C   C707      1.0  0.89548  0.90709  0.48614  1.0000
  C   C708      1.0  0.89113  0.87725  0.48657  1.0000
  C   C709      1.0  0.73744  0.86893  0.43977  1.0000
  C   C710      1.0  0.77925  0.84329  0.45810  1.0000
  H   H1113     1.0  0.91710  0.91571  0.48306  1.0000
  H   H1114     1.0  0.90933  0.86296  0.48340  1.0000
  C   C711      1.0  0.83960  0.88483  0.49349  1.0000
  H   H1115     1.0  0.82537  0.92875  0.49447  1.0000
  C   C712      1.0  0.78432  0.89211  0.44100  1.0000
  H   H1116     1.0  0.94370  0.89404  0.56661  1.0000
  N   N70       1.0  0.76911  0.86458  0.43643  1.0000
  H   H1117     1.0  0.86471  0.89794  0.58389  1.0000
  H   H1118     1.0  0.81807  0.87636  0.49716  1.0000
  S   S286      1.0  0.85671  0.82904  0.49103  1.0000
  Fe  Fe143     1.0  0.83466  0.98395  0.47534  1.0000
  H   H1119     1.0  0.92439  0.85351  0.61505  1.0000
  H   H1120     1.0  0.89036  0.87071  0.62293  1.0000
  H   H1121     1.0  0.92237  0.89193  0.61621  1.0000
  H   H1122     1.0  0.80319  0.83985  0.45657  1.0000
  C   C713      1.0  0.91043  0.87235  0.60945  1.0000
  H   H1123     1.0  0.87950  0.89893  0.54777  1.0000
  N   N71       1.0  0.90363  0.87298  0.57802  1.0000
  C   C714      1.0  0.88539  0.89828  0.57126  1.0000
  H   H1124     1.0  0.76866  0.82208  0.45504  1.0000
  H   H1125     1.0  0.90565  0.01092  0.55486  1.0000
  S   S287      1.0  0.73456  0.94315  0.46913  1.0000
  H   H1126     1.0  0.72883  0.88379  0.42282  1.0000
  H   H1127     1.0  0.73975  0.04753  0.40239  1.0000
  H   H1128     1.0  0.73197  0.87849  0.46131  1.0000
  C   C715      1.0  0.77546  0.85405  0.40678  1.0000
  H   H1129     1.0  0.76406  0.83346  0.40245  1.0000
  H   H1130     1.0  0.91181  0.04413  0.57358  1.0000
  H   H1131     1.0  0.00801  0.80312  0.39956  1.0000
  H   H1132     1.0  0.79916  0.85030  0.40362  1.0000
  H   H1133     1.0  0.95486  0.80625  0.39721  1.0000
  H   H1134     1.0  0.72530  0.84841  0.43786  1.0000
  Fe  Fe144     1.0  0.89514  0.80087  0.50133  1.0000
  C   C716      1.0  0.99309  0.84228  0.96092  1.0000
  H   H1135     1.0  0.02344  0.81529  0.00167  1.0000
  C   C717      1.0  0.04116  0.83399  0.05632  1.0000
  H   H1136     1.0  0.73665  0.01631  0.82036  1.0000
  H   H1137     1.0  0.02349  0.04174  0.93427  1.0000
  H   H1138     1.0  0.00761  0.04846  0.89916  1.0000
  H   H1139     1.0  0.05459  0.87716  0.04593  1.0000
  H   H1140     1.0  0.98589  0.82289  0.94890  1.0000
  H   H1141     1.0  0.05711  0.86916  0.98505  1.0000
  N   N72       1.0  0.02503  0.84290  0.96410  1.0000
  H   H1142     1.0  0.98208  0.84196  0.98261  1.0000
  H   H1143     1.0  0.03256  0.82429  0.92189  1.0000
  H   H1144     1.0  0.02841  0.88884  0.96776  1.0000
  C   C718      1.0  0.03467  0.81709  0.98026  1.0000
  H   H1145     1.0  0.88901  0.98753  0.04824  1.0000
  C   C719      1.0  0.03881  0.84331  0.93498  1.0000
  H   H1146     1.0  0.03254  0.86281  0.92233  1.0000
  H   H1147     1.0  0.98509  0.86148  0.94885  1.0000
  S   S288      1.0  0.00371  0.84199  0.05515  1.0000
  H   H1148     1.0  0.04672  0.80467  0.81566  1.0000
  C   C720      1.0  0.03345  0.86894  0.98027  1.0000
  H   H1149     1.0  0.05466  0.03501  0.87519  1.0000
  H   H1150     1.0  0.83123  0.80780  0.04834  1.0000
  H   H1151     1.0  0.02186  0.87028  0.00154  1.0000
  H   H1152     1.0  0.87490  0.95285  0.05804  1.0000
