data_image0
_chemical_formula_structural       FeS2FeS2FeSFeS3FeS2FeS2FeSFeS3FeS2FeS2FeSFeS3FeS2FeS2FeSFeS3FeS2FeS2FeSFeS3C6H4C6H4C6H4C6H4C6H4C6H4C6H4C6H4C6H4C6H4FeS2FeS2FeSFeS3FeS2FeS2FeSFeS3FeS2FeS2FeSFeS3FeS2FeS2FeSFeS3FeS2FeS2FeSFeS3C6H4C6H4C6H4C6H4C6H4C6H4C6H4C6H4C6H4C6H4FeS2FeS2FeSFeS3FeS2FeS2FeSFeS3FeS2FeS2FeSFeS3FeS2FeS2FeSFeS3FeS2FeS2FeSFeS3C6H4C6H4C6H4C6H4C6H4C6H4C6H4C6H4C6H4C6H4FeS2FeS2FeSFeS3FeS2FeS2FeSFeS3FeS2FeS2FeSFeS3FeS2FeS2FeSFeS3FeS2FeS2FeSFeS3C6H4C6H4C6H4C6H4C6H4C6H4C6H4C6H4C6H4C6H4NC4H12NC4H12NC4H12NC4H12NC4H12NC4H12NC4H12NC4H12NC4H12NC4H12NC4H12NC4H12NC4H12NC4H12NC4H12NC4H12NC4H12NC4H12NC4H12NC4H12NC4H12NC4H12NC4H12NC4H12NC4H12NC4H12NC4H12NC4H12NC4H12NC4H12NC4H12NC4H12NC4H12NC4H12NC4H12NC4H12NC4H12NC4H12NC4H12NC4H12
_chemical_formula_sum              "Fe80 S160 C400 H640 N40"
_cell_length_a       60.881478146143316
_cell_length_b       61.50605234177208
_cell_length_c       27.19916677244839
_cell_angle_alpha    88.79741425348203
_cell_angle_beta     88.08079435436956
_cell_angle_gamma    123.34785024430202

_space_group_name_H-M_alt    "P 1"
_space_group_IT_number       1

loop_
  _space_group_symop_operation_xyz
  'x, y, z'

loop_
  _atom_site_type_symbol
  _atom_site_label
  _atom_site_symmetry_multiplicity
  _atom_site_fract_x
  _atom_site_fract_y
  _atom_site_fract_z
  _atom_site_occupancy
  Fe  Fe1       1.0  0.18265875124458797  0.3408740233798449  0.2514316272982577  1.0000
  S   S1        1.0  0.19081647450825592  0.37137797855213983  0.1928589909349873  1.0000
  S   S2        1.0  0.20649924336517178  0.35392559130326157  0.31982194836920985  1.0000
  Fe  Fe2       1.0  0.1418820784588318  0.29619836618924017  0.1915862937611086  1.0000
  S   S3        1.0  0.14615975373008036  0.3228904406685434  0.12960645298005005  1.0000
  S   S4        1.0  0.11131627955821366  0.2534677056359633  0.18548733530062383  1.0000
  Fe  Fe3       1.0  0.1895242357500941  0.3434087373333942  0.13921062093569728  1.0000
  S   S5        1.0  0.21395456893304743  0.3503344486317747  0.0692130520089652  1.0000
  Fe  Fe4       1.0  0.1467985894944376  0.3481147564413976  0.18824610236597994  1.0000
  S   S6        1.0  0.11975469793728989  0.36242264092604426  0.1884029601390699  1.0000
  S   S7        1.0  0.18522847866428774  0.314794881075048  0.1977920676033374  1.0000
  S   S8        1.0  0.1387826486325855  0.3196147878716379  0.2503713461422783  1.0000
  Fe  Fe5       1.0  0.18070290044723653  0.36659586833478425  0.7132642393585094  1.0000
  S   S9        1.0  0.20320071652206195  0.3872764313326369  0.6418818149310322  1.0000
  S   S10       1.0  0.17698480360444738  0.3900437444389814  0.7723930481040099  1.0000
  Fe  Fe6       1.0  0.18445280538599473  0.3196761709246657  0.6938008403614285  1.0000
  S   S11       1.0  0.20827457166583413  0.3376897307843297  0.6226448762249647  1.0000
  S   S12       1.0  0.1784965982887275  0.2812502257398276  0.7161898769779534  1.0000
  Fe  Fe7       1.0  0.2300791856982601  0.37462201141781265  0.6630828148323804  1.0000
  S   S13       1.0  0.2740506781700472  0.40340080938510575  0.6645520942534028  1.0000
  Fe  Fe8       1.0  0.17899346115970446  0.3480697969452537  0.60819808754743  1.0000
  S   S14       1.0  0.15610163248144523  0.335529389027474  0.5383060683064846  1.0000
  S   S15       1.0  0.2087176682836648  0.3556294233737665  0.7352738524939035  1.0000
  S   S16       1.0  0.15396044009166207  0.3283323474971151  0.678490943566672  1.0000
  Fe  Fe9       1.0  0.35150282607645056  0.4089259362609959  0.8863084076740958  1.0000
  S   S17       1.0  0.35423524251960625  0.4457056693760709  0.9049726573652667  1.0000
  S   S18       1.0  0.3227433113828136  0.3765961355284371  0.8396854262340087  1.0000
  Fe  Fe10      1.0  0.3939567841921992  0.4181355836242424  0.9541345226507635  1.0000
  S   S19       1.0  0.3995807201738462  0.4548816556764594  0.9810406071227814  1.0000
  S   S20       1.0  0.41680589935726997  0.4019442602699473  0.9824254795706325  1.0000
  Fe  Fe11      1.0  0.35568391603033417  0.434093357464954  0.9830244321320569  1.0000
  S   S21       1.0  0.3350091449980503  0.44048981579235724  0.045973391180437174  1.0000
  Fe  Fe12      1.0  0.39807822802961573  0.4639068348501779  0.9014400171887125  1.0000
  S   S22       1.0  0.4008297194470759  0.019278194053998846  0.9851903265940158  1.0000
  S   S23       1.0  0.34996427045774375  0.39602859072276136  0.9649729516527018  1.0000
  S   S24       1.0  0.3950971000990838  0.42829489543134786  0.8741785323669122  1.0000
  Fe  Fe13      1.0  0.09399309844317641  0.12581743806095136  0.9061652489694725  1.0000
  S   S25       1.0  0.05739775444854469  0.12367760532538935  0.8861906004287234  1.0000
  S   S26       1.0  0.10128531324554048  0.09803038904084432  0.8679769641318  1.0000
  Fe  Fe14      1.0  0.10681950004762736  0.16560164595578364  0.98354382587679  1.0000
  S   S27       1.0  0.07063673716953144  0.16545215576162117  0.9714733997500994  1.0000
  S   S28       1.0  0.1372223819593402  0.1922046382217174  0.036006685892736146  1.0000
  Fe  Fe15      1.0  0.0499566175126124  0.12212989614200316  0.96772692485292  1.0000
  S   S29       1.0  0.012404004434971243  0.09296977018553494  0.01154217505884847  1.0000
  Fe  Fe16      1.0  0.08155064721605239  0.16717869268664162  0.891315845016432  1.0000
  S   S30       1.0  0.07809040858790509  0.19640001098063725  0.8467274189122203  1.0000
  S   S31       1.0  0.08529312968538948  0.12202130298260032  0.9876031986018743  1.0000
  S   S32       1.0  0.1191567093151065  0.1696917697544972  0.9033890276294532  1.0000
  Fe  Fe17      1.0  0.10911877117831056  0.447688071423673  0.9918655348592119  1.0000
  S   S33       1.0  0.07240336941952251  0.4090137049867442  0.9785263161369998  1.0000
  S   S34       1.0  0.14204832325653557  0.45283622935423784  0.03709003245697388  1.0000
  Fe  Fe18      1.0  0.09656128452896941  0.47685470755410575  0.9184759890183314  1.0000
  S   S35       1.0  0.0596971862012079  0.4403027124723805  0.8969948601206866  1.0000
  S   S36       1.0  0.1199921599572581  0.025640707520269812  0.004836097841484088  1.0000
  Fe  Fe19      1.0  0.052200164502705544  0.43056504349120767  0.9780043789180508  1.0000
  S   S37       1.0  0.013255805587033978  0.41730059830653404  0.017742243484014653  1.0000
  Fe  Fe20      1.0  0.08307470163052769  0.4219966973257344  0.8984828572532089  1.0000
  S   S38       1.0  0.07818290952314913  0.39230700640425226  0.844053181866897  1.0000
  S   S39       1.0  0.08802853711094139  0.46820822673470924  0.9997166648213439  1.0000
  S   S40       1.0  0.12087188996027992  0.4596633868371621  0.9116777833269585  1.0000
  C   C1        1.0  0.10669882046395025  0.07818064088103573  0.9062898341819466  1.0000
  C   C2        1.0  0.11525405117528612  0.08521616142535134  0.9538984567336672  1.0000
  C   C3        1.0  0.11936221136125846  0.06901238251601084  0.9838651959867724  1.0000
  C   C4        1.0  0.11458001420039056  0.04553430612627298  0.9666360245140638  1.0000
  C   C5        1.0  0.1057633252257311  0.03835931103555162  0.9192239498964949  1.0000
  C   C6        1.0  0.10210771281021479  0.05478969762794899  0.8889407073757212  1.0000
  H   H1        1.0  0.1194562063803233  0.10349832463771554  0.9671161355438773  1.0000
  H   H2        1.0  0.12642133708989467  0.07477858295826238  0.020320974455345198  1.0000
  H   H3        1.0  0.10233616551347238  0.020452893206680305  0.9054163828433485  1.0000
  H   H4        1.0  0.09573910001302373  0.04938260839569232  0.851965117589969  1.0000
  C   C7        1.0  0.9878341517812138  0.06789175505458978  0.9772404945563131  1.0000
  C   C8        1.0  0.9667503365447564  0.04538042554399405  0.0018318170634978872  1.0000
  C   C9        1.0  0.449696135303458  0.06458766896466361  0.9795689636005911  1.0000
  C   C10       1.0  0.4317974399656956  0.04183889559057849  0.956006940051238  1.0000
  C   C11       1.0  0.4386919196856911  0.0375910757085199  0.9092972670991005  1.0000
  C   C12       1.0  0.46327292240399476  0.056197199795086535  0.8860476001419506  1.0000
  H   H5        1.0  0.9655494516904499  0.043623776508616145  0.0416321252467351  1.0000
  H   H6        1.0  0.4443160721321602  0.06804460956490804  0.01549682480859776  1.0000
  H   H7        1.0  0.42475215965705304  0.020349896073973348  0.8904839698863237  1.0000
  H   H8        1.0  0.46831123533431906  0.053029783232310355  0.8495655835916591  1.0000
  C   C13       1.0  0.44746531935584405  0.4130455576085  0.9519154755625128  1.0000
  C   C14       1.0  0.46389346627749706  0.4060023432123168  0.9712967348960566  1.0000
  C   C15       1.0  0.4876709549241818  0.413293340815974  0.9459234863302876  1.0000
  C   C16       1.0  0.49467929507862757  0.4269800271320647  0.9003123275658299  1.0000
  C   C17       1.0  0.4783270356750373  0.4341202078734731  0.8810836409752358  1.0000
  C   C18       1.0  0.45515395340091447  0.4277617124533567  0.9073839052096777  1.0000
  H   H9        1.0  0.4581091637454627  0.3946599627955015  0.005788899068306819  1.0000
  H   H10       1.0  0.9645671916138334  0.411498311472945  0.047139700152828444  1.0000
  H   H11       1.0  0.48363924664377833  0.4446284645956164  0.845721029502552  1.0000
  H   H12       1.0  0.4430104136447461  0.4337570135219785  0.8924960601499812  1.0000
  C   C19       1.0  0.10594307626556598  0.39320836836703066  0.8197045126283978  1.0000
  C   C20       1.0  0.13137054031386614  0.41271382700825665  0.8317294300729774  1.0000
  C   C21       1.0  0.15290978147125275  0.41156616779875543  0.8162294700807307  1.0000
  C   C22       1.0  0.1493476145820408  0.391311474075857  0.7874330018022869  1.0000
  C   C23       1.0  0.1240497299999829  0.37217811199182654  0.7739573836026228  1.0000
  C   C24       1.0  0.10237259684382718  0.37308163471624023  0.7903165843982013  1.0000
  H   H13       1.0  0.1344384436432835  0.42851611968990294  0.8536131253227086  1.0000
  H   H14       1.0  0.1724326638678191  0.4264855500914172  0.8266507796632487  1.0000
  H   H15       1.0  0.12111210782598761  0.3564417097216607  0.7518923622186303  1.0000
  H   H16       1.0  0.08272730662921984  0.35794563242027416  0.7807816106425187  1.0000
  C   C25       1.0  0.2881706180716795  0.3958567039588158  0.7120051890219578  1.0000
  C   C26       1.0  0.2752763778598641  0.37050902182110484  0.732781779871004  1.0000
  C   C27       1.0  0.28613874458793265  0.3648555922256744  0.7718152207078094  1.0000
  C   C28       1.0  0.3096289147324313  0.3846027205284641  0.7911222376946312  1.0000
  C   C29       1.0  0.3225078932856944  0.4100476585268407  0.7706523104258066  1.0000
  C   C30       1.0  0.31197787840870683  0.4155670070367404  0.7306409122368226  1.0000
  H   H17       1.0  0.25712548241004807  0.3550955440225603  0.7182359268686451  1.0000
  H   H18       1.0  0.2761863919280093  0.34511212401761265  0.7872657587983242  1.0000
  H   H19       1.0  0.34082928636655435  0.4253226154777956  0.7849530472765194  1.0000
  H   H20       1.0  0.3222386495953386  0.43513540615018537  0.7142676495400897  1.0000
  C   C31       1.0  0.15064578520998548  0.2582422538193351  0.7531023071381207  1.0000
  C   C32       1.0  0.1482932835067721  0.2352235820969219  0.7691635309179328  1.0000
  C   C33       1.0  0.12610859686651177  0.2161731273648498  0.7980756445835105  1.0000
  C   C34       1.0  0.10603055753002759  0.21995013644082068  0.810530072838324  1.0000
  C   C35       1.0  0.10832118859351537  0.2429535031523229  0.7943262441027741  1.0000
  C   C36       1.0  0.1307114287602998  0.2622036424564493  0.7659142067954965  1.0000
  H   H21       1.0  0.16365889887147828  0.23206628409970403  0.7591385212842882  1.0000
  H   H22       1.0  0.12431034382235907  0.19833743996459727  0.8098286507034645  1.0000
  H   H23       1.0  0.09277658659547636  0.24590567906946162  0.8039631757759153  1.0000
  H   H24       1.0  0.13244665716680873  0.2799685899575035  0.7537820155215329  1.0000
  C   C37       1.0  0.12598231517412853  0.3867280399388998  0.144231754556637  1.0000
  C   C38       1.0  0.1513254902125265  0.40417921844114496  0.12320738017844828  1.0000
  C   C39       1.0  0.15607153487116313  0.42452566292135707  0.0905712730836713  1.0000
  C   C40       1.0  0.1354140241143791  0.42708413065884676  0.07788475521409285  1.0000
  C   C41       1.0  0.10993366417699459  0.4091295651563579  0.09772648629762494  1.0000
  C   C42       1.0  0.10531736278167433  0.38922222375491156  0.13139119163035548  1.0000
  H   H25       1.0  0.16738012127699167  0.40243187450805135  0.13302233965774807  1.0000
  H   H26       1.0  0.17580524259425306  0.4383672394881999  0.07513637066418419  1.0000
  H   H27       1.0  0.09393987963954885  0.4110721005892097  0.08828665287418426  1.0000
  H   H28       1.0  0.08568778184879935  0.37581897581819235  0.1477415594067169  1.0000
  C   C43       1.0  0.24705258549891979  0.3766885192595757  0.061806213186794266  1.0000
  C   C44       1.0  0.2580800107768641  0.39701031523375135  0.0943277791636891  1.0000
  C   C45       1.0  0.285046168794219  0.41690079425959015  0.08880744526229914  1.0000
  C   C46       1.0  0.30099959473810384  0.41642229252184876  0.05095755717523266  1.0000
  C   C47       1.0  0.2897857684688734  0.3963809767578911  0.017983830959740866  1.0000
  C   C48       1.0  0.26290863194601494  0.37661348490057617  0.023381807841242504  1.0000
  H   H29       1.0  0.245848697501523  0.39735713441603626  0.12366557443513661  1.0000
  H   H30       1.0  0.29358041165681714  0.43255983011426413  0.11404119555649253  1.0000
  H   H31       1.0  0.30179567052897643  0.3960084004761588  0.988268979006732  1.0000
  H   H32       1.0  0.25445723041628904  0.36101875200587075  0.9979658970310997  1.0000
  C   C49       1.0  0.19217037264008557  0.3480125967256956  0.3805268739153397  1.0000
  C   C50       1.0  0.16487591597724682  0.33262055764288867  0.39012516020282845  1.0000
  C   C51       1.0  0.15416364021956067  0.3289306230760878  0.4386544800557342  1.0000
  C   C52       1.0  0.1706063576938372  0.3403378841872909  0.4781283675547885  1.0000
  C   C53       1.0  0.19790541914036994  0.3553740636146976  0.4686581005564725  1.0000
  C   C54       1.0  0.20860432855489291  0.3592378437808844  0.4200427877346355  1.0000
  H   H33       1.0  0.15204444394580938  0.32339977383397056  0.3602419067264163  1.0000
  H   H34       1.0  0.13302428075425232  0.31711505520616856  0.4457014818615067  1.0000
  H   H35       1.0  0.21078511865428154  0.36426671579813347  0.4986926906483857  1.0000
  H   H36       1.0  0.2297483272170251  0.3711156333052396  0.41305931573377414  1.0000
  C   C55       1.0  0.1190815258610069  0.23819903586503016  0.14070144753260533  1.0000
  C   C56       1.0  0.14501900407275017  0.24529436145928407  0.1316276160844326  1.0000
  C   C57       1.0  0.15045077830642145  0.23119887975448317  0.09904296851120525  1.0000
  C   C58       1.0  0.13011036218220207  0.21051366079070077  0.07430957473123043  1.0000
  C   C59       1.0  0.10440632594776433  0.20429915368345794  0.08157831944766072  1.0000
  C   C60       1.0  0.09881350597694485  0.21774615762479302  0.11544909247825941  1.0000
  H   H37       1.0  0.16072538913123427  0.26096687779925176  0.1511853721371986  1.0000
  H   H38       1.0  0.17040763043128798  0.2361444308039839  0.09348773585805978  1.0000
  H   H39       1.0  0.08868257756795303  0.18859303658876023  0.06244007237809679  1.0000
  H   H40       1.0  0.07876136480058261  0.2123601174766192  0.12215052333677603  1.0000
  Fe  Fe21      1.0  0.15324480026028012  0.839592656509383  0.27943025613003564  1.0000
  S   S41       1.0  0.15696487701053632  0.8701787419824093  0.22581259218114647  1.0000
  S   S42       1.0  0.1395122547647574  0.8343501518398703  0.3606905329649629  1.0000
  Fe  Fe22      1.0  0.16118663099982014  0.81081934256238  0.19767693071637998  1.0000
  S   S43       1.0  0.165906407176661  0.8389052113884752  0.1383532493490898  1.0000
  S   S44       1.0  0.1650842527065297  0.77751477129529  0.1784398086851098  1.0000
  Fe  Fe23      1.0  0.19063185905116617  0.8697377772786782  0.19033103688965552  1.0000
  S   S45       1.0  0.2257983470653299  0.9063764641540993  0.15466125540291017  1.0000
  Fe  Fe24      1.0  0.13197893687121068  0.8371093912037082  0.17744418105505272  1.0000
  S   S46       1.0  0.10186215092195959  0.8327870691842655  0.12545988413177517  1.0000
  S   S47       1.0  0.18915810716411685  0.8418864132204041  0.2475418681849632  1.0000
  S   S48       1.0  0.12510211080711064  0.8062446825505137  0.23323326424659882  1.0000
  Fe  Fe25      1.0  0.15543582713210646  0.8630585261594131  0.7044753756193287  1.0000
  S   S49       1.0  0.19834938831302398  0.8856583477997706  0.6809896421784423  1.0000
  S   S50       1.0  0.1311347047992213  0.8806001481023633  0.7085112251760677  1.0000
  Fe  Fe26      1.0  0.15208629231242224  0.8119197869076874  0.7148105592552816  1.0000
  S   S51       1.0  0.19493871657027478  0.8303373729030497  0.6925214774861052  1.0000
  S   S52       1.0  0.12047325341512816  0.7699087093981144  0.7353042504869483  1.0000
  Fe  Fe27      1.0  0.20184486051016687  0.8624783045781599  0.7415594650204049  1.0000
  S   S53       1.0  0.22923035912106451  0.8832030956433609  0.8031253580167044  1.0000
  Fe  Fe28      1.0  0.1876833938260108  0.8519070001281261  0.6333897844016885  1.0000
  S   S54       1.0  0.2047670758959863  0.8602870321952965  0.5539711277916306  1.0000
  S   S55       1.0  0.1593281274188662  0.8421094561959036  0.7681158739565531  1.0000
  S   S56       1.0  0.14446522677355186  0.8311380299816721  0.6525257050819456  1.0000
  Fe  Fe29      1.0  0.3616651144298557  0.9308770276897977  0.9074471350895706  1.0000
  S   S57       1.0  0.3427622186269847  0.9458417132980148  0.9563996957450797  1.0000
  S   S58       1.0  0.34431291702835787  0.9112554910992179  0.8364405750057357  1.0000
  Fe  Fe30      1.0  0.40242027675333825  0.9402749497052341  0.9821035059572074  1.0000
  S   S59       1.0  0.38588821992483563  0.9554788980448161  0.03560629416235588  1.0000
  S   S60       1.0  0.43527486073486943  0.9408445576345352  0.019570319637213247  1.0000
  Fe  Fe31      1.0  0.34624321036793476  0.922473379424792  0.016349039814871656  1.0000
  S   S61       1.0  0.31599973977806267  0.8928734170632207  0.07302357851403801  1.0000
  Fe  Fe32      1.0  0.38465599810096235  0.977408205735413  0.9705672822611279  1.0000
  S   S62       1.0  0.4272961630155402  0.5036012274049464  0.8654427132557586  1.0000
  S   S63       1.0  0.362625210524045  0.9055264049237903  0.9669062316775195  1.0000
  S   S64       1.0  0.40367955167473607  0.9643385946114729  0.9174638668865925  1.0000
  Fe  Fe33      1.0  0.09876269728702076  0.6258913208045782  0.9868004750022049  1.0000
  S   S65       1.0  0.09183034504491738  0.6272016879267256  0.9067553852000597  1.0000
  S   S66       1.0  0.11257306732855119  0.6009901122723729  0.016294656351650616  1.0000
  Fe  Fe34      1.0  0.08248665616554819  0.6637106411813971  0.011926611178652902  1.0000
  S   S67       1.0  0.07389458677923033  0.6669157261590382  0.9336072080181848  1.0000
  S   S68       1.0  0.07280939149141281  0.6865661873309868  0.06175839815846621  1.0000
  Fe  Fe35      1.0  0.05484623502271052  0.6235760719188056  0.9346655898044354  1.0000
  S   S69       1.0  0.015998067013353365  0.5970199275529019  0.9004438408766285  1.0000
  Fe  Fe36      1.0  0.11167536872855295  0.6701202378210788  0.9147749367641895  1.0000
  S   S70       1.0  0.14593298100979452  0.7009223775422835  0.865859332630298  1.0000
  S   S71       1.0  0.06067686567945168  0.6200528111705945  0.014597816884851955  1.0000
  S   S72       1.0  0.12150785027684669  0.6694034751085786  0.9932068387474047  1.0000
  Fe  Fe37      1.0  0.07597884543363304  0.9315244808364762  0.03524921488433012  1.0000
  S   S73       1.0  0.06448721799134574  0.9094600170919673  0.9658099277891771  1.0000
  S   S74       1.0  0.07509061978396493  0.9186544662258973  0.11386939950719285  1.0000
  Fe  Fe38      1.0  0.10137835377113995  0.9844762681465364  0.981056670163368  1.0000
  S   S75       1.0  0.09351325588255414  0.9675707189511897  0.9064925571370357  1.0000
  S   S76       1.0  0.1049948487114715  0.5142321446440993  0.8823170576120568  1.0000
  Fe  Fe39      1.0  0.053509270430276555  0.9375928154039719  0.9419658845298118  1.0000
  S   S77       1.0  0.018536989195636667  0.9298333830812662  0.9007026150385387  1.0000
  Fe  Fe40      1.0  0.1050967140299227  0.9408596248241587  0.9357804149891231  1.0000
  S   S78       1.0  0.13566056064936102  0.9328997414570483  0.9099442904320866  1.0000
  S   S79       1.0  0.06091962297242637  0.956344707507738  0.014452412269440057  1.0000
  S   S80       1.0  0.1170134128661536  0.9610603462427615  0.0068410557336555655  1.0000
  C   C61       1.0  0.10885955285171871  0.5757396283400823  0.9802024261256563  1.0000
  C   C62       1.0  0.09867384919001185  0.571822132653085  0.9335207831131532  1.0000
  C   C63       1.0  0.09779379113071592  0.5530502333093887  0.9037643359634231  1.0000
  C   C64       1.0  0.1061028118297637  0.5372689760867364  0.9211547355064433  1.0000
  C   C65       1.0  0.11528166822782981  0.5403324491400628  0.9686273596968633  1.0000
  C   C66       1.0  0.11692975033796175  0.559741995394567  0.9978566068799137  1.0000
  H   H41       1.0  0.09160086886123815  0.5832805444844782  0.9199381768467487  1.0000
  H   H42       1.0  0.09039416044598741  0.5505424069722652  0.8672712688627005  1.0000
  H   H43       1.0  0.12185121303428226  0.5282832066422277  0.9822525734759217  1.0000
  H   H44       1.0  0.12471291374785227  0.5625019090764632  0.0340374402313135  1.0000
  C   C67       1.0  0.9920352295079764  0.5677552882987721  0.9330455056671266  1.0000
  C   C68       1.0  0.9967895675324352  0.560918289904928  0.9789933906447426  1.0000
  C   C69       1.0  0.45807417304071957  0.5172910795324346  0.9454399677171595  1.0000
  C   C70       1.0  0.45331262587464677  0.5256750455613369  0.9013020346565965  1.0000
  C   C71       1.0  0.46881892081906834  0.552184921694717  0.8866512324103165  1.0000
  C   C72       1.0  0.4882811603133565  0.5702846330834489  0.9169587379833901  1.0000
  H   H45       1.0  0.01600838009894495  0.5724816656505195  0.993497028276028  1.0000
  H   H46       1.0  0.44749837383365804  0.49688764234018684  0.9556519084553811  1.0000
  H   H47       1.0  0.465489452582617  0.5588218505149415  0.8522243979722685  1.0000
  H   H48       1.0  0.4998958105139743  0.5907949003304996  0.9058433034416562  1.0000
  C   C73       1.0  0.4580739955687642  0.9367679371182316  0.9868879524258254  1.0000
  C   C74       1.0  0.47968822255777516  0.9403935691875612  0.011290620596308365  1.0000
  C   C75       1.0  0.49812517985563404  0.9368868243710571  0.9869490423304677  1.0000
  C   C76       1.0  0.4949037797156234  0.9294382474074783  0.9381843814176465  1.0000
  C   C77       1.0  0.47342087591241855  0.9261031752042767  0.9135129071999808  1.0000
  C   C78       1.0  0.45509110389774154  0.9299337828026761  0.9377219981542015  1.0000
  H   H49       1.0  0.4821160467129466  0.9457134354297783  0.04932574287577898  1.0000
  H   H50       1.0  0.002129352385313514  0.9170427469363367  0.004958115851918966  1.0000
  H   H51       1.0  0.47082056815385137  0.9203340876819582  0.8757544436765505  1.0000
  H   H52       1.0  0.43844671397730783  0.9271145240548944  0.9186637092711281  1.0000
  C   C79       1.0  0.13346348695660284  0.9179028859387408  0.8541054061325496  1.0000
  C   C80       1.0  0.11460548320796057  0.9131271957435181  0.820380629267447  1.0000
  C   C81       1.0  0.11396723629414095  0.9016511672239973  0.7757142713135381  1.0000
  C   C82       1.0  0.131930491194703  0.8946175970747152  0.7649372856151896  1.0000
  C   C83       1.0  0.15058663899784808  0.8991864014842267  0.798936224084448  1.0000
  C   C84       1.0  0.1514171191451646  0.9108967738412612  0.8432194066289277  1.0000
  H   H53       1.0  0.10071690131060526  0.9185036623457022  0.8284622612130924  1.0000
  H   H54       1.0  0.09947838366027872  0.898154944052646  0.7495771854012272  1.0000
  H   H55       1.0  0.16469954905291465  0.8941115901044323  0.7907502760042319  1.0000
  H   H56       1.0  0.16619723571481715  0.9147115613138612  0.868854118137862  1.0000
  C   C85       1.0  0.2624264598201418  0.8930746950989447  0.8045283714574082  1.0000
  C   C86       1.0  0.2789451520470437  0.9135486130198425  0.834476860698752  1.0000
  C   C87       1.0  0.3043884901542052  0.9198353925684973  0.842830976585221  1.0000
  C   C88       1.0  0.31343108938424935  0.9053819102999493  0.8220718950677371  1.0000
  C   C89       1.0  0.29727677177638406  0.8854402684811558  0.7906389269571004  1.0000
  C   C90       1.0  0.27178890540799766  0.8792644603521194  0.7818445942047693  1.0000
  H   H57       1.0  0.2719132358239328  0.9244743003890646  0.8517221423552793  1.0000
  H   H58       1.0  0.3169620860827154  0.9358459609111955  0.8655041476561924  1.0000
  H   H59       1.0  0.3042664510340002  0.8743607423561267  0.7739457398586189  1.0000
  H   H60       1.0  0.25913766554233486  0.8633423842738139  0.7588909179040602  1.0000
  C   C91       1.0  0.1282263316028353  0.751036498915285  0.7706510324756878  1.0000
  C   C92       1.0  0.10768855597800124  0.7264399329001279  0.7897226412044372  1.0000
  C   C93       1.0  0.11303721586714745  0.71094427188164  0.8188017815762344  1.0000
  C   C94       1.0  0.13900570512508803  0.7198785471491949  0.8285239236105384  1.0000
  C   C95       1.0  0.15962435647688455  0.7444148765440834  0.8092617030221692  1.0000
  C   C96       1.0  0.15424000589439657  0.7600898671890892  0.780597625978624  1.0000
  H   H61       1.0  0.08756750966329965  0.719332715130921  0.7817515940748552  1.0000
  H   H62       1.0  0.09707352612257895  0.691881111272619  0.8328127247959202  1.0000
  H   H63       1.0  0.17977102211409401  0.7513970817988351  0.8166547836050974  1.0000
  H   H64       1.0  0.17016458553794894  0.779037128062418  0.7658463682908969  1.0000
  C   C97       1.0  0.09382956707266481  0.8562357806421247  0.1243492278847395  1.0000
  C   C98       1.0  0.10155433132815463  0.8744044150148644  0.16089895798038648  1.0000
  C   C99       1.0  0.09524191179163913  0.8932206255269051  0.15815927978506178  1.0000
  C   C100      1.0  0.08186917394520184  0.8943541551654086  0.11817364374317477  1.0000
  C   C101      1.0  0.07438734451938298  0.8763322646314434  0.08151151012964787  1.0000
  C   C102      1.0  0.07994359869656814  0.857057555377942  0.08506790807689477  1.0000
  H   H65       1.0  0.11200020163499141  0.873701136824718  0.191607099981608  1.0000
  H   H66       1.0  0.10092696528470789  0.9070082118847537  0.1868025979830273  1.0000
  H   H67       1.0  0.06380126059419068  0.876874399405712  0.05088424031844765  1.0000
  H   H68       1.0  0.07367294004303752  0.8428951277493202  0.056954411443500455  1.0000
  C   C103      1.0  0.2510819932748369  0.9027882808717961  0.1326966277016456  1.0000
  C   C104      1.0  0.24978481475935546  0.8797016917952705  0.14269932571235494  1.0000
  C   C105      1.0  0.2701060653916841  0.8770982712705327  0.12494973883378738  1.0000
  C   C106      1.0  0.29160464413247267  0.897393226252506  0.09652373255281847  1.0000
  C   C107      1.0  0.29284287153620864  0.9204120224125582  0.08609027511771851  1.0000
  C   C108      1.0  0.27263898282576693  0.9231270169601553  0.10435855782399263  1.0000
  H   H69       1.0  0.23318912466051916  0.8638980004310122  0.16437172109768763  1.0000
  H   H70       1.0  0.26900625413500895  0.8592085108081762  0.1329801853607862  1.0000
  H   H71       1.0  0.30940707603765855  0.9361907296566999  0.06424047722770432  1.0000
  H   H72       1.0  0.27373120683863295  0.9410381746731294  0.09659275594237751  1.0000
  C   C109      1.0  0.1582094043988241  0.8415122182401708  0.4136275817874033  1.0000
  C   C110      1.0  0.18572913841687974  0.8573674334048209  0.41094353710102594  1.0000
  C   C111      1.0  0.1996918306562696  0.8627458133418199  0.454191079993261  1.0000
  C   C112      1.0  0.18635649208699429  0.8523172865721164  0.5004588439235765  1.0000
  C   C113      1.0  0.1588658364979484  0.8360308187597159  0.502950011673348  1.0000
  C   C114      1.0  0.1448802698921932  0.8308219028044089  0.45980838774050176  1.0000
  H   H73       1.0  0.1962637914057022  0.8657743876723312  0.3756985949288613  1.0000
  H   H74       1.0  0.22097734145853912  0.8752872316437013  0.4518790078307363  1.0000
  H   H75       1.0  0.14842554005320271  0.8273348705947987  0.5381116552836932  1.0000
  H   H76       1.0  0.12359725420505667  0.8183470064378152  0.46222783800656797  1.0000
  C   C115      1.0  0.13948081693629466  0.7526026655868427  0.14539842809368836  1.0000
  C   C116      1.0  0.14296385617891702  0.7342408110484444  0.12320037108307344  1.0000
  C   C117      1.0  0.1226899997204267  0.7139740129903909  0.09728582635146481  1.0000
  C   C118      1.0  0.09861122310253705  0.7116674618349461  0.09424494723960769  1.0000
  C   C119      1.0  0.09507388003866292  0.7299426095547562  0.11669025353030583  1.0000
  C   C120      1.0  0.11555626568199141  0.7505555353903134  0.1416314925011185  1.0000
  H   H77       1.0  0.1613867511849342  0.7356589891330129  0.12616779661190514  1.0000
  H   H78       1.0  0.12554944752425645  0.6998596579434595  0.08061256514351035  1.0000
  H   H79       1.0  0.07649308350563581  0.7282823811487859  0.11457086000014342  1.0000
  H   H80       1.0  0.11265240814998245  0.7646045669329895  0.15857118756818336  1.0000
  Fe  Fe41      1.0  0.6657910640838162  0.3357439700461383  0.28021362646103143  1.0000
  S   S81       1.0  0.6916403899072887  0.37883992677210804  0.2636461326735063  1.0000
  S   S82       1.0  0.6502527192824776  0.31744483296100545  0.3578971071265734  1.0000
  Fe  Fe42      1.0  0.6698727559018007  0.32296203520355515  0.1729294940429911  1.0000
  S   S83       1.0  0.6964194927514279  0.3653192529289321  0.14931871350589532  1.0000
  S   S84       1.0  0.6665284089247215  0.2971525461762007  0.11124922344012693  1.0000
  Fe  Fe43      1.0  0.7167482577813833  0.36964099876315765  0.21856024844109415  1.0000
  S   S85       1.0  0.7609073733687468  0.39474917464834763  0.2204957246899683  1.0000
  Fe  Fe44      1.0  0.6688384786589116  0.3708595759972389  0.19536663418297076  1.0000
  S   S86       1.0  0.6634540860118335  0.4022250261341562  0.16557202293237758  1.0000
  S   S87       1.0  0.6926480636244354  0.3269965985417976  0.23931424350975342  1.0000
  S   S88       1.0  0.6404472271847286  0.3280182475510355  0.21487903558036592  1.0000
  Fe  Fe45      1.0  0.6504435018804307  0.34297712336982844  0.7188114958730271  1.0000
  S   S89       1.0  0.6936661773559596  0.37116159393923787  0.7010439294824691  1.0000
  S   S90       1.0  0.6200210585380457  0.35272000915039675  0.7324559572037991  1.0000
  Fe  Fe46      1.0  0.6533516963448326  0.29563278350614886  0.7025295018689082  1.0000
  S   S91       1.0  0.6966710122114637  0.32010442570703573  0.6814146487316807  1.0000
  S   S92       1.0  0.6284721740950754  0.2517404529961928  0.705089867259072  1.0000
  Fe  Fe47      1.0  0.6989839247308622  0.34339843063038394  0.7462901370563644  1.0000
  S   S93       1.0  0.7235777890546657  0.34907894503836967  0.8118255040879977  1.0000
  Fe  Fe48      1.0  0.6872228936116948  0.3453723487164226  0.6374499856483221  1.0000
  S   S94       1.0  0.7029326962938934  0.36531925801127674  0.5607471184107956  1.0000
  S   S95       1.0  0.6558887135879193  0.317258313731947  0.7692515944414796  1.0000
  S   S96       1.0  0.6437927914613558  0.31872654306414194  0.653596237059735  1.0000
  Fe  Fe49      1.0  0.8604888439575433  0.4370823546053289  0.9035408500712959  1.0000
  S   S97       1.0  0.8531252913473092  0.44446351404063844  0.9809972044841194  1.0000
  S   S98       1.0  0.8423858315118256  0.44125513093346014  0.8356989999076202  1.0000
  Fe  Fe50      1.0  0.8973347728884496  0.4206064268194658  0.9336880630150828  1.0000
  S   S99       1.0  0.8923129071433749  0.4252498112832271  0.014064184966907516  1.0000
  S   S100      1.0  0.9229631326100253  0.40980836446149366  0.8941162653599495  1.0000
  Fe  Fe51      1.0  0.8494641283212534  0.4068795422513215  0.00039870290159282895  1.0000
  S   S101      1.0  0.8134332782850222  0.37294300037087674  0.04062734564624422  1.0000
  Fe  Fe52      1.0  0.8966169568509439  0.4624858366394934  0.9881971566570094  1.0000
  S   S102      1.0  0.9239150098500621  0.0023054680865954224  0.8890368648107483  1.0000
  S   S103      1.0  0.85411917181363  0.3984860842093227  0.9223551316995866  1.0000
  S   S104      1.0  0.9043066673665134  0.4589566482978777  0.9088874700388265  1.0000
  Fe  Fe53      1.0  0.5763457110004983  0.11673083480274785  0.0036567338677582217  1.0000
  S   S105      1.0  0.5779722698737405  0.1200020812974493  0.9212999151448589  1.0000
  S   S106      1.0  0.570685183042397  0.08336323620211146  0.05140891587796337  1.0000
  Fe  Fe54      1.0  0.5702544859296361  0.16234550299662928  0.01475137657409431  1.0000
  S   S107      1.0  0.5698443833705115  0.16880005219315086  0.9331758179724302  1.0000
  S   S108      1.0  0.5662405129305484  0.18468891356642386  0.07533118982589354  1.0000
  Fe  Fe55      1.0  0.5444569098039831  0.1251311563284508  0.9313834104349661  1.0000
  S   S109      1.0  0.5120056170508536  0.1016637901165877  0.8802934656574916  1.0000
  Fe  Fe56      1.0  0.6033273182935421  0.1633502237040607  0.9291718710830725  1.0000
  S   S110      1.0  0.6393906385298029  0.1891796381098281  0.8790054429638605  1.0000
  S   S111      1.0  0.541044111784874  0.11909393906962794  0.01309612516496017  1.0000
  S   S112      1.0  0.6054840323914497  0.15966004355968666  0.011011656078314891  1.0000
  Fe  Fe57      1.0  0.5800420560561094  0.4214213556815565  0.9838680970925924  1.0000
  S   S113      1.0  0.5726065854833505  0.41293016281113953  0.9040258756549687  1.0000
  S   S114      1.0  0.5720402027079595  0.38878827607094785  0.03757224125209171  1.0000
  Fe  Fe58      1.0  0.5999121433004545  0.4788987070369681  0.9662832925508142  1.0000
  S   S115      1.0  0.596009007254912  0.4753075866692079  0.8848633182695851  1.0000
  S   S116      1.0  0.6267751941847438  0.025853006568302216  0.9896264526663814  1.0000
  Fe  Fe59      1.0  0.5568326400404758  0.43855686826363566  0.9058313922093885  1.0000
  S   S117      1.0  0.5231799544969986  0.43477155128817  0.8655484608196289  1.0000
  Fe  Fe60      1.0  0.612203251834028  0.45014043982578567  0.8905495624962614  1.0000
  S   S118      1.0  0.6453393102424376  0.4525650628153826  0.8450662768895725  1.0000
  S   S119      1.0  0.5600415165882588  0.44318951944606744  0.9871952846991289  1.0000
  S   S120      1.0  0.6202597529009348  0.45766416531296117  0.9704449287879406  1.0000
  C   C121      1.0  0.5848718434415447  0.06663286953692192  0.030050434155943773  1.0000
  C   C122      1.0  0.6071151870975996  0.07893039672309796  0.9975628941204755  1.0000
  C   C123      1.0  0.61951863317423  0.06601494838878573  0.9846635557476466  1.0000
  C   C124      1.0  0.6092348303442259  0.04043755936132663  0.002697180078942818  1.0000
  C   C125      1.0  0.5862728028222454  0.02772101915943677  0.03344323457418885  1.0000
  C   C126      1.0  0.5744045504431193  0.04096819832540817  0.04777291246156712  1.0000
  H   H81       1.0  0.6154151389745759  0.0987469227064878  0.983905171086611  1.0000
  H   H82       1.0  0.637354622474509  0.07597429590925643  0.9610913056238446  1.0000
  H   H83       1.0  0.5784137272584902  0.00812996554447742  0.04796783437680685  1.0000
  H   H84       1.0  0.5573962087841381  0.03143400231582183  0.07339005088518413  1.0000
  C   C127      1.0  0.4812266852877045  0.07882857736577596  0.9098380681505928  1.0000
  C   C128      1.0  0.47449048652679726  0.08292482566332386  0.956780613785107  1.0000
  C   C129      1.0  0.9470094655571893  0.02516289331268392  0.9750920584581002  1.0000
  C   C130      1.0  0.9482089570761527  0.02737833078236475  0.9236365517477971  1.0000
  C   C131      1.0  0.96919849347493  0.04994009620958514  0.8990950162408932  1.0000
  C   C132      1.0  0.9889345124473203  0.0701161324458236  0.925817662944702  1.0000
  H   H85       1.0  0.48804228072026207  0.10053864943942878  0.9750311961210257  1.0000
  H   H86       1.0  0.9306261844201118  0.008188353969003566  0.9944677718558409  1.0000
  H   H87       1.0  0.9701441409618717  0.051947328057728635  0.859331858891539  1.0000
  H   H88       1.0  0.004538239542461575  0.08764570432820132  0.906517873939641  1.0000
  C   C133      1.0  0.9471320227026557  0.4103548517330296  0.9289953041104724  1.0000
  C   C134      1.0  0.9457859561148643  0.4103039678180407  0.9804441263761876  1.0000
  C   C135      1.0  0.9657383752686441  0.4115486505299369  0.0073456838869414565  1.0000
  C   C136      1.0  0.9873899308835984  0.4133205755307593  0.9829952921234816  1.0000
  C   C137      1.0  0.9884982820209423  0.4129828737787706  0.9315891248435384  1.0000
  C   C138      1.0  0.968376392124752  0.4113762956822769  0.904704641983941  1.0000
  H   H89       1.0  0.9293014960994308  0.40909812971958004  0.9996022893203046  1.0000
  H   H90       1.0  0.5000918648367165  0.40753556238037814  0.9608153777511367  1.0000
  H   H91       1.0  0.004663000227355774  0.4136422113503673  0.9124579958851576  1.0000
  H   H92       1.0  0.9694360158648568  0.4111553185723614  0.8649554339744397  1.0000
  C   C139      1.0  0.6383426991470914  0.4252157252426641  0.8123061348069791  1.0000
  C   C140      1.0  0.6127216912517527  0.40667086211222797  0.7994612252655123  1.0000
  C   C141      1.0  0.6074936480012635  0.3847095170971249  0.7743871498214868  1.0000
  C   C142      1.0  0.6277578697917602  0.38098313752004453  0.7624751534434312  1.0000
  C   C143      1.0  0.6534300454571633  0.3995318887480693  0.7751300316156762  1.0000
  C   C144      1.0  0.6587170936282959  0.4217009280541513  0.7997101776239723  1.0000
  H   H93       1.0  0.596967335047967  0.4093968178270923  0.8083450712742818  1.0000
  H   H94       1.0  0.587604422501504  0.37045443534019484  0.7645009109765287  1.0000
  H   H95       1.0  0.6691839158831078  0.3968238136156637  0.7660603484322723  1.0000
  H   H96       1.0  0.6786031617634183  0.4360661868448514  0.8094254877398513  1.0000
  C   C145      1.0  0.7567381609173895  0.3748504393836669  0.8162616947685686  1.0000
  C   C146      1.0  0.7700063105056595  0.37462439235121264  0.8572445387965074  1.0000
  C   C147      1.0  0.79623956779909  0.3948439657798884  0.8631845297195199  1.0000
  C   C148      1.0  0.8094841609560973  0.4155971231815934  0.8282099454268966  1.0000
  C   C149      1.0  0.7963080941444486  0.4158915755665521  0.7870319949067958  1.0000
  C   C150      1.0  0.7699526266677031  0.39552082877867395  0.7809864758064663  1.0000
  H   H97       1.0  0.7600224722132956  0.3587272934442174  0.8845630252144503  1.0000
  H   H98       1.0  0.806127292316387  0.3944108797812505  0.8950670996840251  1.0000
  H   H99       1.0  0.8064429783779156  0.4319522059916446  0.7598739655032299  1.0000
  H   H100      1.0  0.7598553372516007  0.3959022789695323  0.7493149669021344  1.0000
  C   C151      1.0  0.6335769300387909  0.2371311902285458  0.7555954786756841  1.0000
  C   C152      1.0  0.6189314651613167  0.23175264902172169  0.8002329699087163  1.0000
  C   C153      1.0  0.6204584747481285  0.21692021086025873  0.8384046766274963  1.0000
  C   C154      1.0  0.636700532927585  0.20753308337555776  0.8320254074281979  1.0000
  C   C155      1.0  0.6516930060187016  0.2133888580706699  0.7877520587781521  1.0000
  C   C156      1.0  0.6498996057008058  0.2278692351636322  0.7494492229683525  1.0000
  H   H101      1.0  0.6060557606338091  0.2386511411979477  0.8049056801911936  1.0000
  H   H102      1.0  0.6093643989272147  0.21310671641008552  0.8728948625370317  1.0000
  H   H103      1.0  0.6643378237543559  0.20624640947883302  0.7826500889224276  1.0000
  H   H104      1.0  0.6608752415184479  0.2315700467823463  0.7147159164253164  1.0000
  C   C157      1.0  0.6385303692991836  0.3963895680575088  0.1262940038505776  1.0000
  C   C158      1.0  0.6135952869850743  0.3731169149053216  0.12931001817241436  1.0000
  C   C159      1.0  0.5933421534662962  0.3707633057457077  0.10141219270468547  1.0000
  C   C160      1.0  0.5980751974874553  0.39146458200186884  0.06990672183179313  1.0000
  C   C161      1.0  0.6233509954024571  0.4141533065852457  0.06538397358115115  1.0000
  C   C162      1.0  0.6433616857938173  0.41671780536310976  0.0938260204891674  1.0000
  H   H105      1.0  0.6096474908559366  0.3573710999899894  0.15455214577788023  1.0000
  H   H106      1.0  0.5738550157755044  0.3530318691242239  0.10503267776997341  1.0000
  H   H107      1.0  0.6275054360496631  0.4300605710366506  0.04090383142657147  1.0000
  H   H108      1.0  0.6626567979441716  0.43471999854618243  0.09121361703459593  1.0000
  C   C163      1.0  0.7761414137108069  0.38829769131494546  0.17229959969652375  1.0000
  C   C164      1.0  0.7618998783227976  0.3649501870295553  0.14818113172772113  1.0000
  C   C165      1.0  0.7739754940618855  0.36008315763720344  0.10906279099118761  1.0000
  C   C166      1.0  0.8000325391863238  0.3788558997584782  0.0927940978517356  1.0000
  C   C167      1.0  0.8143637446169841  0.4022150658667776  0.11695642155959818  1.0000
  C   C168      1.0  0.8024901602374838  0.40678889032044213  0.15711215327590516  1.0000
  H   H109      1.0  0.741581424806305  0.35054914776841145  0.15973244560948752  1.0000
  H   H110      1.0  0.7628951984072735  0.34190298872804326  0.09070097292232278  1.0000
  H   H111      1.0  0.8345507774403068  0.4167117103893346  0.10470657139593674  1.0000
  H   H112      1.0  0.8135697799470935  0.4248743218207564  0.17574843854690755  1.0000
  C   C169      1.0  0.6644224261132808  0.33154125229970227  0.41418683818625157  1.0000
  C   C170      1.0  0.6853744995568304  0.357594718972167  0.416108471508884  1.0000
  C   C171      1.0  0.6968941161323713  0.3676427626978434  0.46123465750805515  1.0000
  C   C172      1.0  0.6873626352079918  0.35190425937675984  0.5050543961017423  1.0000
  C   C173      1.0  0.6659738767386577  0.32606081474174753  0.5033448388317049  1.0000
  C   C174      1.0  0.6546501118573268  0.3159586412156408  0.4581421855184095  1.0000
  H   H113      1.0  0.6926927317372538  0.3699383114935226  0.38277220753881075  1.0000
  H   H114      1.0  0.713266509731532  0.3877359622153826  0.46222321262588556  1.0000
  H   H115      1.0  0.6583942406417567  0.3136809231556692  0.5366722014317101  1.0000
  H   H116      1.0  0.63835889814577  0.2958143506572486  0.4571393413155676  1.0000
  C   C175      1.0  0.6383180450754042  0.26592494865213456  0.10254154130299356  1.0000
  C   C176      1.0  0.615272610793367  0.25523081595300046  0.13261037499815084  1.0000
  C   C177      1.0  0.5931639069663206  0.23034310139572653  0.12378101914452301  1.0000
  C   C178      1.0  0.5940028036036916  0.21607541868098754  0.08494406718529163  1.0000
  C   C179      1.0  0.6171055824516666  0.2267267485480894  0.05510412392474067  1.0000
  C   C180      1.0  0.6391507132307193  0.25155767302443394  0.06391590750761267  1.0000
  H   H117      1.0  0.6144436054225958  0.2661811376980272  0.16241673300042778  1.0000
  H   H118      1.0  0.5753315502373746  0.22219803464364324  0.14698326336367865  1.0000
  H   H119      1.0  0.6179519280867033  0.21590926996950832  0.02509694857519718  1.0000
  H   H120      1.0  0.6569663012289388  0.2597270227578795  0.040763243165439236  1.0000
  Fe  Fe61      1.0  0.6557398450686406  0.8231608005521777  0.28029494472203303  1.0000
  S   S121      1.0  0.694011605481975  0.8596869104558984  0.2536647457352891  1.0000
  S   S122      1.0  0.6382932618921557  0.8111612126572256  0.35911339447789004  1.0000
  Fe  Fe62      1.0  0.6399756378264914  0.8058109389338592  0.17485528941692374  1.0000
  S   S123      1.0  0.6764552626486792  0.841215461426614  0.14063222141711923  1.0000
  S   S124      1.0  0.6095271775822039  0.7773315053290011  0.12430942081564664  1.0000
  Fe  Fe63      1.0  0.6969733847697245  0.8341669384988226  0.19961678801730062  1.0000
  S   S125      1.0  0.732590455539484  0.8334423666185826  0.17839902352634437  1.0000
  Fe  Fe64      1.0  0.6696095253179158  0.8631007792262229  0.19729526697145477  1.0000
  S   S126      1.0  0.6742328819859316  0.9013280360651537  0.17810115920388417  1.0000
  S   S127      1.0  0.6606459938903739  0.7970542094123717  0.23069703080049894  1.0000
  S   S128      1.0  0.6312746632523607  0.8283057172944608  0.22694412461454117  1.0000
  Fe  Fe65      1.0  0.6472035928902632  0.8443022811891647  0.728409984141222  1.0000
  S   S129      1.0  0.6807242362189335  0.8816556439420493  0.6920758799176666  1.0000
  S   S130      1.0  0.6131267185674758  0.839550170409193  0.7744360445710234  1.0000
  Fe  Fe66      1.0  0.672686217470896  0.8149225806198241  0.7045383691004004  1.0000
  S   S131      1.0  0.7087093417895758  0.8501133129757498  0.6678723480557558  1.0000
  S   S132      1.0  0.6717166787355004  0.7777935165891948  0.709305829460114  1.0000
  Fe  Fe67      1.0  0.7063586970186406  0.8718108720906151  0.7306637798415353  1.0000
  S   S133      1.0  0.7389275621479086  0.903226093594052  0.7738475229047208  1.0000
  Fe  Fe68      1.0  0.6800112817531077  0.8566851996482503  0.631743790870339  1.0000
  S   S134      1.0  0.6915360195602837  0.871680260966408  0.551675164063222  1.0000
  S   S135      1.0  0.6729629741517121  0.8360096306513252  0.7708193456260085  1.0000
  S   S136      1.0  0.6438535293785991  0.8198885784590185  0.6647577432708058  1.0000
  Fe  Fe69      1.0  0.8500100873831927  0.9095653280164495  0.911970362689622  1.0000
  S   S137      1.0  0.8524770617630747  0.9457194323117536  0.9340148955056232  1.0000
  S   S138      1.0  0.8232378422606166  0.8833192987091919  0.8541690033364828  1.0000
  Fe  Fe70      1.0  0.8917529820477487  0.9178201318517921  0.9827630222223627  1.0000
  S   S139      1.0  0.8967199286329322  0.9542462400450465  0.010456815640116801  1.0000
  S   S140      1.0  0.9153922748395623  0.904832590215557  0.02065668109128072  1.0000
  Fe  Fe71      1.0  0.8526259945245208  0.9320589866516573  0.010909151028439146  1.0000
  S   S141      1.0  0.8293348617209916  0.935907245477846  0.07234404686672005  1.0000
  Fe  Fe72      1.0  0.8960884221510652  0.9641615290090021  0.931130661341628  1.0000
  S   S142      1.0  0.9252201982008875  0.49889921671139026  0.026724991864524688  1.0000
  S   S143      1.0  0.8475373963053673  0.8946272762270455  0.9892834841410161  1.0000
  S   S144      1.0  0.8938777431092152  0.9290489757473802  0.9029731846692314  1.0000
  Fe  Fe73      1.0  0.5998566691545323  0.6277793448010708  0.9115679716527116  1.0000
  S   S145      1.0  0.5609999158530894  0.6177528354793091  0.8848813795845839  1.0000
  S   S146      1.0  0.6186594956889818  0.6071967512810373  0.8827322607345467  1.0000
  Fe  Fe74      1.0  0.6040745588916945  0.6681493142382472  0.9809973143340106  1.0000
  S   S147      1.0  0.5649396973538074  0.6604814763781373  0.9621900931090734  1.0000
  S   S148      1.0  0.6333583342364757  0.6979911862000143  0.031639660399899086  1.0000
  Fe  Fe75      1.0  0.5509231519811539  0.6182030500717836  0.96459342448337  1.0000
  S   S149      1.0  0.5144683542042504  0.5841253588392038  0.0029007139309009666  1.0000
  Fe  Fe76      1.0  0.5785776720811467  0.6609213099379363  0.8840801776528581  1.0000
  S   S150      1.0  0.5719084908426837  0.6844537995633514  0.8292855234560536  1.0000
  S   S151      1.0  0.5888055442626575  0.6257586516881225  0.9913976117482249  1.0000
  S   S152      1.0  0.6186354776100692  0.6710934213138772  0.9026871201056011  1.0000
  Fe  Fe77      1.0  0.5856699919886756  0.9274916246008085  0.02123970952004534  1.0000
  S   S153      1.0  0.5696985454992293  0.9101048427059328  0.9487195448125375  1.0000
  S   S154      1.0  0.5791139872791611  0.8982058198546234  0.08170553102973359  1.0000
  Fe  Fe78      1.0  0.604706878504136  0.9822330254384558  0.9835511793890326  1.0000
  S   S155      1.0  0.5908985090103557  0.9691524889333165  0.9083483232550281  1.0000
  S   S156      1.0  0.6104246240696145  0.5145120486072827  0.008110273160401915  1.0000
  Fe  Fe79      1.0  0.554277662378693  0.9359113614052681  0.9467673631533828  1.0000
  S   S157      1.0  0.5171544324062055  0.9237112439813141  0.9077950929537594  1.0000
  Fe  Fe80      1.0  0.6073392966497635  0.944568213194017  0.9156387394402246  1.0000
  S   S158      1.0  0.6301101470489868  0.9442753883474735  0.8485432017296906  1.0000
  S   S159      1.0  0.5667456091144643  0.9505088254708748  0.022539433635070865  1.0000
  S   S160      1.0  0.6247413396508898  0.9604518971760364  0.9879865618628135  1.0000
  C   C181      1.0  0.6160792863380252  0.5814577581082571  0.918187794311492  1.0000
  C   C182      1.0  0.6092784802237722  0.5778362643485971  0.9687216265882717  1.0000
  C   C183      1.0  0.6078689817883148  0.5574322541274304  0.9961493188975201  1.0000
  C   C184      1.0  0.6127355279569534  0.5401961412288392  0.9730376876594946  1.0000
  C   C185      1.0  0.6194127864755818  0.5437436856508211  0.9224971967224979  1.0000
  C   C186      1.0  0.6212946806838073  0.5644371996706564  0.8952923303853054  1.0000
  H   H121      1.0  0.6050533074399252  0.5906531008695358  0.9867235879447344  1.0000
  H   H122      1.0  0.6026278585839473  0.5547527696360877  0.03522148040467998  1.0000
  H   H123      1.0  0.6237022613887278  0.5309003616633826  0.9044483805423639  1.0000
  H   H124      1.0  0.6267767284477  0.5672157626621244  0.8562840118542583  1.0000
  C   C187      1.0  0.4918503903042914  0.5619197737844085  0.962437492393465  1.0000
  C   C188      1.0  0.47680978889840214  0.5353907599614293  0.9764976190948618  1.0000
  C   C189      1.0  0.9763193867153087  0.5393587936828231  0.007087578613587332  1.0000
  C   C190      1.0  0.9512097853133908  0.5239532410412034  0.9886816213656141  1.0000
  C   C191      1.0  0.9467700029587519  0.5299627168508774  0.941689213882275  1.0000
  C   C192      1.0  0.9670818845012393  0.5519594728800271  0.9141552968629375  1.0000
  H   H125      1.0  0.4798653747248913  0.5288187108095388  0.01128355689489391  1.0000
  H   H126      1.0  0.9798437490418732  0.534729084036709  0.043387714560167386  1.0000
  H   H127      1.0  0.9273888301033276  0.5182640209182057  0.927378292708253  1.0000
  H   H128      1.0  0.9632738505848913  0.5570295567896316  0.8785395534388197  1.0000
  C   C193      1.0  0.9442729012865893  0.9121713627598866  0.987463369644452  1.0000
  C   C194      1.0  0.9640690449546799  0.9119543662232541  0.012009786215938734  1.0000
  C   C195      1.0  0.9870933068653162  0.9175311398572752  0.9859042893615636  1.0000
  C   C196      1.0  0.9902040885770367  0.9229644191080354  0.9349959808367493  1.0000
  C   C197      1.0  0.9704161478044455  0.9231673421740547  0.9105451381989793  1.0000
  C   C198      1.0  0.947631999017997  0.9179704264232292  0.9367136726073882  1.0000
  H   H129      1.0  0.9615659478679626  0.9073361229486857  0.051213082296391196  1.0000
  H   H130      1.0  0.5145197632660146  0.9394192867554927  0.006308333707427227  1.0000
  H   H131      1.0  0.9726132787613845  0.9271192594462336  0.8711127857051322  1.0000
  H   H132      1.0  0.932360785334554  0.9176825341737934  0.9172393919381125  1.0000
  C   C199      1.0  0.6244473248816269  0.9147463976307351  0.8283815202073083  1.0000
  C   C200      1.0  0.6370783875190605  0.9150484727575755  0.7841332597068102  1.0000
  C   C201      1.0  0.6335994010492411  0.8920180853410302  0.7673073986366666  1.0000
  C   C202      1.0  0.6173277991107605  0.8685060746408354  0.7945064712348866  1.0000
  C   C203      1.0  0.6043457565200097  0.8680954529086251  0.8384764632943096  1.0000
  C   C204      1.0  0.6081057459794663  0.8912431847447664  0.8557032724092948  1.0000
  H   H133      1.0  0.6496422091348635  0.9331756667402036  0.7627423580800615  1.0000
  H   H134      1.0  0.6432090927633473  0.8924060905674955  0.7328827524893226  1.0000
  H   H135      1.0  0.5916099757907374  0.8498774334830625  0.859451904107265  1.0000
  H   H136      1.0  0.5984536098195868  0.8908925570929908  0.8900834312190258  1.0000
  C   C205      1.0  0.7614135978326926  0.8966291102472028  0.7969980548316983  1.0000
  C   C206      1.0  0.7775432733111967  0.9117557312971337  0.8343183658935638  1.0000
  C   C207      1.0  0.7959231525496425  0.9072057604027444  0.853082810754516  1.0000
  C   C208      1.0  0.7988922168968846  0.8880368259031237  0.8337163715662562  1.0000
  C   C209      1.0  0.7826971565662209  0.8728504614506006  0.7964079909973192  1.0000
  C   C210      1.0  0.7638067579012395  0.8769599619073887  0.7783638991416095  1.0000
  H   H137      1.0  0.7756385785894558  0.9268304191708142  0.8492334235122936  1.0000
  H   H138      1.0  0.8075967979281619  0.9184192210916541  0.882761790541638  1.0000
  H   H139      1.0  0.7848030090742492  0.8579004897012183  0.78136441490053  1.0000
  H   H140      1.0  0.7514219451481686  0.8651898428563526  0.7495529206165136  1.0000
  C   C211      1.0  0.6435829341384626  0.7515180390500743  0.741035615192315  1.0000
  C   C212      1.0  0.643726495595442  0.7298748302351129  0.7577236064765585  1.0000
  C   C213      1.0  0.6217714522002076  0.7091120087616528  0.7847449807650111  1.0000
  C   C214      1.0  0.5994028646647463  0.709715167060524  0.7942666775473968  1.0000
  C   C215      1.0  0.5990889960426274  0.7311366693069796  0.7766974411471512  1.0000
  C   C216      1.0  0.6212154251268879  0.7521225892765645  0.7505153138865175  1.0000
  H   H141      1.0  0.6609388437058807  0.7292651300914532  0.7501576463901344  1.0000
  H   H142      1.0  0.6219950549254212  0.6924721558546847  0.7975389529539261  1.0000
  H   H143      1.0  0.5817766289681946  0.7316339759749838  0.7838611783923517  1.0000
  H   H144      1.0  0.6208958061000717  0.768704183381396  0.7376209965776451  1.0000
  C   C217      1.0  0.6477661387098975  0.9003540018050028  0.15126965696923172  1.0000
  C   C218      1.0  0.6217281854607716  0.8798854546717247  0.16303621158565362  1.0000
  C   C219      1.0  0.6008956994769897  0.8799370664832542  0.142515461016508  1.0000
  C   C220      1.0  0.6059158065421992  0.9000281908247737  0.10900673339654528  1.0000
  C   C221      1.0  0.6319495792823632  0.9204327225604062  0.0970194887136657  1.0000
  C   C222      1.0  0.6527968065043993  0.9207543460535238  0.11864118975685814  1.0000
  H   H145      1.0  0.6175716176941345  0.8642344172613542  0.18855387131223733  1.0000
  H   H146      1.0  0.5807725437049721  0.8642762365316885  0.15239948982861706  1.0000
  H   H147      1.0  0.636035804202892  0.9361385749251713  0.07163940962713747  1.0000
  H   H148      1.0  0.6728954170558371  0.9368034197233152  0.1098210860135089  1.0000
  C   C223      1.0  0.75811216106134  0.8618905676367444  0.14654421149004812  1.0000
  C   C224      1.0  0.7631495599333932  0.8863396638003787  0.15718603799596365  1.0000
  C   C225      1.0  0.7849056415808539  0.9089865573619258  0.13381714047566784  1.0000
  C   C226      1.0  0.8011988378238656  0.9072104140949997  0.09874124756532365  1.0000
  C   C227      1.0  0.7954349329626129  0.8826626536498484  0.08678087065705577  1.0000
  C   C228      1.0  0.7742861288685652  0.8600992440252747  0.11130481845723302  1.0000
  H   H149      1.0  0.750727533058921  0.8878461316155317  0.18438747490892182  1.0000
  H   H150      1.0  0.7891663924350709  0.9279165905851441  0.14308183747538084  1.0000
  H   H151      1.0  0.8073153287157994  0.8810040022675597  0.0589656592183124  1.0000
  H   H152      1.0  0.7702184688336987  0.8411814856031066  0.10257180446724729  1.0000
  C   C229      1.0  0.6536796069023768  0.8279602572872111  0.41227222112566203  1.0000
  C   C230      1.0  0.679370598920777  0.8500978501810785  0.40994881155536145  1.0000
  C   C231      1.0  0.6905430656594596  0.8634054169366968  0.45295114295419087  1.0000
  C   C232      1.0  0.6763397250122983  0.8544607077144973  0.49872362306436047  1.0000
  C   C233      1.0  0.6506642578150322  0.8322664544519797  0.5010575247282062  1.0000
  C   C234      1.0  0.6394167602695296  0.8190919880650405  0.4579813010606667  1.0000
  H   H153      1.0  0.6906753242856837  0.8569076548138734  0.37510016257973894  1.0000
  H   H154      1.0  0.7104434298914974  0.8805627699456183  0.4508677896301307  1.0000
  H   H155      1.0  0.6393331585938886  0.8254792261788446  0.5358901213010827  1.0000
  H   H156      1.0  0.6194463136636642  0.8020512674968429  0.4599827589445829  1.0000
  C   C235      1.0  0.6160307023203323  0.7549838668562258  0.09981624417357797  1.0000
  C   C236      1.0  0.5974852134804032  0.7351667350204764  0.0708956521268354  1.0000
  C   C237      1.0  0.6023285871578885  0.717225990355167  0.050788066517148504  1.0000
  C   C238      1.0  0.6258587257355112  0.7191055284497613  0.05912844494683379  1.0000
  C   C239      1.0  0.6444476440847349  0.7389991583630692  0.08791259008928229  1.0000
  C   C240      1.0  0.6395858356864308  0.756916924268746  0.10812485601069101  1.0000
  H   H157      1.0  0.5791570466761315  0.7334581494688157  0.06456439990366677  1.0000
  H   H158      1.0  0.5877436439565895  0.701905107666138  0.02910268903315106  1.0000
  H   H159      1.0  0.6627616659056228  0.7407141602390733  0.09445644511660013  1.0000
  H   H160      1.0  0.6541084232952011  0.7722325623115144  0.13013050260461234  1.0000
  N   N1        1.0  0.38161281282370046  0.9036944856470989  0.14480768230479502  1.0000
  C   C241      1.0  0.3628738444073366  0.9107134333965337  0.16056207277965417  1.0000
  C   C242      1.0  0.4086653062222881  0.9273359137900233  0.1414408196753767  1.0000
  C   C243      1.0  0.37489039744163966  0.8921261209342097  0.0961048132589577  1.0000
  C   C244      1.0  0.38001803675919427  0.8845624183065552  0.1810108740642622  1.0000
  H   H161      1.0  0.34221129414505114  0.8933529702257773  0.16324949053583704  1.0000
  H   H162      1.0  0.3633373377342057  0.9249065112466779  0.13370127334630721  1.0000
  H   H163      1.0  0.36736791486120224  0.9196600847877663  0.19702178963464267  1.0000
  H   H164      1.0  0.4232563341707392  0.9229019792902172  0.12819814409119035  1.0000
  H   H165      1.0  0.4104321119667288  0.942284646729791  0.11479303485845715  1.0000
  H   H166      1.0  0.4146576679221724  0.9364278324024802  0.17760833172796264  1.0000
  H   H167      1.0  0.3886852603859579  0.886715333308607  0.0827147674765758  1.0000
  H   H168      1.0  0.3761187058167042  0.9061169989265901  0.06800296598145872  1.0000
  H   H169      1.0  0.3544236903792417  0.8745103139748875  0.09678549242540457  1.0000
  H   H170      1.0  0.3939749343278224  0.8789253885303607  0.1701442047309547  1.0000
  H   H171      1.0  0.35984770715507275  0.8664570476615676  0.1841441707004432  1.0000
  H   H172      1.0  0.3848790554362975  0.8925837187770083  0.21827927345988862  1.0000
  N   N2        1.0  0.27064013814376753  0.3560108360680224  0.2013522401468975  1.0000
  C   C245      1.0  0.2880948505863771  0.384539159745452  0.19195536479594555  1.0000
  C   C246      1.0  0.25384445849837584  0.3441967263041306  0.15922340885271555  1.0000
  C   C247      1.0  0.2537672238047173  0.35032806615271117  0.2464668383551828  1.0000
  C   C248      1.0  0.2867445793417517  0.345018960561577  0.20765998739513195  1.0000
  H   H173      1.0  0.3014745856161503  0.39408078830093546  0.22249396801706592  1.0000
  H   H174      1.0  0.27648622220054847  0.3934665457275963  0.18833911953391028  1.0000
  H   H175      1.0  0.3005243999808491  0.38963138475153886  0.1571908394619595  1.0000
  H   H176      1.0  0.24086863358091556  0.3225961645654403  0.16415508726138386  1.0000
  H   H177      1.0  0.24075054769000948  0.3513626148392686  0.15480515508307346  1.0000
  H   H178      1.0  0.2657418057955479  0.3490083990886877  0.12388813589368199  1.0000
  H   H179      1.0  0.23993129495650925  0.32899337593037364  0.2545254121916206  1.0000
  H   H180      1.0  0.24153547779254853  0.35857518320928283  0.2427360802025321  1.0000
  H   H181      1.0  0.26557216373596754  0.35886087583261417  0.2793274367916049  1.0000
  H   H182      1.0  0.27412739550240145  0.3235064304447185  0.21481607783175993  1.0000
  H   H183      1.0  0.29966587631005387  0.35351115948038386  0.23919772583679352  1.0000
  H   H184      1.0  0.2996296007168729  0.34900101737324457  0.17406025204392575  1.0000
  N   N3        1.0  0.6486377671214671  0.7568128478675487  0.9141546178433014  1.0000
  C   C249      1.0  0.6211171200066831  0.7346491951169709  0.9244648058365843  1.0000
  C   C250      1.0  0.6642800441151474  0.7471249438536757  0.8933201793380814  1.0000
  C   C251      1.0  0.6599213413410177  0.7697707169722804  0.9603884727984965  1.0000
  C   C252      1.0  0.6492358379429821  0.775591863752058  0.8783938657497573  1.0000
  H   H185      1.0  0.6087626323901049  0.7409602146555654  0.941545670106379  1.0000
  H   H186      1.0  0.6200120982570952  0.7196881458141211  0.9499589188466766  1.0000
  H   H187      1.0  0.6117816022182317  0.7247832516270292  0.8902720308564338  1.0000
  H   H188      1.0  0.6851234239780907  0.7633309137565485  0.8845910971917605  1.0000
  H   H189      1.0  0.6642306033806794  0.7328980639248732  0.9194407007191088  1.0000
  H   H190      1.0  0.6561781286699891  0.7370490828621988  0.8586421710797926  1.0000
  H   H191      1.0  0.6803040411180701  0.7872635992379745  0.9537174870439599  1.0000
  H   H192      1.0  0.6609379247764506  0.7564295292876677  0.9870851731907501  1.0000
  H   H193      1.0  0.6478111362900892  0.7760392059478137  0.9788360151185782  1.0000
  H   H194      1.0  0.6375228395626732  0.7832182173406315  0.8927205073662791  1.0000
  H   H195      1.0  0.6408634997274351  0.7663288110384043  0.8431915376183966  1.0000
  H   H196      1.0  0.6697142303591389  0.7924887145788498  0.8692170007147779  1.0000
  N   N4        1.0  0.8593224699574894  0.882044965053522  0.1387343853997316  1.0000
  C   C253      1.0  0.8819761305349765  0.8827903937082205  0.15884137786068542  1.0000
  C   C254      1.0  0.8389824251921232  0.874845051726299  0.17851128012511364  1.0000
  C   C255      1.0  0.8480712385864372  0.8626063571828463  0.10038667524245115  1.0000
  C   C256      1.0  0.8683565111473056  0.9080353855657759  0.11692590576700446  1.0000
  H   H197      1.0  0.8912496868217528  0.8975329506724831  0.18734610173170885  1.0000
  H   H198      1.0  0.897492944837527  0.8880175956853112  0.12925375502866077  1.0000
  H   H199      1.0  0.8759634389936601  0.8635466860158085  0.17582588928189224  1.0000
  H   H200      1.0  0.8218587760806446  0.874592988648554  0.16439597801201788  1.0000
  H   H201      1.0  0.8313185333952477  0.8551410525298742  0.19538612669432776  1.0000
  H   H202      1.0  0.8468368687256314  0.88901038112307  0.2082274662472008  1.0000
  H   H203      1.0  0.8415957075156889  0.8428586088413175  0.11525966103779339  1.0000
  H   H204      1.0  0.8627511395040938  0.8678348628569674  0.06918243954326098  1.0000
  H   H205      1.0  0.8306493722043837  0.8611634987117549  0.08492200096339797  1.0000
  H   H206      1.0  0.852011976385389  0.9080730129070003  0.1000733303324024  1.0000
  H   H207      1.0  0.884147778792423  0.9143513494854368  0.08761060633100626  1.0000
  H   H208      1.0  0.8763132488090947  0.9231544021209674  0.14489112152259698  1.0000
  N   N5        1.0  0.023263771260981336  0.4944476222489043  0.9819889559355316  1.0000
  C   C257      1.0  0.04056828273102786  0.48813675347813673  0.9555707475479287  1.0000
  C   C258      1.0  0.998614133835013  0.48374075084433205  0.9560979627394594  1.0000
  C   C259      1.0  0.03678933456296174  0.5230258553243687  0.9836361732328741  1.0000
  C   C260      1.0  0.017104878759057307  0.48288624764583626  0.03277427351935412  1.0000
  H   H209      1.0  0.05922049504680027  0.49567358937867384  0.9744175360917215  1.0000
  H   H210      1.0  0.04596121916922624  0.4966866847189263  0.9171668331015517  1.0000
  H   H211      1.0  0.030945044401281763  0.4667118284044128  0.9535250244574947  1.0000
  H   H212      1.0  0.9881076333650013  0.46227203953407386  0.953723340543056  1.0000
  H   H213      1.0  0.9848515431839563  0.48775992556176506  0.9753843422872577  1.0000
  H   H214      1.0  0.0025435068204215927  0.4921800799741384  0.9177621425978217  1.0000
  H   H215      1.0  0.024200986030292304  0.5284670078743239  0.003019100471337799  1.0000
  H   H216      1.0  0.041955123955662366  0.5324208672660212  0.9459177172185711  1.0000
  H   H217      1.0  0.05540768098049731  0.5317249063679712  0.003221100241627806  1.0000
  H   H218      1.0  0.03530488737377535  0.4905776692317638  0.05331228590938261  1.0000
  H   H219      1.0  0.007191345867626042  0.46137087105060914  0.03291670552949272  1.0000
  H   H220      1.0  0.003807502034154364  0.48691688732763394  0.05375622512896227  1.0000
  N   N6        1.0  0.6452925047679557  0.8881919718480957  0.34047667316024627  1.0000
  C   C261      1.0  0.6668608904504707  0.8854311666423346  0.32339457886960565  1.0000
  C   C262      1.0  0.6561348708330613  0.915828458757149  0.3497205383555301  1.0000
  C   C263      1.0  0.6324566161572799  0.871995903014956  0.3863840175118326  1.0000
  C   C264      1.0  0.6258597410575378  0.8794493891754724  0.30208866700499215  1.0000
  H   H221      1.0  0.682395896444238  0.892563105386636  0.3505876969938062  1.0000
  H   H222      1.0  0.6764392972000434  0.8965458211439687  0.287739985496589  1.0000
  H   H223      1.0  0.659333711595027  0.8646413072266228  0.31787259746208085  1.0000
  H   H224      1.0  0.6403639712234462  0.9187250822034584  0.3622420111958597  1.0000
  H   H225      1.0  0.6708628232591897  0.9230147729410367  0.37856316645459354  1.0000
  H   H226      1.0  0.6661776170010534  0.9284507320013259  0.3156696610327634  1.0000
  H   H227      1.0  0.6162705633457043  0.8738019567287875  0.4009578601556563  1.0000
  H   H228      1.0  0.6467889964530168  0.877585068008912  0.4156864489815808  1.0000
  H   H229      1.0  0.623835747447449  0.8509666192071581  0.3802312059919068  1.0000
  H   H230      1.0  0.6092691881667601  0.8813319579533193  0.31337367683809625  1.0000
  H   H231      1.0  0.6173730461662931  0.8586673257549806  0.2941437596913142  1.0000
  H   H232      1.0  0.6351025940516835  0.8911428558536816  0.2668170290293685  1.0000
  N   N7        1.0  0.5974454040878819  0.82771975091589  0.0395367421949205  1.0000
  C   C265      1.0  0.5803918332601423  0.8375404569394646  0.04888837197387655  1.0000
  C   C266      1.0  0.610355437365535  0.8368456838653286  0.9896496053267732  1.0000
  C   C267      1.0  0.5812992653855689  0.7989152819844926  0.043156289554273634  1.0000
  C   C268      1.0  0.6177525577333899  0.8375843755222137  0.07643949015146606  1.0000
  H   H233      1.0  0.570749214493105  0.8315524553517781  0.08661207552554798  1.0000
  H   H234      1.0  0.564553848011066  0.8301805754597923  0.022306855363782817  1.0000
  H   H235      1.0  0.59184021962019  0.8592136710067305  0.04548056126980146  1.0000
  H   H236      1.0  0.5955995953659732  0.8296542579299955  0.9608477261291996  1.0000
  H   H237      1.0  0.6225387058263699  0.8585268557844518  0.985777619636462  1.0000
  H   H238      1.0  0.623509890430644  0.8299204299079294  0.9814861078286885  1.0000
  H   H239      1.0  0.5653526637826507  0.7906664027150276  0.01672397585715935  1.0000
  H   H240      1.0  0.5719592181586565  0.7914120175691204  0.08091020952319794  1.0000
  H   H241      1.0  0.5934927570096671  0.7908366675698804  0.03551112866930672  1.0000
  H   H242      1.0  0.6308484019056181  0.8303671065142876  0.07072089375882311  1.0000
  H   H243      1.0  0.608709470732778  0.8309580404883794  0.11455087692028242  1.0000
  H   H244      1.0  0.6303630554766937  0.8592761442066559  0.07502873560282637  1.0000
  N   N8        1.0  0.7635621331868021  0.4051251233136273  0.9987831068807642  1.0000
  C   C269      1.0  0.760052696825282  0.3795609183646737  0.9931826067795188  1.0000
  C   C270      1.0  0.7764423185402265  0.4215404167670209  0.9531276061206879  1.0000
  C   C271      1.0  0.7801898031054519  0.4180808000967534  0.04062716608943795  1.0000
  C   C272      1.0  0.7375530490268039  0.4012357330515883  0.008357377231661856  1.0000
  H   H245      1.0  0.7508793753542707  0.3668546573807171  0.027323252730244052  1.0000
  H   H246      1.0  0.7792785154914966  0.3817595205669682  0.9853511155812372  1.0000
  H   H247      1.0  0.7472363625521203  0.369038931304012  0.9625047940121526  1.0000
  H   H248      1.0  0.7646940291481277  0.41215879640347874  0.9205157600621185  1.0000
  H   H249      1.0  0.7792010096648081  0.4409161094149126  0.9557327036220657  1.0000
  H   H250      1.0  0.7962835123904587  0.4250903705244011  0.9453439316829737  1.0000
  H   H251      1.0  0.7838801960367028  0.4377246987490343  0.04537460910815794  1.0000
  H   H252      1.0  0.7996595707576324  0.42052650493107396  0.03543789637293848  1.0000
  H   H253      1.0  0.7707412182103971  0.40650183291006997  0.07585350944645053  1.0000
  H   H254      1.0  0.7394580975129125  0.4200956280471176  0.013586052105869051  1.0000
  H   H255      1.0  0.7272970535505207  0.38867126889537806  0.04239737018183698  1.0000
  H   H256      1.0  0.7245356673089953  0.3916647522160358  0.9773443170320691  1.0000
  N   N9        1.0  0.053900340872524384  0.12599979478918957  0.13631894274207806  1.0000
  C   C273      1.0  0.04496601249516246  0.12381156903285502  0.18844348692349136  1.0000
  C   C274      1.0  0.04493638567189371  0.0998407229504368  0.11920015704175166  1.0000
  C   C275      1.0  0.08298420636025697  0.14288008577479258  0.1314543607815621  1.0000
  C   C276      1.0  0.04265354315669565  0.13746355544006816  0.10612451652631853  1.0000
  H   H257      1.0  0.05318553197670795  0.11537164248188041  0.2124242111068717  1.0000
  H   H258      1.0  0.02309441678526157  0.11112464757585191  0.19328566608822711  1.0000
  H   H259      1.0  0.05128331191041209  0.14325337750797645  0.20228926781172346  1.0000
  H   H260      1.0  0.051840488552388576  0.10092733969705642  0.08026944386006074  1.0000
  H   H261      1.0  0.05244697614282742  0.09022899390318119  0.14176631352648011  1.0000
  H   H262      1.0  0.023032420718388777  0.08686627760325316  0.12043280599194905  1.0000
  H   H263      1.0  0.09038489017365393  0.1458611828743521  0.09224591177585238  1.0000
  H   H264      1.0  0.09219502386380007  0.13436230508145613  0.15212512853990084  1.0000
  H   H265      1.0  0.09054217259778898  0.16250518949784015  0.1456913585557404  1.0000
  H   H266      1.0  0.04899468124165656  0.13937316875155797  0.06662615147355297  1.0000
  H   H267      1.0  0.04882311372488188  0.15717449619274773  0.11799774369115908  1.0000
  H   H268      1.0  0.0207214329812362  0.12498311856145533  0.10805565665155824  1.0000
  N   N10       1.0  0.6042804870524695  0.4603136851517317  0.14119307934633468  1.0000
  C   C277      1.0  0.5909240526873805  0.457645237910484  0.18944521726641836  1.0000
  C   C278      1.0  0.6265773170602539  0.457467181848193  0.14822901716221262  1.0000
  C   C279      1.0  0.6142124434327649  0.4862112769964582  0.11762920843743896  1.0000
  C   C280      1.0  0.5853588386349158  0.4398760902073489  0.10927329236062634  1.0000
  H   H269      1.0  0.6045795875754707  0.47281148170944803  0.21453025669983564  1.0000
  H   H270      1.0  0.5832506816540519  0.4382514666895306  0.20800050773178805  1.0000
  H   H271      1.0  0.5739219173827756  0.45957838169159454  0.18533475738420546  1.0000
  H   H272      1.0  0.6377761425223067  0.4605491776943002  0.11274270104405523  1.0000
  H   H273      1.0  0.6407310169890694  0.47185807872574126  0.17381475780116995  1.0000
  H   H274      1.0  0.6197304503801625  0.43762164104214074  0.16353241921967787  1.0000
  H   H275      1.0  0.6284618374967775  0.5022476244658812  0.14058031824470474  1.0000
  H   H276      1.0  0.5979044261561992  0.4889376389384263  0.11085183582856196  1.0000
  H   H277      1.0  0.6244543576684223  0.48881476462622475  0.08110171698869721  1.0000
  H   H278      1.0  0.5947189465638317  0.44143360104166146  0.07247106531648892  1.0000
  H   H279      1.0  0.5681955858257541  0.44129674347601794  0.10312643959368899  1.0000
  H   H280      1.0  0.5776147348829029  0.4199589375632437  0.12531373191288878  1.0000
  N   N11       1.0  0.6156185213397125  0.36791256558420177  0.9376806515027991  1.0000
  C   C281      1.0  0.632822755052977  0.36935902407655175  0.9763420905216608  1.0000
  C   C282      1.0  0.6197143267296008  0.3937434971557361  0.9293425370483849  1.0000
  C   C283      1.0  0.5877758433724405  0.3486219529580737  0.9535979507360535  1.0000
  C   C284      1.0  0.6220934347121332  0.3599598002126953  0.891349426211009  1.0000
  H   H281      1.0  0.6302035560333988  0.3501712105133823  0.9837411820328611  1.0000
  H   H282      1.0  0.6283546933601203  0.37526395547152097  0.011787309805705748  1.0000
  H   H283      1.0  0.6539552184288855  0.383867264926998  0.9656515053598529  1.0000
  H   H284      1.0  0.6147438872357186  0.40030941471358733  0.9632031781356647  1.0000
  H   H285      1.0  0.6404866808180492  0.4089344955668973  0.9172478504636846  1.0000
  H   H286      1.0  0.6070992164024888  0.39331734929797435  0.9003050071645903  1.0000
  H   H287      1.0  0.5742014932739172  0.3475825568609866  0.9258859767462783  1.0000
  H   H288      1.0  0.5823320194140906  0.3537604953568395  0.9889295331211165  1.0000
  H   H289      1.0  0.5837899853610196  0.32876461780761007  0.9593172554605172  1.0000
  H   H290      1.0  0.6089794375768668  0.3580738887875933  0.8618274684888577  1.0000
  H   H291      1.0  0.6198253536255502  0.3408053671619136  0.8962778717670654  1.0000
  H   H292      1.0  0.642696472666228  0.37451455756831137  0.8772741070442968  1.0000
  N   N12       1.0  0.6964257724044292  0.2769865478121152  0.8885662357052574  1.0000
  C   C285      1.0  0.7180659242736646  0.3017506557622961  0.9071890574972311  1.0000
  C   C286      1.0  0.6742561601582981  0.26379802300394384  0.9260305917815554  1.0000
  C   C287      1.0  0.7059200882940507  0.25992290566969256  0.8780151224490578  1.0000
  C   C288      1.0  0.6875378108041336  0.28254678329982946  0.8428847641406305  1.0000
  H   H293      1.0  0.7351286709435036  0.3119486676961644  0.8797648803232461  1.0000
  H   H294      1.0  0.7251498593066584  0.29850459181324007  0.9420638972578336  1.0000
  H   H295      1.0  0.7116902725449735  0.31530488653809857  0.9143264554917796  1.0000
  H   H296      1.0  0.6803430908383123  0.25943217323717516  0.961052196904712  1.0000
  H   H297      1.0  0.6663880331584652  0.2759737072719034  0.9346632375817889  1.0000
  H   H298      1.0  0.6577005427407767  0.24489299405044226  0.9132673112347524  1.0000
  H   H299      1.0  0.6899977384500579  0.24096220729204257  0.8642447440482085  1.0000
  H   H300      1.0  0.7129155614501773  0.255428989475804  0.9116381455051404  1.0000
  H   H301      1.0  0.7224362001789894  0.2690993087996487  0.8494432160271752  1.0000
  H   H302      1.0  0.6715016649665567  0.26442581712089785  0.8273721629480094  1.0000
  H   H303      1.0  0.7038218656340015  0.29272629191731664  0.8139019387348112  1.0000
  H   H304      1.0  0.6800358122318858  0.29522253057858755  0.8494058710220274  1.0000
  N   N13       1.0  0.6678733795161398  0.6544458098263648  0.025196723204142457  1.0000
  C   C289      1.0  0.6599048618654711  0.6577716242724597  0.9763731151840122  1.0000
  C   C290      1.0  0.6448633454718147  0.6422011390077438  0.06082266065899848  1.0000
  C   C291      1.0  0.6885073248341604  0.6802482253117476  0.042123141659349515  1.0000
  C   C292      1.0  0.6781260216243878  0.6375924929455387  0.021326102772036677  1.0000
  H   H305      1.0  0.6766097140897069  0.6665498592505972  0.9482334713084412  1.0000
  H   H306      1.0  0.6523720221367045  0.6706282943758298  0.9777657940913606  1.0000
  H   H307      1.0  0.6440742646210954  0.6387814715264226  0.9627460817224083  1.0000
  H   H308      1.0  0.6502729501028832  0.6399001497875341  0.09833717789707955  1.0000
  H   H309      1.0  0.6362646350197129  0.6541497693542315  0.06382714840847103  1.0000
  H   H310      1.0  0.6290031339902767  0.6225441787824046  0.04967703770079928  1.0000
  H   H311      1.0  0.6951398367833255  0.6785736059883636  0.07882229240781743  1.0000
  H   H312      1.0  0.6810909676378646  0.6932298004510093  0.04562403034505108  1.0000
  H   H313      1.0  0.7060668636215209  0.6902536018288484  0.015855338208217044  1.0000
  H   H314      1.0  0.6841251949727161  0.6343870954290249  0.05755099742811029  1.0000
  H   H315      1.0  0.6955597768083218  0.6462946289177344  0.9948377044622415  1.0000
  H   H316      1.0  0.6629857031735319  0.618097846370986  0.007943330940099358  1.0000
  N   N14       1.0  0.6474104332575894  0.38765769665741556  0.5854572459817278  1.0000
  C   C293      1.0  0.6290479438333055  0.3951874439308189  0.6008591396014161  1.0000
  C   C294      1.0  0.6596166784635062  0.3993862950565481  0.5359914683511894  1.0000
  C   C295      1.0  0.6328056771601637  0.3589907139785694  0.5840219621581564  1.0000
  C   C296      1.0  0.6682086970811548  0.3969531180892745  0.6211598870490369  1.0000
  H   H317      1.0  0.6197260250591821  0.38656280927978687  0.6382970633088799  1.0000
  H   H318      1.0  0.612927342985819  0.3883392117606468  0.5750344735730728  1.0000
  H   H319      1.0  0.639375659829603  0.4167070541263626  0.6025261662912509  1.0000
  H   H320      1.0  0.6735896356143173  0.39391455867304304  0.5238391453661457  1.0000
  H   H321      1.0  0.6445407592346415  0.3926392533392429  0.5079218281203971  1.0000
  H   H322      1.0  0.6708927564719598  0.42103108454628974  0.5355632827586881  1.0000
  H   H323      1.0  0.6461501318603553  0.35262026765011784  0.5730030429323124  1.0000
  H   H324      1.0  0.6171097894201483  0.3512688696886441  0.557098916375735  1.0000
  H   H325      1.0  0.6231588728908488  0.34945767418953283  0.6207163394937253  1.0000
  H   H326      1.0  0.6824780833267583  0.3916751444639327  0.6106962089254646  1.0000
  H   H327      1.0  0.659724514980226  0.3882868670041113  0.6588061877278576  1.0000
  H   H328      1.0  0.6795497854357322  0.41849380718996637  0.6235173282670595  1.0000
  N   N15       1.0  0.6834951815187463  0.7910372746662246  0.5515120215712863  1.0000
  C   C297      1.0  0.68797994782814  0.7999353568940273  0.4990349774367443  1.0000
  C   C298      1.0  0.6738861158879361  0.7631300630770111  0.5556562327781334  1.0000
  C   C299      1.0  0.6636267669811394  0.794719217517608  0.574995943749691  1.0000
  C   C300      1.0  0.7084137475965967  0.8064439736058777  0.5767310345655235  1.0000
  H   H329      1.0  0.7025868450353859  0.7971157641372391  0.4797854319270982  1.0000
  H   H330      1.0  0.6955844892234097  0.8210412477390037  0.4949884691212664  1.0000
  H   H331      1.0  0.6694316527769663  0.7892394325188715  0.4790663102456178  1.0000
  H   H332      1.0  0.6704004947563958  0.7560141856895717  0.5950418922321603  1.0000
  H   H333      1.0  0.6549389172229425  0.7509461112599314  0.5374776458415945  1.0000
  H   H334      1.0  0.6883404418910282  0.7595192672170605  0.5383120955784109  1.0000
  H   H335      1.0  0.6709051313738097  0.8157270617513407  0.5750807332367652  1.0000
  H   H336      1.0  0.6587939506657118  0.7870217988358369  0.6139539036584002  1.0000
  H   H337      1.0  0.6449231653597156  0.7845274347940578  0.5555523876672911  1.0000
  H   H338      1.0  0.7055557913617014  0.8005725937489249  0.6167018133210742  1.0000
  H   H339      1.0  0.7162707889829459  0.8276479870641871  0.5739570197328613  1.0000
  H   H340      1.0  0.723834846668938  0.8038895133232162  0.5605765899760924  1.0000
  N   N16       1.0  0.1508282055828964  0.25816190143127926  0.9407116041296503  1.0000
  C   C301      1.0  0.12534411028865225  0.23291764108184207  0.9385597992740995  1.0000
  C   C302      1.0  0.17181169810295424  0.25347808684831297  0.9489173170636814  1.0000
  C   C303      1.0  0.14933373342363776  0.27280322761855824  0.9817087454273709  1.0000
  C   C304      1.0  0.15678737877758456  0.2732977740881606  0.8936085614724188  1.0000
  H   H341      1.0  0.10895217243992307  0.23549727890959246  0.93176444222505  1.0000
  H   H342      1.0  0.12018502576343162  0.22095635290558865  0.9734250873153129  1.0000
  H   H343      1.0  0.1258550555126337  0.22132002277132806  0.9082641058847954  1.0000
  H   H344      1.0  0.19144281009201183  0.27209531027074735  0.9497351267775092  1.0000
  H   H345      1.0  0.16817323055288985  0.24248125886159105  0.9845562308518669  1.0000
  H   H346      1.0  0.17295080043648411  0.24178761062872658  0.919401915115173  1.0000
  H   H347      1.0  0.13374704206464058  0.27673788866900184  0.9766266823463983  1.0000
  H   H348      1.0  0.16834494325071744  0.29188176315001413  0.984921877911748  1.0000
  H   H349      1.0  0.14461453467018306  0.2617167060120845  0.017693356801526186  1.0000
  H   H350      1.0  0.14092175065734608  0.2764436303410143  0.8852984002851557  1.0000
  H   H351      1.0  0.1586226069672756  0.2629565253319612  0.8622063560352808  1.0000
  H   H352      1.0  0.17562740726255613  0.2927345296505062  0.8940773237779208  1.0000
  N   N17       1.0  0.14480012500534511  0.8908251002977672  0.5577525374760043  1.0000
  C   C305      1.0  0.12240437262587626  0.8639684486920466  0.5711977075863749  1.0000
  C   C306      1.0  0.16843388464421766  0.8958874163765081  0.5819835063244408  1.0000
  C   C307      1.0  0.13832770985122397  0.9094971889688722  0.5743819587885112  1.0000
  C   C308      1.0  0.15008170348617486  0.8939382184902642  0.5037513029857028  1.0000
  H   H353      1.0  0.12656172245288289  0.8493417978803219  0.5592940257599313  1.0000
  H   H354      1.0  0.10412457088600671  0.8594966305325151  0.5540182656097442  1.0000
  H   H355      1.0  0.11812976843670148  0.8608967419629134  0.6118241944607521  1.0000
  H   H356      1.0  0.18602757952242946  0.9156201744221244  0.5715328115848087  1.0000
  H   H357      1.0  0.16540570867655782  0.8946549210230904  0.6227266432400496  1.0000
  H   H358      1.0  0.17332950103490447  0.8815085950690704  0.5720836446049619  1.0000
  H   H359      1.0  0.15496112965409714  0.9299924756004342  0.5657418618343579  1.0000
  H   H360      1.0  0.1340697849549708  0.907372418471852  0.6150731030076009  1.0000
  H   H361      1.0  0.12063980202779803  0.9063766236925451  0.5567753037999177  1.0000
  H   H362      1.0  0.1666131014740541  0.9141002026440342  0.4923055080990686  1.0000
  H   H363      1.0  0.13247442174339025  0.8896064982664778  0.48404292949425054  1.0000
  H   H364      1.0  0.1557148773367016  0.8805624052013005  0.4904200862905136  1.0000
  N   N18       1.0  0.17445281172497046  0.652372044655276  0.8772687954491714  1.0000
  C   C309      1.0  0.18107632644854646  0.6741009330045785  0.9092601967676386  1.0000
  C   C310      1.0  0.15748848885170225  0.6273868530977095  0.9058168853023248  1.0000
  C   C311      1.0  0.19885990996916683  0.6547171443070519  0.859199565854673  1.0000
  C   C312      1.0  0.1602943256196288  0.6532478273933146  0.8349180845505931  1.0000
  H   H365      1.0  0.16297983544074157  0.672527997850516  0.9241483096528511  1.0000
  H   H366      1.0  0.19317817773850016  0.6933150028886078  0.8886600914247147  1.0000
  H   H367      1.0  0.1920420321351086  0.6742864399018579  0.9413403039440484  1.0000
  H   H368      1.0  0.15169738172287697  0.6103581110076717  0.88303674280424  1.0000
  H   H369      1.0  0.1673414413382464  0.6258997130184736  0.9382903383599089  1.0000
  H   H370      1.0  0.13909156414946502  0.6252503868870791  0.9203286899418612  1.0000
  H   H371      1.0  0.20996612304997278  0.6540608461812809  0.8902774760579454  1.0000
  H   H372      1.0  0.21211029398339654  0.6733934936608307  0.8374828754300383  1.0000
  H   H373      1.0  0.19445477700136723  0.638514591242039  0.835069347397604  1.0000
  H   H374      1.0  0.15492948513272675  0.6371404054096076  0.8099003095466214  1.0000
  H   H375      1.0  0.17230249604152578  0.6720655671838206  0.8129955215379793  1.0000
  H   H376      1.0  0.14174384417542027  0.6514701800223069  0.8472605507843826  1.0000
  N   N19       1.0  0.1406309641989747  0.38050451645752864  0.3327403339673382  1.0000
  C   C313      1.0  0.1328851616067246  0.3978394920264626  0.3131916635407228  1.0000
  C   C314      1.0  0.16320067780861192  0.38445685153194165  0.3022335116151355  1.0000
  C   C315      1.0  0.11818404579958353  0.3530874910973804  0.33115194867027925  1.0000
  C   C316      1.0  0.14825708910642965  0.38660423823776924  0.38417274858489875  1.0000
  H   H377      1.0  0.11589515161343633  0.3954388162570985  0.33524194516658923  1.0000
  H   H378      1.0  0.1269129424811688  0.39355437405780896  0.27441510416885917  1.0000
  H   H379      1.0  0.14940207662895277  0.4186927278807139  0.31323214217373624  1.0000
  H   H380      1.0  0.16928933471611507  0.3713252156072354  0.3151382000341282  1.0000
  H   H381      1.0  0.15821921237325998  0.38048991827103534  0.26307463828543737  1.0000
  H   H382      1.0  0.1806596981606392  0.40480860657134116  0.3031149568960487  1.0000
  H   H383      1.0  0.1120245390053829  0.3477965568704287  0.2927669520259315  1.0000
  H   H384      1.0  0.10072006215348406  0.34943022124403605  0.35346944471509684  1.0000
  H   H385      1.0  0.1232713808868604  0.3394168617204329  0.34557503867454714  1.0000
  H   H386      1.0  0.16502001384882647  0.40720263685297253  0.3868010916534848  1.0000
  H   H387      1.0  0.15454972134295852  0.3740560026068332  0.3996722990171584  1.0000
  H   H388      1.0  0.13160879278328896  0.3835077345028726  0.40850424071765407  1.0000
  N   N20       1.0  0.49976886274470783  0.022001919394199106  0.9698632269058279  1.0000
  C   C317      1.0  0.49684522257673225  0.015769130412679917  0.023407986606712564  1.0000
  C   C318      1.0  0.5153396585056724  0.012966173022543307  0.9458432841761724  1.0000
  C   C319      1.0  0.5134517910324079  0.05048222324234351  0.9609882800404347  1.0000
  C   C320      1.0  0.4734390905671411  0.008805532737388457  0.9494111147015242  1.0000
  H   H389      1.0  0.484907878219727  0.02202035632659409  0.04261893628158977  1.0000
  H   H390      1.0  0.5163623755380948  0.025794929993885125  0.04012363867562741  1.0000
  H   H391      1.0  0.4868169167790506  0.9944145614719512  0.031333128756770814  1.0000
  H   H392      1.0  0.5180524199366157  0.017442723242097797  0.9054156716035673  1.0000
  H   H393      1.0  0.5352808000243208  0.02245488103170998  0.960806261848344  1.0000
  H   H394      1.0  0.5055139356835491  0.9915037818830486  0.9517137721208917  1.0000
  H   H395      1.0  0.515425687384844  0.05592233914218648  0.9210241568262805  1.0000
  H   H396      1.0  0.5336100438065462  0.06104243977094281  0.9749677752736426  1.0000
  H   H397      1.0  0.5025632320937873  0.05802446946089427  0.9797033814646389  1.0000
  H   H398      1.0  0.47476405003998023  0.013617793134487206  0.9093065631306118  1.0000
  H   H399      1.0  0.4609292804112335  0.01464482037822639  0.9677997060845893  1.0000
  H   H400      1.0  0.46278219242216  0.9872502019403493  0.9543774319084701  1.0000
  N   N21       1.0  0.5558460464519296  0.15411467133851647  0.7663646886703249  1.0000
  C   C321      1.0  0.5716346012993886  0.1727179729047742  0.7246089745469535  1.0000
  C   C322      1.0  0.5318192699450902  0.13119231010826943  0.7480578218504722  1.0000
  C   C323      1.0  0.5483119993679196  0.16685815552908517  0.8024705578278802  1.0000
  C   C324      1.0  0.5715967166203456  0.14568262391571604  0.7903217670789272  1.0000
  H   H401      1.0  0.5901400787799892  0.18996055227344935  0.7369406826930349  1.0000
  H   H402      1.0  0.5607203320351677  0.18011776780205296  0.7063866880826015  1.0000
  H   H403      1.0  0.5773508413487204  0.1636877569336627  0.6962356948768844  1.0000
  H   H404      1.0  0.5367123330863773  0.12090198801293207  0.7211362420675315  1.0000
  H   H405      1.0  0.5193358253707272  0.11683029806402614  0.7787043858099608  1.0000
  H   H406      1.0  0.5194969102027478  0.13686324241053452  0.7297184078567219  1.0000
  H   H407      1.0  0.5362847513438589  0.15330502336972332  0.8344054127938861  1.0000
  H   H408      1.0  0.5364738465927512  0.17355871508406304  0.7857088402811493  1.0000
  H   H409      1.0  0.5659292689673026  0.1841418242254581  0.8172858114635035  1.0000
  H   H410      1.0  0.560179450199385  0.13139885954406758  0.8216247051362711  1.0000
  H   H411      1.0  0.5896529345287044  0.16240728859155643  0.8053419534103373  1.0000
  H   H412      1.0  0.5779512755053526  0.13628179400669527  0.7641163177166401  1.0000
  N   N22       1.0  0.866799191656937  0.9708587872780908  0.7822178456256267  1.0000
  C   C325      1.0  0.8724931039259732  0.9520451805690247  0.8021673074981258  1.0000
  C   C326      1.0  0.8909109113163922  0.9929958435856405  0.7566980080364729  1.0000
  C   C327      1.0  0.8582553472350157  0.9805596698741351  0.8229801522264811  1.0000
  C   C328      1.0  0.8455947636414485  0.9577903874416552  0.747310593777048  1.0000
  H   H413      1.0  0.8889373447791165  0.9613998635917284  0.8274571252384525  1.0000
  H   H414      1.0  0.8780831749347694  0.9435158303117223  0.7725077359442895  1.0000
  H   H415      1.0  0.8550837957938586  0.9356189018523837  0.8232939694943794  1.0000
  H   H416      1.0  0.898195887229294  0.9863689707279988  0.7262165091310013  1.0000
  H   H417      1.0  0.8874084588238278  0.007599250915118741  0.7408801243308658  1.0000
  H   H418      1.0  0.9071062744427651  0.0032436073980645855  0.7826006767800836  1.0000
  H   H419      1.0  0.8543838177087381  0.9952763824820463  0.8094509801094805  1.0000
  H   H420      1.0  0.8735627458793479  0.9899399574752856  0.8507081744659093  1.0000
  H   H421      1.0  0.8398514412947474  0.9644393947225222  0.8425690922012015  1.0000
  H   H422      1.0  0.8403938729600143  0.9712264366826137  0.7320322689192499  1.0000
  H   H423      1.0  0.8273215784308953  0.9406982035389277  0.7655638537386583  1.0000
  H   H424      1.0  0.8514375483339305  0.9503773614287547  0.7158957882912521  1.0000
  N   N23       1.0  0.1594421262607362  0.9048090554278572  0.022251274146219673  1.0000
  C   C329      1.0  0.16815087136174572  0.8951399256247131  0.06248667949347504  1.0000
  C   C330      1.0  0.148419954330753  0.919048187443397  0.04322509125906624  1.0000
  C   C331      1.0  0.13899832246423968  0.8825429734371925  0.9954008570862398  1.0000
  C   C332      1.0  0.18210010316271033  0.9225334119766967  0.9878131098345572  1.0000
  H   H425      1.0  0.17634038724041162  0.8840548812170907  0.048188585458225575  1.0000
  H   H426      1.0  0.1514959895565428  0.8818565411921339  0.08930189900648505  1.0000
  H   H427      1.0  0.18369261068141426  0.9113805542666237  0.08352980476142997  1.0000
  H   H428      1.0  0.1411606722692068  0.9261560343829731  0.013952508919875097  1.0000
  H   H429      1.0  0.13145477704022424  0.9063245297790693  0.0696262245604206  1.0000
  H   H430      1.0  0.1633419255189203  0.9361893504341166  0.06316444350735288  1.0000
  H   H431      1.0  0.12191801329367392  0.8684158526681875  0.020536834092750866  1.0000
  H   H432      1.0  0.1467727127141175  0.8717883399700674  0.9777124079772188  1.0000
  H   H433      1.0  0.13137397058637637  0.88910806056558  0.965788278675494  1.0000
  H   H434      1.0  0.1906354528314838  0.9123616565090789  0.9704613739506427  1.0000
  H   H435      1.0  0.19802468786861058  0.9394598813347483  0.006839059248495483  1.0000
  H   H436      1.0  0.17614816224553886  0.9304124253643019  0.9574721017815497  1.0000
  N   N24       1.0  0.11468368706342404  0.7520761391247219  0.9472011606560069  1.0000
  C   C333      1.0  0.11232050679585215  0.7645435922690539  0.9911587967799274  1.0000
  C   C334      1.0  0.12738911206520334  0.7381710766632226  0.9601234537585854  1.0000
  C   C335      1.0  0.130750656254082  0.7721542827534575  0.9076078785001054  1.0000
  C   C336      1.0  0.08816593176691485  0.733297356561218  0.9299230589968875  1.0000
  H   H437      1.0  0.09965253403827413  0.7497491288973799  0.021059895509448978  1.0000
  H   H438      1.0  0.1033724877033521  0.7757424292469285  0.982602999094107  1.0000
  H   H439      1.0  0.13183634980825878  0.7781827843645998  0.006412933621990691  1.0000
  H   H440      1.0  0.11563540785174288  0.7226957128013791  0.9895083244271478  1.0000
  H   H441      1.0  0.12954562183236526  0.7285812766151792  0.9278072211366118  1.0000
  H   H442      1.0  0.147360564376558  0.751609581156539  0.9737498639280542  1.0000
  H   H443      1.0  0.12158683452212223  0.7828127763676458  0.8962749365170964  1.0000
  H   H444      1.0  0.13293876435297183  0.7633083703021598  0.8740621537211571  1.0000
  H   H445      1.0  0.15089242216995122  0.7867333157208881  0.9192207955580675  1.0000
  H   H446      1.0  0.07798512200617723  0.7431029248905884  0.9197925805152779  1.0000
  H   H447      1.0  0.07556578209699111  0.717786914817106  0.9588888381458497  1.0000
  H   H448      1.0  0.08923227570963542  0.7235662944330086  0.8967076131413759  1.0000
  N   N25       1.0  0.8902833098452272  0.4172719985725293  0.7640704632010449  1.0000
  C   C337      1.0  0.9059974154278774  0.44220857933451707  0.7885255840483346  1.0000
  C   C338      1.0  0.907760185124265  0.4090137953805956  0.7466118528505941  1.0000
  C   C339      1.0  0.8775113622163278  0.4207260690944039  0.7220826428060656  1.0000
  C   C340      1.0  0.8698357389051958  0.39717068889962087  0.7994542679396552  1.0000
  H   H449      1.0  0.8933816848673795  0.44886950609051546  0.8028281918009403  1.0000
  H   H450      1.0  0.9215076431914306  0.4579336828038958  0.7628958465793195  1.0000
  H   H451      1.0  0.9160780992654967  0.44033239201722396  0.8201858772717981  1.0000
  H   H452      1.0  0.8966087752318642  0.39018508599565743  0.728122580886614  1.0000
  H   H453      1.0  0.9236009779805388  0.42379097217316053  0.7201046446760259  1.0000
  H   H454      1.0  0.9175376653078431  0.4062703366860581  0.777974111457832  1.0000
  H   H455      1.0  0.8653513767909087  0.4022634416521681  0.7028372536589267  1.0000
  H   H456      1.0  0.8923211128410262  0.43585409901912914  0.6946656156625457  1.0000
  H   H457      1.0  0.8642270728313887  0.42696870223784594  0.7347083399545138  1.0000
  H   H458      1.0  0.8575327768669728  0.3780748658281108  0.7823407673676819  1.0000
  H   H459      1.0  0.856380709497205  0.4028502763550393  0.8136543734417022  1.0000
  H   H460      1.0  0.8788043316655355  0.39405051732905455  0.8316411364551026  1.0000
  N   N26       1.0  0.25708154151904583  0.44122650404264785  0.774793321605294  1.0000
  C   C341      1.0  0.24693621746772704  0.44027791971578345  0.7257004043095697  1.0000
  C   C342      1.0  0.24627084949125924  0.45147343886002145  0.8099669379533315  1.0000
  C   C343      1.0  0.2861415983246358  0.45831672371626836  0.7712841899276485  1.0000
  C   C344      1.0  0.24896350862325264  0.4147645388842763  0.7921392164206502  1.0000
  H   H461      1.0  0.25453085148293375  0.43251655734666106  0.6981922088993642  1.0000
  H   H462      1.0  0.25268131669579424  0.4599086587710808  0.7115423272175294  1.0000
  H   H463      1.0  0.22510324402159324  0.4274520786312975  0.7266413271229427  1.0000
  H   H464      1.0  0.22430396980583442  0.4388562713718119  0.8128870351606784  1.0000
  H   H465      1.0  0.25330596737687755  0.4522480506125225  0.8475272812741883  1.0000
  H   H466      1.0  0.2519682540994514  0.4714319889414939  0.798199234613951  1.0000
  H   H467      1.0  0.294614460513551  0.45910229869359703  0.8073464331796987  1.0000
  H   H468      1.0  0.29307573758546634  0.47855257221260555  0.758821400395921  1.0000
  H   H469      1.0  0.2945760735762339  0.45104908859105436  0.744298198926094  1.0000
  H   H470      1.0  0.25600080092665456  0.4060578846539265  0.7657310086634221  1.0000
  H   H471      1.0  0.22716746783440053  0.40145285088550386  0.7964710101327505  1.0000
  H   H472      1.0  0.2569716196924916  0.41483553683924657  0.8283429590789209  1.0000
  N   N27       1.0  0.1299131942448503  0.9973842808538989  0.14009070147405275  1.0000
  C   C345      1.0  0.1501591570440479  0.016398080013630773  0.10298993800926609  1.0000
  C   C346      1.0  0.1326157730383695  0.9750597720362242  0.14700141830148847  1.0000
  C   C347      1.0  0.10344905203322118  0.9880500937286222  0.12304787652983148  1.0000
  C   C348      1.0  0.13336001351616214  0.010027748942401885  0.18736279880615056  1.0000
  H   H473      1.0  0.1485362120462101  0.03340046166547499  0.096475201327668  1.0000
  H   H474      1.0  0.14794863230579214  0.007570356138195608  0.06666234433675952  1.0000
  H   H475      1.0  0.17042075477366248  0.023867258715378904  0.11433985397621428  1.0000
  H   H476      1.0  0.13015135906148217  0.9650966470843878  0.11196317614893085  1.0000
  H   H477      1.0  0.15222901749352455  0.9812410241370703  0.1602674972016225  1.0000
  H   H478      1.0  0.11725320656656187  0.9600465637214541  0.17399099310702604  1.0000
  H   H479      1.0  0.08756634958892201  0.9734292151580474  0.14973317833854685  1.0000
  H   H480      1.0  0.10020839274445134  0.9783530367914307  0.08766382413040327  1.0000
  H   H481      1.0  0.10076155624001991  0.004364494797960453  0.11653307705924493  1.0000
  H   H482      1.0  0.11833632329856057  0.9961448963168115  0.21606972857484574  1.0000
  H   H483      1.0  0.13135811152218316  0.026909008249732948  0.18332632607917074  1.0000
  H   H484      1.0  0.15314079700577932  0.017346103555916276  0.20133239346059584  1.0000
  N   N28       1.0  0.3781186733355682  0.35185937464641454  0.8540907656087923  1.0000
  C   C349      1.0  0.3712508043190876  0.32489156270694963  0.8504671140051006  1.0000
  C   C350      1.0  0.3665135692941699  0.3540118550664237  0.9008303707847605  1.0000
  C   C351      1.0  0.3676133649148021  0.3585254415797367  0.8122691858654288  1.0000
  C   C352      1.0  0.4070720417333021  0.37005964308507544  0.8529805453516079  1.0000
  H   H485      1.0  0.34950640550818307  0.310705050597701  0.8515882417460605  1.0000
  H   H486      1.0  0.37901927658321016  0.3193514504353804  0.8814325611915242  1.0000
  H   H487      1.0  0.37957659993749476  0.3225099946968357  0.8154764669066629  1.0000
  H   H488      1.0  0.34460079981043124  0.3413010558723237  0.902453174029391  1.0000
  H   H489      1.0  0.37370503434025276  0.3488741679179826  0.9333725694214519  1.0000
  H   H490      1.0  0.371972440173292  0.37424765766916435  0.9051384967383795  1.0000
  H   H491      1.0  0.37226928388557556  0.37871599312239934  0.8140804162204094  1.0000
  H   H492      1.0  0.34574528891651063  0.34537948769561116  0.8122382307228642  1.0000
  H   H493      1.0  0.3759208241462718  0.35720058051697856  0.7762675898107566  1.0000
  H   H494      1.0  0.4167255482309764  0.36846907727965206  0.8190425429154137  1.0000
  H   H495      1.0  0.4155975467685465  0.3664349634714043  0.8853397998649086  1.0000
  H   H496      1.0  0.412822350751909  0.39060853185514566  0.8540341564353605  1.0000
  N   N29       1.0  0.9795500639909539  0.6183266036827384  0.01478920698859909  1.0000
  C   C353      1.0  0.9763178844741269  0.6221908262213004  0.9623239866924567  1.0000
  C   C354      1.0  0.0064367402271297  0.624584611244266  0.020715862469623314  1.0000
  C   C355      1.0  0.9601005784453808  0.590859158505625  0.031175508605554514  1.0000
  C   C356      1.0  0.9754696251653717  0.635681231543716  0.04485087835819779  1.0000
  H   H497      1.0  0.9563457672463112  0.6179146689322955  0.9563527564128873  1.0000
  H   H498      1.0  0.9790097406083295  0.6091081115921679  0.9387938762459577  1.0000
  H   H499      1.0  0.991090395679892  0.6425227461300645  0.9482699170023523  1.0000
  H   H500      1.0  0.010197515132100321  0.6120595359775642  0.9980111405506215  1.0000
  H   H501      1.0  0.02171358836826065  0.64521016999141  0.00906306664199441  1.0000
  H   H502      1.0  0.009676464250485628  0.6216208201153239  0.05966881250039968  1.0000
  H   H503      1.0  0.9624649349914322  0.5868955475916654  0.0701098263858948  1.0000
  H   H504      1.0  0.9622726132968457  0.5772638608929447  0.00839521242413066  1.0000
  H   H505      1.0  0.9395394130956859  0.585516759539334  0.028105300264091637  1.0000
  H   H506      1.0  0.9900111547096951  0.6565522304500355  0.033563086834935474  1.0000
  H   H507      1.0  0.9778569349420967  0.6332036545697548  0.08460280792718122  1.0000
  H   H508      1.0  0.9554015156246985  0.6316288534908246  0.041237176933832886  1.0000
  N   N30       1.0  0.5900977148691066  0.1452503198180962  0.16464840444308382  1.0000
  C   C357      1.0  0.564568306542401  0.1340506051644419  0.14179934140357386  1.0000
  C   C358      1.0  0.6034481996155692  0.132871312122254  0.1451749031880405  1.0000
  C   C359      1.0  0.5855297673679871  0.14037139315485495  0.2185970523728622  1.0000
  C   C360      1.0  0.6067100843317198  0.17366372977450292  0.1530120086339597  1.0000
  H   H509      1.0  0.5538434140626942  0.14289552788191173  0.15540891233389065  1.0000
  H   H510      1.0  0.5515925121091205  0.1125578592769025  0.14879560791880264  1.0000
  H   H511      1.0  0.567462434979252  0.13780630827385942  0.1013062642860576  1.0000
  H   H512      1.0  0.5912716377657324  0.11135632771619328  0.152698639846633  1.0000
  H   H513      1.0  0.6070569388990977  0.13601823287428547  0.10449253186358298  1.0000
  H   H514      1.0  0.6228150947505517  0.14076903972960553  0.16147301965827188  1.0000
  H   H515      1.0  0.6044017191986051  0.1485806652454711  0.23707812272551854  1.0000
  H   H516      1.0  0.5729577944187935  0.11911295790880928  0.22858920907331615  1.0000
  H   H517      1.0  0.5754398453372451  0.1494562832714155  0.23429458093015598  1.0000
  H   H518      1.0  0.6261502635256709  0.1829422057860364  0.16970507515674882  1.0000
  H   H519      1.0  0.596981026697713  0.18352243523919665  0.16651475249350112  1.0000
  H   H520      1.0  0.6104679954330364  0.1780995107151706  0.1125788587549037  1.0000
  N   N31       1.0  0.11018738725533761  0.36825084137939534  0.9661470014240605  1.0000
  C   C361      1.0  0.12234514372961436  0.39611928337305535  0.9527833016749666  1.0000
  C   C362      1.0  0.12742480715792714  0.3654116664453684  0.9989507890512012  1.0000
  C   C363      1.0  0.1067156353803238  0.3540261238077708  0.9208688568853169  1.0000
  C   C364      1.0  0.084235447965618  0.3576139428069994  0.991930690080446  1.0000
  H   H521      1.0  0.1097321981007402  0.39899484306038746  0.9285385049693374  1.0000
  H   H522      1.0  0.14193680012035914  0.4049358646757331  0.9331040504076716  1.0000
  H   H523      1.0  0.1252037394550567  0.4074760928923108  0.9858055248021395  1.0000
  H   H524      1.0  0.11887627722739791  0.3446314308717262  0.010090314714438  1.0000
  H   H525      1.0  0.14724718795335012  0.37343894439416014  0.9807828108365094  1.0000
  H   H526      1.0  0.13032137270481248  0.3760116317001902  0.03335035465004959  1.0000
  H   H527      1.0  0.09823953378725037  0.33301897189829444  0.9294012735088094  1.0000
  H   H528      1.0  0.12575235419530695  0.3622921184391473  0.8992330608889042  1.0000
  H   H529      1.0  0.09313512000622337  0.35527999611361727  0.8962333461080241  1.0000
  H   H530      1.0  0.07460285103312914  0.3366967301813602  0.00335090395112414  1.0000
  H   H531      1.0  0.07065843977259534  0.3592124037676694  0.9678832619483863  1.0000
  H   H532      1.0  0.08608314074494405  0.3683492446308371  0.02568163075254927  1.0000
  N   N32       1.0  0.01897037101138932  0.007845038521748308  0.9261694799253961  1.0000
  C   C365      1.0  0.9967165984936601  0.005066801542165737  0.8999907394386227  1.0000
  C   C366      1.0  0.03253962187021031  0.9987305421252205  0.89521313469406  1.0000
  C   C367      1.0  0.008878070911852998  0.991975726247731  0.9729556933612676  1.0000
  C   C368      1.0  0.037701141296581975  0.035545212428839824  0.9365793980925725  1.0000
  H   H533      1.0  0.0036013505805820856  0.016890915202918955  0.8646076988500219  1.0000
  H   H534      1.0  0.985976950902567  0.01166774705975845  0.9224608329886116  1.0000
  H   H535      1.0  0.9821766478256986  0.9843907615459593  0.8915341132514394  1.0000
  H   H536      1.0  0.04888808309104031  0.9997062341612084  0.9145271774065388  1.0000
  H   H537      1.0  0.018851673851553397  0.9780787030550473  0.8855893192217831  1.0000
  H   H538      1.0  0.04115999961993144  0.01072838946287464  0.8601870916830222  1.0000
  H   H539      1.0  0.025091866547668262  0.9932612699664006  0.9933319751158808  1.0000
  H   H540      1.0  0.9945365751311126  0.9710080356408507  0.9663223915211371  1.0000
  H   H541      1.0  0.9986227881623528  0.9983607563794502  0.9973975206922971  1.0000
  H   H542      1.0  0.054595109396925245  0.03832088625400296  0.9568720640643347  1.0000
  H   H543      1.0  0.028042645476759276  0.04328074494250745  0.9590443266588512  1.0000
  H   H544      1.0  0.0461087973215788  0.04804740599998682  0.9019700255474699  1.0000
  N   N33       1.0  0.3977245936800832  0.5215233284570762  0.017221794942652524  1.0000
  C   C369      1.0  0.4203807779159282  0.5481600527189242  0.003066485136899999  1.0000
  C   C370      1.0  0.4066031114819941  0.5080126751291866  0.0481557534892012  1.0000
  C   C371      1.0  0.3865598261347464  0.506961852147947  0.9723977862688709  1.0000
  C   C372      1.0  0.3772614826929673  0.522798283414171  0.04522034920264795  1.0000
  H   H545      1.0  0.41440898158349115  0.5590530296789831  0.9800508570773419  1.0000
  H   H546      1.0  0.43590617630110295  0.5477356565380364  0.9811033460297147  1.0000
  H   H547      1.0  0.4297375484692355  0.5596228020463455  0.03592322463149  1.0000
  H   H548      1.0  0.42230425986130665  0.5070076166259891  0.02842236363293793  1.0000
  H   H549      1.0  0.41479905673166934  0.5182426787140808  0.08268107472707942  1.0000
  H   H550      1.0  0.39007130537082185  0.48763675038360454  0.05863953332813909  1.0000
  H   H551      1.0  0.3690713922991365  0.4869577534567279  0.9816162836183185  1.0000
  H   H552      1.0  0.40119235012844345  0.5049619295309652  0.9511207769996258  1.0000
  H   H553      1.0  0.3803248200974175  0.5169085252922716  0.9473572959943474  1.0000
  H   H554      1.0  0.384958947984485  0.5337202691612338  0.07928832408257835  1.0000
  H   H555      1.0  0.3600011344803625  0.5028687107597676  0.05646397254271296  1.0000
  H   H556      1.0  0.36988224225259136  0.532618094054025  0.022822916804505322  1.0000
  N   N34       1.0  0.7015329787040838  0.9290454122400073  0.868317315166266  1.0000
  C   C373      1.0  0.6863386764778909  0.9056908722248785  0.839068759370422  1.0000
  C   C374      1.0  0.6885532500886724  0.9434921777294311  0.8692862352300071  1.0000
  C   C375      1.0  0.7285160027855773  0.9460241830105296  0.8457613441094037  1.0000
  C   C376      1.0  0.7027801186230479  0.9209832101130696  0.9191897763844517  1.0000
  H   H557      1.0  0.6858518911082139  0.9110841965639113  0.7999635972681443  1.0000
  H   H558      1.0  0.6655763547105988  0.892808214139347  0.8538421350797806  1.0000
  H   H559      1.0  0.695198471014275  0.8939505757982298  0.8386262411866832  1.0000
  H   H560      1.0  0.6996060127995293  0.9614412009793145  0.8904529960191946  1.0000
  H   H561      1.0  0.6868341356647046  0.9495246305409313  0.8314738185019224  1.0000
  H   H562      1.0  0.6682829848215117  0.9314314257647837  0.8867920105399922  1.0000
  H   H563      1.0  0.7403328506326231  0.9642658326078681  0.8657997020758377  1.0000
  H   H564      1.0  0.7282924658370326  0.9515364424519692  0.8065902941802375  1.0000
  H   H565      1.0  0.7391511825350576  0.9359965849807551  0.8460257968323867  1.0000
  H   H566      1.0  0.7141562528946824  0.9381456746919485  0.9422679018823086  1.0000
  H   H567      1.0  0.7125262064259802  0.9100563298052539  0.9197689991890515  1.0000
  H   H568      1.0  0.6827449456979227  0.9081711766647248  0.9373195569504937  1.0000
  N   N35       1.0  0.13507707918288112  0.25749285923556664  0.5886604104170752  1.0000
  C   C377      1.0  0.12535711766164542  0.26933299499352814  0.6222561712810647  1.0000
  C   C378      1.0  0.1635127686849422  0.2761814349679245  0.576611367651256  1.0000
  C   C379      1.0  0.12072605110223932  0.2510120434762119  0.5428694259016182  1.0000
  C   C380      1.0  0.13079376999633952  0.23363692525033963  0.6130355168006081  1.0000
  H   H569      1.0  0.10400240767710059  0.25576852515011034  0.6325129429425699  1.0000
  H   H570      1.0  0.1282682861168059  0.2874149652076318  0.6050916178711186  1.0000
  H   H571      1.0  0.13590171561994938  0.27458659201200186  0.657038378552431  1.0000
  H   H572      1.0  0.1714775213529709  0.2681404372479946  0.5505854400207434  1.0000
  H   H573      1.0  0.16755071206904412  0.29471902339932676  0.5593186548394191  1.0000
  H   H574      1.0  0.17500644036561702  0.2811351798459956  0.610247402880957  1.0000
  H   H575      1.0  0.09915681180009642  0.2371180175809281  0.5505502994251541  1.0000
  H   H576      1.0  0.12753852828160475  0.24203818695227355  0.5165311962626071  1.0000
  H   H577      1.0  0.12383507607385465  0.2688520717344478  0.5239121895259398  1.0000
  H   H578      1.0  0.137974285335931  0.2241599494020263  0.5889422439219434  1.0000
  H   H579      1.0  0.10956862396839159  0.2191570121360744  0.623135396180019  1.0000
  H   H580      1.0  0.14149422311391602  0.23814822229936455  0.6477589884373961  1.0000
  N   N36       1.0  0.25492474428632117  0.8658878197437837  0.9642440534830616  1.0000
  C   C381      1.0  0.24280942569617897  0.8568590534068418  0.9164758009169347  1.0000
  C   C382      1.0  0.26086276966408095  0.84743268470908  0.9852852946185495  1.0000
  C   C383      1.0  0.23661148416350378  0.8675902078447683  0.9985241469385383  1.0000
  C   C384      1.0  0.2796059086562381  0.891852795946073  0.9565961661426701  1.0000
  H   H581      1.0  0.2246132985236336  0.8369267396683648  0.9201144629108354  1.0000
  H   H582      1.0  0.2566244642296599  0.8566051844699456  0.8888835392254197  1.0000
  H   H583      1.0  0.23734399503332243  0.8699701443062438  0.9004830211305216  1.0000
  H   H584      1.0  0.27003046425564214  0.8537747043945576  0.021390960764770428  1.0000
  H   H585      1.0  0.24274980488311637  0.8275443006791661  0.9914581205810868  1.0000
  H   H586      1.0  0.27495632995750346  0.8460610699894968  0.960485812879827  1.0000
  H   H587      1.0  0.23188246634846746  0.8814877370245985  0.9837153703591911  1.0000
  H   H588      1.0  0.24530902977663685  0.8746176830469988  0.03473777282847479  1.0000
  H   H589      1.0  0.2178068621756728  0.8483067346059682  0.005546108067941757  1.0000
  H   H590      1.0  0.2892031058425206  0.8994053412655996  0.9917975956129016  1.0000
  H   H591      1.0  0.27605662611597875  0.9063496627698903  0.9403632167898812  1.0000
  H   H592      1.0  0.2940604789666234  0.8912420680127929  0.9314159413686739  1.0000
  N   N37       1.0  0.7477164180775496  0.35471503892227263  0.35438920729073087  1.0000
  C   C385      1.0  0.7216830510441715  0.33162714412897837  0.371280655785206  1.0000
  C   C386      1.0  0.7668644079378755  0.36063677862316657  0.39229960253300167  1.0000
  C   C387      1.0  0.7455745811193005  0.37730296146812653  0.3462452049015141  1.0000
  C   C388      1.0  0.7568204342814128  0.34939999418976475  0.3078198806312567  1.0000
  H   H593      1.0  0.7063465230999902  0.32733427719266356  0.3448135401550821  1.0000
  H   H594      1.0  0.7147673243579628  0.3345789593273188  0.4074131376905917  1.0000
  H   H595      1.0  0.7221953149941273  0.31389869486511  0.37569808610806765  1.0000
  H   H596      1.0  0.7866882291422089  0.3780202407839599  0.38072459485371474  1.0000
  H   H597      1.0  0.7605786604505795  0.3647706649436074  0.4279322993487626  1.0000
  H   H598      1.0  0.7689765712455154  0.3439989492317482  0.39939160661978823  1.0000
  H   H599      1.0  0.764564817329701  0.3948150105799517  0.3313993662573734  1.0000
  H   H600      1.0  0.7397161693498958  0.382532373106096  0.38090731114526816  1.0000
  H   H601      1.0  0.7306562650324723  0.3731837423385163  0.3189872803514568  1.0000
  H   H602      1.0  0.7429219103317766  0.3449884861664196  0.2783237348134233  1.0000
  H   H603      1.0  0.758781770483179  0.33253953283699905  0.3123266204543937  1.0000
  H   H604      1.0  0.7762393080800111  0.3665907120038178  0.2936339364977909  1.0000
  N   N38       1.0  0.5299538031122185  0.5162450252163937  0.9114169040789687  1.0000
  C   C389      1.0  0.514538842623271  0.5136040560269342  0.8684651075549384  1.0000
  C   C390      1.0  0.5437906093921773  0.5433355777374083  0.9274308376464568  1.0000
  C   C391      1.0  0.5494187376935242  0.5098394259953491  0.8976950889823603  1.0000
  C   C392      1.0  0.5120447745220272  0.4981732624405916  0.9521353583957902  1.0000
  H   H605      1.0  0.527485889176276  0.5269898038635469  0.8370770483031554  1.0000
  H   H606      1.0  0.49964945915211906  0.5183107236364412  0.877545291204425  1.0000
  H   H607      1.0  0.5037851799175584  0.4933881371735717  0.8554309658408338  1.0000
  H   H608      1.0  0.5580904261059741  0.5574944857039547  0.8981084397249814  1.0000
  H   H609      1.0  0.5297854747362245  0.5491044601043663  0.936793802658757  1.0000
  H   H610      1.0  0.5549507231762858  0.5458423926181984  0.9606799156783414  1.0000
  H   H611      1.0  0.5610113150563295  0.5110959786907996  0.9295666874805261  1.0000
  H   H612      1.0  0.5636868167744776  0.523407344213354  0.8677799342458876  1.0000
  H   H613      1.0  0.5396926691990924  0.4896607778337147  0.8845564140568908  1.0000
  H   H614      1.0  0.523015351772124  0.4998517896146518  0.9853017563896381  1.0000
  H   H615      1.0  0.5015645516457957  0.4775367444970152  0.9415193887175857  1.0000
  H   H616      1.0  0.4968518783639522  0.5021514389666021  0.9630368202201313  1.0000
  N   N39       1.0  0.15024541561383317  0.7718399050933571  0.3566178870332346  1.0000
  C   C393      1.0  0.17253511792609955  0.7982981843959274  0.36692241403125736  1.0000
  C   C394      1.0  0.15115289086251602  0.7524770804353321  0.38801121268215216  1.0000
  C   C395      1.0  0.15216232915409672  0.7669235716892213  0.30417944804925506  1.0000
  C   C396      1.0  0.12514793612824773  0.7697349535527466  0.3673050758556698  1.0000
  H   H617      1.0  0.17209362431684372  0.813406078767317  0.34464208978184874  1.0000
  H   H618      1.0  0.19183939104517075  0.8008783136155799  0.35818242444609577  1.0000
  H   H619      1.0  0.17195509229736783  0.8026357360150549  0.40634256742789665  1.0000
  H   H620      1.0  0.14954174917045907  0.7556155463831745  0.42782702637060277  1.0000
  H   H621      1.0  0.13474335140097193  0.7322532436273159  0.3809029703145168  1.0000
  H   H622      1.0  0.16995932205515385  0.7537343757335416  0.38109430238270336  1.0000
  H   H623      1.0  0.13558860820309773  0.7472533307811501  0.29458220525320933  1.0000
  H   H624      1.0  0.17086913478054708  0.7684477782417705  0.2942599203601071  1.0000
  H   H625      1.0  0.15164538570063735  0.7813217701184638  0.2796648868888153  1.0000
  H   H626      1.0  0.107855262083851  0.7496479457649663  0.36257174796465547  1.0000
  H   H627      1.0  0.12314397552528536  0.7829734392482388  0.3420914461708533  1.0000
  H   H628      1.0  0.12379961602355109  0.7752096246648437  0.40554862963387794  1.0000
  N   N40       1.0  0.5549261427728563  0.9148730399799455  0.7825018979839885  1.0000
  C   C397      1.0  0.5707956808438673  0.912444182291833  0.7433546286137906  1.0000
  C   C398      1.0  0.5526355636484772  0.89935628403878  0.826858896069801  1.0000
  C   C399      1.0  0.5283244517648399  0.9051975686880072  0.7657889944596429  1.0000
  C   C400      1.0  0.5680077833168017  0.9425319576947435  0.7944160783796057  1.0000
  H   H629      1.0  0.5729722223839893  0.9238882557995894  0.7092069456404797  1.0000
  H   H630      1.0  0.5617181451213868  0.891781503144662  0.7337991215447027  1.0000
  H   H631      1.0  0.5909917240510065  0.9197447155758327  0.7553138333743864  1.0000
  H   H632      1.0  0.5722775670467326  0.9067535329574319  0.8413648131526497  1.0000
  H   H633      1.0  0.540271874260908  0.9002263316143547  0.856842298485986  1.0000
  H   H634      1.0  0.5435802202932666  0.8784876220693666  0.8190988630652357  1.0000
  H   H635      1.0  0.5160735787032146  0.9069097896559328  0.7949877297351883  1.0000
  H   H636      1.0  0.5177693767576825  0.8843092331475908  0.7568568536076877  1.0000
  H   H637      1.0  0.529206195159667  0.9164930162937565  0.7324370669181449  1.0000
  H   H638      1.0  0.5566333803062141  0.9450358399617454  0.8241559024065307  1.0000
  H   H639      1.0  0.5700286679231072  0.954887658158001  0.7619130749721013  1.0000
  H   H640      1.0  0.588152734844762  0.9504721649697794  0.8072964518364997  1.0000
