data_image0
_chemical_formula_structural       FeS2FeS2FeSFeS3FeS2FeS2FeSFeS3FeS2FeS2FeSFeS3FeS2FeS2FeSFeS3FeS2FeS2FeSFeS3FeS2FeS2FeSFeS3FeS2FeS2FeSFeS3FeS2FeS2FeSFeS3FeS2FeS2FeSFeS3FeS2FeS2FeSFeS3FeS2FeS2FeSFeS3FeS2FeS2FeSFeS3C6H4C6H4C6H4C6H4C6H4C6H4C6H4C6H4C6H4C6H4C6H4C6H4C6H4C6H4C6H4C6H4C6H4C6H4C6H4C6H4C6H4C6H4C6H4C6H4FeS2FeS2FeSFeS3FeS2FeS2FeSFeS3FeS2FeS2FeSFeS3FeS2FeS2FeSFeS3FeS2FeS2FeSFeS3FeS2FeS2FeSFeS3FeS2FeS2FeSFeS3FeS2FeS2FeSFeS3FeS2FeS2FeSFeS3FeS2FeS2FeSFeS3FeS2FeS2FeSFeS3FeS2FeS2FeSFeS3C6H4C6H4C6H4C6H4C6H4C6H4C6H4C6H4C6H4C6H4C6H4C6H4C6H4C6H4C6H4C6H4C6H4C6H4C6H4C6H4C6H4C6H4C6H4C6H4NC4H12NC4H12NC4H12NC4H12NC4H12NC4H12NC4H12NC4H12NC4H12NC4H12NC4H12NC4H12NC4H12NC4H12NC4H12NC4H12NC4H12NC4H12NC4H12NC4H12NC4H12NC4H12NC4H12NC4H12NC4H12NC4H12NC4H12NC4H12NC4H12NC4H12NC4H12NC4H12NC4H12NC4H12NC4H12NC4H12NC4H12NC4H12NC4H12NC4H12NC4H12NC4H12NC4H12NC4H12NC4H12NC4H12NC4H12NC4H12
_chemical_formula_sum              "Fe96 S192 C480 H768 N48"
_cell_length_a       29.036336801129117
_cell_length_b       51.161582203050905
_cell_length_c       41.58729503335991
_cell_angle_alpha    89.89483306623623
_cell_angle_beta     89.84840973278612
_cell_angle_gamma    90.05883065733887

_space_group_name_H-M_alt    "P 1"
_space_group_IT_number       1

loop_
  _space_group_symop_operation_xyz
  'x, y, z'

loop_
  _atom_site_type_symbol
  _atom_site_label
  _atom_site_symmetry_multiplicity
  _atom_site_fract_x
  _atom_site_fract_y
  _atom_site_fract_z
  _atom_site_occupancy
  Fe  Fe1       1.0  0.031564966220338775  0.6138814685045508  0.3624844904675585  1.0000
  S   S1        1.0  0.9727585759444775  0.6085848202481171  0.3972611480837011  1.0000
  S   S2        1.0  0.0416681625912676  0.655308195310892  0.3450658933381382  1.0000
  Fe  Fe2       1.0  0.05620492314945702  0.5562166272279747  0.36312709590470094  1.0000
  S   S3        1.0  0.9997785797031796  0.5465947226708409  0.3977500548751757  1.0000
  S   S4        1.0  0.09339404478417196  0.5201852010487961  0.34609841806910246  1.0000
  Fe  Fe3       1.0  0.9564212755330592  0.5731722219407636  0.3679053284021222  1.0000
  S   S5        1.0  0.8865481069763207  0.560898957184794  0.3505605158226378  1.0000
  Fe  Fe4       1.0  0.021774395414541292  0.5826216480418066  0.4238851387833888  1.0000
  S   S6        1.0  0.024231106821803294  0.5785009512752186  0.47772066329662477  1.0000
  S   S7        1.0  0.011131754174511288  0.5803183778433336  0.33087624067586235  1.0000
  S   S8        1.0  0.0824081585593341  0.5904641645470898  0.3916851225132395  1.0000
  Fe  Fe5       1.0  0.07767546088521567  0.7647679208825732  0.15840696144090494  1.0000
  S   S9        1.0  0.024295828774302475  0.7609137221437757  0.12019704807636139  1.0000
  S   S10       1.0  0.10132467230059432  0.8049640933847936  0.1721883854666031  1.0000
  Fe  Fe6       1.0  0.07704058992203616  0.7070017328776391  0.17373860159426585  1.0000
  S   S11       1.0  0.02307861897261798  0.6979872928746719  0.13689506665483425  1.0000
  S   S12       1.0  0.10867995956783849  0.674098210294311  0.20205370824488436  1.0000
  Fe  Fe7       1.0  0.06298529602378289  0.7251942172093513  0.10503123695825979  1.0000
  S   S13       1.0  0.07492971269531004  0.720377833223083  0.051905689862024706  1.0000
  Fe  Fe8       1.0  0.9886620645195932  0.7342480434887168  0.1547013171998639  1.0000
  S   S14       1.0  0.911585318289949  0.7356775529382445  0.15740996262695103  1.0000
  S   S15       1.0  0.12040786845107117  0.7313569300591948  0.14032239319609102  1.0000
  S   S16       1.0  0.038830581332111036  0.740912581822268  0.19480243550775012  1.0000
  Fe  Fe9       1.0  0.9112119304155089  0.34187940761260266  0.17623361738390203  1.0000
  S   S17       1.0  0.930511295536947  0.3821601541303572  0.16003137634235584  1.0000
  S   S18       1.0  0.9630479521390034  0.31571917383044673  0.19956232072643748  1.0000
  Fe  Fe10      1.0  0.811272153003132  0.3479580734654364  0.15783247764277877  1.0000
  S   S19       1.0  0.821364790151798  0.3886655453256582  0.1389817231171991  1.0000
  S   S20       1.0  0.7407998783144433  0.33139917693606585  0.16684635419055419  1.0000
  Fe  Fe11      1.0  0.88653473828401  0.3728732222749252  0.11731847778841706  1.0000
  S   S21       1.0  0.9145281333029014  0.3851833700428124  0.06921612463712355  1.0000
  Fe  Fe12      1.0  0.8642846974305082  0.3944977802242581  0.18288769960833567  1.0000
  S   S22       1.0  0.8533057107273639  0.4302152535594894  0.21276457971569093  1.0000
  S   S23       1.0  0.8723571383622548  0.3312748652991765  0.1316215550024221  1.0000
  S   S24       1.0  0.8492671275789903  0.3550860451312516  0.2035930443982433  1.0000
  Fe  Fe13      1.0  0.8135333853382438  0.4073460059747723  0.3893013391671701  1.0000
  S   S25       1.0  0.7645851512648119  0.440214091080697  0.3797800671042273  1.0000
  S   S26       1.0  0.8735064186661242  0.3968472493611986  0.357698584276121  1.0000
  Fe  Fe14      1.0  0.766572464769367  0.391701599130593  0.45121689534587217  1.0000
  S   S27       1.0  0.713955396938909  0.4235624248207319  0.44750403971721175  1.0000
  S   S28       1.0  0.7590533754561293  0.3628706568379888  0.49172555898067954  1.0000
  Fe  Fe15      1.0  0.7096762185172882  0.41216770417759163  0.3955768455913747  1.0000
  S   S29       1.0  0.6442736204564579  0.41110690873470446  0.3664859918786554  1.0000
  Fe  Fe16      1.0  0.7728216133302589  0.44882794923908326  0.4320920520124998  1.0000
  S   S30       1.0  0.7801134745351201  0.48979279331994247  0.4505325110428674  1.0000
  S   S31       1.0  0.7578613648430823  0.37822956194464685  0.40023672578758285  1.0000
  S   S32       1.0  0.8264159434665697  0.4181547455722884  0.4407265679585897  1.0000
  Fe  Fe17      1.0  0.19769561411576592  0.3232642911877102  0.1244438371596809  1.0000
  S   S33       1.0  0.21167631881279433  0.3595048090833654  0.1531192883889764  1.0000
  S   S34       1.0  0.12901363311905065  0.31520368678590177  0.10189210732559625  1.0000
  Fe  Fe18      1.0  0.2968268351131208  0.3042510134528157  0.1278163159219317  1.0000
  S   S35       1.0  0.31974838433490993  0.33874895536600697  0.156726638280519  1.0000
  S   S36       1.0  0.34248387726192225  0.27177782622143715  0.10996553422273299  1.0000
  Fe  Fe19      1.0  0.2539177525306648  0.33278468824940566  0.1841348537810858  1.0000
  S   S37       1.0  0.2500175843146315  0.33213888471069825  0.23808255576173804  1.0000
  Fe  Fe20      1.0  0.2758342530328233  0.36224358486350966  0.12315513984839263  1.0000
  S   S38       1.0  0.3044849148256825  0.399388556243008  0.10244289521897086  1.0000
  S   S39       1.0  0.23433715570860147  0.29607905049244676  0.1579689745534957  1.0000
  S   S40       1.0  0.25842156962223134  0.3282358741475929  0.09171294457826941  1.0000
  Fe  Fe21      1.0  0.3119313399903802  0.45883033960397346  0.41157676483841105  1.0000
  S   S41       1.0  0.28076072314269046  0.4270405627149708  0.3816162718792573  1.0000
  S   S42       1.0  0.27877645194950385  0.49806538748523554  0.420327829391101  1.0000
  Fe  Fe22      1.0  0.39974228131375333  0.42786122166763896  0.4241304482911897  1.0000
  S   S43       1.0  0.37611154100225175  0.39353816223317567  0.39516790644057803  1.0000
  S   S44       1.0  0.46581478085416267  0.4263026395912237  0.45215411724832794  1.0000
  Fe  Fe23      1.0  0.35130153710386863  0.42360593739173985  0.36002999603265656  1.0000
  S   S45       1.0  0.3618140123050014  0.4221559714545172  0.30654151240086897  1.0000
  Fe  Fe24      1.0  0.30811416557658  0.4000709121525814  0.41955499613124425  1.0000
  S   S46       1.0  0.2695316035199378  0.36541098185529175  0.43902191032770943  1.0000
  S   S47       1.0  0.3807565291900288  0.4576810193103505  0.386953207590926  1.0000
  S   S48       1.0  0.33367574832319263  0.4321181272793033  0.4515882284346559  1.0000
  Fe  Fe25      1.0  0.5866831641005276  0.03309372092985541  0.4126060216701438  1.0000
  S   S49       1.0  0.5683336289816915  0.027283709062439154  0.4642579024182619  1.0000
  S   S50       1.0  0.6409134024170995  0.009104292799918756  0.3885741892546246  1.0000
  Fe  Fe26      1.0  0.5175517182765647  0.07657892479399853  0.4031817024500997  1.0000
  S   S51       1.0  0.49149576493465136  0.07411270717881235  0.45424973477741626  1.0000
  S   S52       1.0  0.48716946164337566  0.10226511450338194  0.364565046602581  1.0000
  Fe  Fe27      1.0  0.5667812076254701  0.07086014927508111  0.46679241101183205  1.0000
  S   S53       1.0  0.6075704724842501  0.09013754729534873  0.5061294872464753  1.0000
  Fe  Fe28      1.0  0.49554068358181674  0.030506503405707486  0.44713865140036924  1.0000
  S   S54       1.0  0.44957639753888257  0.9964369725186466  0.45866360091552427  1.0000
  S   S55       1.0  0.5923689575293087  0.07647050296198654  0.4162985045911323  1.0000
  S   S56       1.0  0.5143842126531228  0.03333518433314264  0.39505608095343464  1.0000
  Fe  Fe29      1.0  0.5537969299459414  0.20795590366649103  0.18644206841274863  1.0000
  S   S57       1.0  0.622630270978421  0.20599828605265763  0.2108306942909114  1.0000
  S   S58       1.0  0.5103132233518118  0.2428898188285237  0.19925017579325796  1.0000
  Fe  Fe30      1.0  0.5702033679190203  0.15819818613186598  0.14895423527589477  1.0000
  S   S59       1.0  0.640250645554717  0.15234999308727218  0.17014543992042896  1.0000
  S   S60       1.0  0.5462430623938708  0.12684977759208582  0.1146286245619165  1.0000
  Fe  Fe31      1.0  0.6071702971018128  0.16338753875588302  0.21693099264060556  1.0000
  S   S61       1.0  0.6311287817780905  0.14292824453389844  0.2619745271720762  1.0000
  Fe  Fe32      1.0  0.649540110616169  0.19532515704403156  0.16220275979512921  1.0000
  S   S62       1.0  0.7169694368295554  0.2103043472937274  0.14236461636910144  1.0000
  S   S63       1.0  0.5357527663214033  0.1659252464099189  0.19657622916222364  1.0000
  S   S64       1.0  0.5820405437269536  0.20056481518623584  0.13692323183518318  1.0000
  Fe  Fe33      1.0  0.7774052906648999  0.8495308320530873  0.229902018907931  1.0000
  S   S65       1.0  0.7747940734457516  0.8923247676880599  0.21845529716300607  1.0000
  S   S66       1.0  0.8488727968466488  0.8340182865685762  0.23754445756706025  1.0000
  Fe  Fe34      1.0  0.6733806199656105  0.8447972742056  0.23102044311042055  1.0000
  S   S67       1.0  0.6624875765855358  0.8872178667828331  0.22015781033623716  1.0000
  S   S68       1.0  0.6110676432962282  0.8191857987224648  0.2355765546772968  1.0000
  Fe  Fe35      1.0  0.7188248499785468  0.8814008042311702  0.1839907382028219  1.0000
  S   S69       1.0  0.7150444144860587  0.899289908891512  0.13458667417429587  1.0000
  Fe  Fe36      1.0  0.7193674764904332  0.8935558571903334  0.2556537908102763  1.0000
  S   S70       1.0  0.7177236944287876  0.9243697052282709  0.2938176202563971  1.0000
  S   S71       1.0  0.7260020539741738  0.8383124457160963  0.19220596126318132  1.0000
  S   S72       1.0  0.725484731707241  0.8514755554846178  0.2698073157962132  1.0000
  Fe  Fe37      1.0  0.7547824176467128  0.9114822765045887  0.48394145226114244  1.0000
  S   S73       1.0  0.7901293748015364  0.8775492050434637  0.4607832326589821  1.0000
  S   S74       1.0  0.6779316679187691  0.915333734970825  0.48158179767551973  1.0000
  Fe  Fe38      1.0  0.8430087512849712  0.9336610023699581  0.5107837215970087  1.0000
  S   S75       1.0  0.8864095305446023  0.9017878529656531  0.4896158232336957  1.0000
  S   S76       1.0  0.8787102406860641  0.9647062994270124  0.5390511464461997  1.0000
  Fe  Fe39      1.0  0.842882008497951  0.9072350312152371  0.4457305685029285  1.0000
  S   S77       1.0  0.874342344171722  0.9051085043374583  0.39633578507883094  1.0000
  Fe  Fe40      1.0  0.8300536557072066  0.8754745456038872  0.5067420348326735  1.0000
  S   S78       1.0  0.8453077404177733  0.837683859492171  0.5316465833073826  1.0000
  S   S79       1.0  0.8044413886713432  0.9417349512333375  0.4654474771666033  1.0000
  S   S80       1.0  0.7897512922693156  0.906859953218845  0.5315292224491723  1.0000
  Fe  Fe41      1.0  0.3264573283980784  0.846316033249174  0.23980456285550306  1.0000
  S   S81       1.0  0.2876603129366491  0.8831300933954086  0.22877290757499924  1.0000
  S   S82       1.0  0.3093959520938425  0.8086834950027348  0.21464176126887374  1.0000
  Fe  Fe42      1.0  0.39122115496784426  0.8735497127588931  0.2861756499978375  1.0000
  S   S83       1.0  0.3572340607973895  0.9123866822699386  0.2794054426906741  1.0000
  S   S84       1.0  0.4547796473368851  0.8738325897643953  0.3167392595803309  1.0000
  Fe  Fe43      1.0  0.29134311036600985  0.8896654478719265  0.2821054355644336  1.0000
  S   S85       1.0  0.2303881710809418  0.9058159707276977  0.308995948156648  1.0000
  Fe  Fe44      1.0  0.3572608644803736  0.901917516992591  0.22724333653070844  1.0000
  S   S86       1.0  0.3800245880271109  0.9305599506345738  0.1896163006262896  1.0000
  S   S87       1.0  0.3252639363755448  0.8512684558920058  0.29339376454410226  1.0000
  S   S88       1.0  0.3960847139286916  0.8646333958862875  0.2336240638392724  1.0000
  Fe  Fe45      1.0  0.21155951378101598  0.9820128702448497  0.5155535396403599  1.0000
  S   S89       1.0  0.23456693769609777  0.9427788752187365  0.5326388723579166  1.0000
  S   S90       1.0  0.2567483075191734  0.01688694144119718  0.5238994274542498  1.0000
  Fe  Fe46      1.0  0.12372392315476237  0.9607809027940206  0.4875329399884449  1.0000
  S   S91       1.0  0.13859937846075923  0.9193902963978271  0.5020810421047381  1.0000
  S   S92       1.0  0.06093147439916602  0.9687260112216302  0.4578667515750958  1.0000
  Fe  Fe47      1.0  0.1616113486693155  0.9371709609480955  0.548478403665374  1.0000
  S   S93       1.0  0.14682298978864555  0.9185731458150791  0.5964351601313738  1.0000
  Fe  Fe48      1.0  0.21007091791155125  0.9282811097171209  0.48501619993793943  1.0000
  S   S94       1.0  0.2532874496371312  0.8986711851758293  0.45936276752148264  1.0000
  S   S95       1.0  0.1401944186663873  0.978021396215182  0.5357591144111394  1.0000
  S   S96       1.0  0.19352653465911357  0.9681572077685362  0.4661042587333636  1.0000
  C   C1        1.0  0.3665687910766299  0.9186545132918731  0.15133628194585824  1.0000
  C   C2        1.0  0.2707907152064698  0.8832560519183288  0.5955777269418139  1.0000
  C   C3        1.0  0.22813869388090072  0.8932269195682875  0.5860389845487354  1.0000
  C   C4        1.0  0.19693649707204636  0.902440194982466  0.6089838421416646  1.0000
  C   C5        1.0  0.20729386758916338  0.9000498796785691  0.6417420762629359  1.0000
  C   C6        1.0  0.35457609796557515  0.892382292677263  0.1472115240713084  1.0000
  H   H1        1.0  0.2952485931923713  0.8768880934644504  0.577542218853746  1.0000
  H   H2        1.0  0.21946506067053045  0.8938547162974964  0.5607956661651978  1.0000
  H   H3        1.0  0.18317791377124124  0.9071033316468434  0.6596082326722482  1.0000
  H   H4        1.0  0.3537910200018423  0.8792700847565272  0.16762456237887013  1.0000
  C   C7        1.0  0.2341045581394057  0.9019120412332711  0.35081494520832324  1.0000
  C   C8        1.0  0.20373855246551445  0.9155415151179428  0.3709229262506436  1.0000
  C   C9        1.0  0.20839756563419543  0.9139387882907203  0.40445805187881967  1.0000
  C   C10       1.0  0.24343914919091209  0.8986721954795991  0.41786174226647216  1.0000
  C   C11       1.0  0.272765809030514  0.8843899292200338  0.3977902161210722  1.0000
  C   C12       1.0  0.2681133263685756  0.8860400673741388  0.36432767982516534  1.0000
  H   H5        1.0  0.17745287058526807  0.927892264474838  0.3605351353699581  1.0000
  H   H6        1.0  0.1854440739401536  0.9248606022465017  0.41986663136056024  1.0000
  H   H7        1.0  0.2997732414267702  0.8724921162769348  0.4081066001883775  1.0000
  H   H8        1.0  0.2913708392739674  0.8753135709140443  0.3490704958337512  1.0000
  C   C13       1.0  0.9284111235837184  0.9708508979732016  0.516400382694199  1.0000
  C   C14       1.0  0.9274016079114349  0.9665203625387792  0.4832754965009455  1.0000
  C   C15       1.0  0.9680081575123676  0.9673700836487512  0.46528530420390835  1.0000
  C   C16       1.0  0.010185993079585787  0.9716759930320598  0.4804640718094237  1.0000
  C   C17       1.0  0.011198710358042874  0.9769442337775718  0.5134915256101518  1.0000
  C   C18       1.0  0.9700931911968474  0.9769831714333052  0.5314131767576741  1.0000
  H   H9        1.0  0.895331920324892  0.9622201975245986  0.47138839653285425  1.0000
  H   H10       1.0  0.9665873449136232  0.963908145380449  0.43973357624547454  1.0000
  H   H11       1.0  0.0434949278495147  0.9810431299009732  0.5251805688096908  1.0000
  H   H12       1.0  0.9708079988500805  0.9808169332983241  0.5569576063062499  1.0000
  C   C19       1.0  0.5686995515911359  0.8333246551310839  0.2600761163236531  1.0000
  C   C20       1.0  0.5238693718479381  0.8232761728873141  0.25977500401816755  1.0000
  C   C21       1.0  0.4888675628781264  0.8356257224704622  0.2773593311039876  1.0000
  C   C22       1.0  0.49886195537002714  0.8576985395726103  0.29587377747039384  1.0000
  C   C23       1.0  0.5438901195476196  0.8675067717287803  0.2966423615079878  1.0000
  C   C24       1.0  0.578718346858294  0.8554338655984739  0.2785345313222224  1.0000
  H   H13       1.0  0.5160112521489263  0.8061777674068087  0.24551195566875542  1.0000
  H   H14       1.0  0.4541623320726201  0.8279051174716073  0.2768418010208058  1.0000
  H   H15       1.0  0.5514088726955922  0.8849307850140677  0.3103516551609542  1.0000
  H   H16       1.0  0.6130670967591891  0.8635035967724203  0.2782157248178283  1.0000
  C   C25       1.0  0.7460517271816514  0.8809520285186797  0.10626889932764039  1.0000
  C   C26       1.0  0.746923178096974  0.8536061192919545  0.10770563732484802  1.0000
  C   C27       1.0  0.7753276036377229  0.8393860421697  0.08669804782610015  1.0000
  C   C28       1.0  0.8563022144323637  0.8422840526305325  0.572590400263307  1.0000
  C   C29       1.0  0.8633914549559057  0.8673781360028053  0.5849900647111126  1.0000
  C   C30       1.0  0.7725342204153403  0.8939621716700883  0.0831307961682669  1.0000
  H   H17       1.0  0.7256061529877903  0.8433744847756378  0.12488731010787611  1.0000
  H   H18       1.0  0.7763654646585141  0.8182817288801689  0.08821532142602777  1.0000
  H   H19       1.0  0.8646964323783282  0.8840523450753275  0.5690282003972044  1.0000
  H   H20       1.0  0.7726977394873162  0.9150768866858946  0.0822549053574694  1.0000
  C   C31       1.0  0.7644360029678285  0.920678628444879  0.3202661943109348  1.0000
  C   C32       1.0  0.7982460419540409  0.9016745351526927  0.31492800088128364  1.0000
  C   C33       1.0  0.8327826432971334  0.8974119249072087  0.3379571869832197  1.0000
  C   C34       1.0  0.8329227864679082  0.9117030124712433  0.3666668010879929  1.0000
  C   C35       1.0  0.7995599147631101  0.9309716141902015  0.3716921253735628  1.0000
  C   C36       1.0  0.7659117280788164  0.9356943289578915  0.3482523145810715  1.0000
  H   H21       1.0  0.7976821156498071  0.8900793843810365  0.2932292351836745  1.0000
  H   H22       1.0  0.8585922387112443  0.8825348757871077  0.3338616357282204  1.0000
  H   H23       1.0  0.800166726871684  0.9425502767981319  0.3933759005939615  1.0000
  H   H24       1.0  0.7404773643344083  0.9507532022566985  0.35179771529464077  1.0000
  C   C37       1.0  0.6473206913682923  0.9799825546794518  0.4100945908465901  1.0000
  C   C38       1.0  0.6121010285002331  0.9707031036611862  0.43013959268479335  1.0000
  C   C39       1.0  0.6204963368788081  0.9497423758486144  0.45112113883211696  1.0000
  C   C40       1.0  0.6638370345139668  0.9378698725517831  0.45149048677348286  1.0000
  C   C41       1.0  0.6973452694280569  0.9456322911848987  0.4293007236176996  1.0000
  C   C42       1.0  0.6895138983294817  0.9670601665575422  0.409176358130019  1.0000
  H   H25       1.0  0.5786777444283926  0.9799770293017831  0.4300064751602868  1.0000
  H   H26       1.0  0.5940365162373732  0.9434766016884334  0.46783461483932903  1.0000
  H   H27       1.0  0.7296417240741673  0.9354226226722469  0.4279718819489622  1.0000
  H   H28       1.0  0.7168484564291616  0.9744150031074406  0.39398871364808  1.0000
  C   C43       1.0  0.39605888212268464  0.0031534412686682334  0.4761991817073273  1.0000
  C   C44       1.0  0.36309944656679716  0.9832166082848974  0.477251016403439  1.0000
  C   C45       1.0  0.3198271068683492  0.987788266225641  0.4909068784849898  1.0000
  C   C46       1.0  0.30978686729650234  0.012072957464667189  0.5045755608433562  1.0000
  C   C47       1.0  0.34292025257670206  0.03199967419828931  0.5038990339673766  1.0000
  C   C48       1.0  0.38598344090256775  0.027636109029783418  0.4893588654339978  1.0000
  H   H29       1.0  0.37097992477292546  0.9641822855535961  0.46745895852528596  1.0000
  H   H30       1.0  0.294470873188314  0.9723704653027866  0.491107518550064  1.0000
  H   H31       1.0  0.33524246803137225  0.05080053076436264  0.5145049981249903  1.0000
  H   H32       1.0  0.411481780628646  0.04305215419546293  0.4887295279288006  1.0000
  C   C49       1.0  0.5772950416129539  0.0944131962992083  0.5423108270164304  1.0000
  C   C50       1.0  0.5306707611852521  0.08785537326726978  0.5448197193411297  1.0000
  C   C51       1.0  0.5871311136495142  0.10498739063208107  0.061657471549352534  1.0000
  C   C52       1.0  0.5768125006579781  0.12813829095520646  0.07812416741726046  1.0000
  C   C53       1.0  0.5914864511081164  0.15209209449033836  0.06548961590293406  1.0000
  C   C54       1.0  0.5998517414579002  0.10572644064438896  0.5685470454986584  1.0000
  H   H33       1.0  0.5130874204845733  0.07895006942623084  0.5247480430665917  1.0000
  H   H34       1.0  0.5769956924786457  0.08632798865487822  0.07160007924429701  1.0000
  H   H35       1.0  0.5830532858006497  0.17006718689155115  0.07773390868381931  1.0000
  H   H36       1.0  0.6360886216349231  0.1104858294549178  0.566873211338911  1.0000
  C   C55       1.0  0.5262129270747632  0.11644386812746621  0.33715676156312024  1.0000
  C   C56       1.0  0.511344189269358  0.12312613559501218  0.30615788375250474  1.0000
  C   C57       1.0  0.5428854389246046  0.13252353396147964  0.28315850341662013  1.0000
  C   C58       1.0  0.589348069875446  0.13540039773329846  0.2912149572347941  1.0000
  C   C59       1.0  0.6038069234565245  0.1296480833198792  0.32252612342553033  1.0000
  C   C60       1.0  0.5723608419052019  0.1202093723458495  0.3454354832810349  1.0000
  H   H37       1.0  0.47558934971272154  0.12041425923846849  0.29968406253040797  1.0000
  H   H38       1.0  0.5314692561058267  0.1367838436428687  0.25901079945384825  1.0000
  H   H39       1.0  0.6396136564152781  0.13219844055292818  0.3289557552625413  1.0000
  H   H40       1.0  0.5838309442854975  0.11599624611380577  0.3695122010900836  1.0000
  C   C61       1.0  0.39170024574390166  0.2647399686291293  0.13287472199072814  1.0000
  C   C62       1.0  0.4135666919621042  0.24048972831928608  0.1293238583332726  1.0000
  C   C63       1.0  0.45119601239294554  0.23385035627862794  0.14887662488379352  1.0000
  C   C64       1.0  0.4670863370344284  0.2515565269701166  0.17189381133838902  1.0000
  C   C65       1.0  0.44635849698911456  0.27616877877878426  0.17455178129590163  1.0000
  C   C66       1.0  0.408675451426459  0.28274791609526817  0.15512592140995587  1.0000
  H   H41       1.0  0.40073022818213994  0.22656141444919373  0.11196227088594245  1.0000
  H   H42       1.0  0.46720568247770566  0.21484272775067836  0.14668740998292057  1.0000
  H   H43       1.0  0.45923514243649516  0.29003252384167666  0.19198207217857488  1.0000
  H   H44       1.0  0.39275671750797364  0.3016617789045617  0.15755660828889242  1.0000
  C   C67       1.0  0.28096371488924915  0.3573006920226258  0.25688112726441226  1.0000
  C   C68       1.0  0.30568884839226024  0.3755812112725963  0.23869590528099338  1.0000
  C   C69       1.0  0.3309839735054221  0.3952594699070087  0.25414324334053395  1.0000
  C   C70       1.0  0.3313625838253835  0.3968021059026923  0.2877679769219873  1.0000
  C   C71       1.0  0.3062952217109994  0.3786809177944666  0.30596579205300367  1.0000
  C   C72       1.0  0.2812534011344499  0.3588892541465369  0.29051250337264195  1.0000
  H   H45       1.0  0.3053722908213938  0.37459292944647765  0.21274364747771812  1.0000
  H   H46       1.0  0.3502979426398313  0.40927694380302326  0.2399974115903703  1.0000
  H   H47       1.0  0.3064088004767364  0.3797815945127483  0.33194737337481667  1.0000
  H   H48       1.0  0.262074553524042  0.34480892673062075  0.30466228364106923  1.0000
  C   C73       1.0  0.24498298489499507  0.3715807791649449  0.4767377404591179  1.0000
  C   C74       1.0  0.2459087004734288  0.3912209970160569  0.014956442262274328  1.0000
  C   C75       1.0  0.2534709983899196  0.3902464705357332  0.0482346337379953  1.0000
  C   C76       1.0  0.29199095218023635  0.4026089990863478  0.06143351977446465  1.0000
  C   C77       1.0  0.3223977065909725  0.4163565410925007  0.04141453387098127  1.0000
  C   C78       1.0  0.23748747922077634  0.3972162595662529  0.48707283091074816  1.0000
  H   H49       1.0  0.24044650416503396  0.3307976417124311  0.4892608868101612  1.0000
  H   H50       1.0  0.22965313762062697  0.37980914541580424  0.0636337518288499  1.0000
  H   H51       1.0  0.3520664667356266  0.4260697506605009  0.051619450662733886  1.0000
  H   H52       1.0  0.24361726595152808  0.4133922180410342  0.4708769396160178  1.0000
  C   C79       1.0  0.5938874273005974  0.41351147225592944  0.39000893242655527  1.0000
  C   C80       1.0  0.595699142098712  0.4101506688828865  0.42335819523101953  1.0000
  C   C81       1.0  0.5562355694449499  0.41408228528820423  0.4422483862855879  1.0000
  C   C82       1.0  0.514370685410272  0.42076363625648994  0.42781423871739055  1.0000
  C   C83       1.0  0.5120709261715629  0.4234374557055038  0.39435238507170495  1.0000
  C   C84       1.0  0.551869435094215  0.4199462124566915  0.37549726552392815  1.0000
  H   H53       1.0  0.6272467511516976  0.4039925204417726  0.4346165753757118  1.0000
  H   H54       1.0  0.5580088279367017  0.4115525792155954  0.4680496325053579  1.0000
  H   H55       1.0  0.4797559336126269  0.4284289927672944  0.38299977905440186  1.0000
  H   H56       1.0  0.5500767386344564  0.42237840087537365  0.34967748216661987  1.0000
  C   C85       1.0  0.7335159959422612  0.29813034309097236  0.15786256934587772  1.0000
  C   C86       1.0  0.7682426771093616  0.28387222738040885  0.14248337929429825  1.0000
  C   C87       1.0  0.7627608765838829  0.25692031522180725  0.13735833440682524  1.0000
  C   C88       1.0  0.7224959243547666  0.2442113066781923  0.14752469016169797  1.0000
  C   C89       1.0  0.6874626324680324  0.2585825202516166  0.1623212450164372  1.0000
  C   C90       1.0  0.6930156273203283  0.2854755043013921  0.16753175903416423  1.0000
  H   H57       1.0  0.7992268865939085  0.2935626851223149  0.13450771213545018  1.0000
  H   H58       1.0  0.7896883539717505  0.24591798200842918  0.12553643470732107  1.0000
  H   H59       1.0  0.6559533465500567  0.24903749210106718  0.16976701815218462  1.0000
  H   H60       1.0  0.6658696702491632  0.29642040130816316  0.1792352787907693  1.0000
  C   C91       1.0  0.00977056560755285  0.31265746450775483  0.17307229918318065  1.0000
  C   C92       1.0  0.0017636583271023465  0.31048252501977447  0.14006436498328093  1.0000
  C   C93       1.0  0.03886197452912987  0.3094792222419671  0.11854748765789161  1.0000
  C   C94       1.0  0.08405463464906146  0.31171516289398205  0.12980797751085987  1.0000
  C   C95       1.0  0.09224208206484244  0.3135413262009823  0.16288160225623474  1.0000
  C   C96       1.0  0.055040151064080334  0.3136526615115145  0.18456641755172834  1.0000
  H   H61       1.0  0.966954984145263  0.3094245105031537  0.13106779221976575  1.0000
  H   H62       1.0  0.03245038743454143  0.3076820770332961  0.09303549897744727  1.0000
  H   H63       1.0  0.12711733104744932  0.31533510263951364  0.17172351961714907  1.0000
  H   H64       1.0  0.061327379569957596  0.3154448161148871  0.2101070789048719  1.0000
  C   C97       1.0  0.8098938649527754  0.35236544982622514  0.5103482531735847  1.0000
  C   C98       1.0  0.8082904696338953  0.33017469239511343  0.5300303988892832  1.0000
  C   C99       1.0  0.8258732647430216  0.3804537170341475  0.047695297504703804  1.0000
  C   C100      1.0  0.8691931642377989  0.3917423389717454  0.042710477154276116  1.0000
  C   C101      1.0  0.8886157756887888  0.36024124485920783  0.5274171495725727  1.0000
  C   C102      1.0  0.850412094542906  0.36714377236302786  0.5085746751564935  1.0000
  H   H65       1.0  0.7771540289297246  0.31855638786811086  0.5312426230049403  1.0000
  H   H66       1.0  0.8199379857353075  0.36797432940262564  0.06832832925326564  1.0000
  H   H67       1.0  0.9099646090588751  0.4168706905644662  0.012261954456330494  1.0000
  H   H68       1.0  0.8517696099567881  0.38442346795817206  0.4936891699937279  1.0000
  C   C103      1.0  0.8681701798289315  0.40659905254125234  0.3175623605331149  1.0000
  C   C104      1.0  0.8396803165038939  0.4274862995935714  0.3090153168866143  1.0000
  C   C105      1.0  0.8365253622342953  0.4353836811686985  0.276850673125421  1.0000
  C   C106      1.0  0.8610648496657174  0.42197985776384117  0.25310547189919114  1.0000
  C   C107      1.0  0.8898447677323705  0.4012108639421304  0.26159651754652363  1.0000
  C   C108      1.0  0.8938200058365027  0.39373517827134524  0.29388962258263224  1.0000
  H   H69       1.0  0.8207647551744066  0.43793061485673834  0.32712024797103695  1.0000
  H   H70       1.0  0.8144261933721005  0.45154896561804186  0.2702662597552081  1.0000
  H   H71       1.0  0.9093990733868939  0.3910467379026489  0.24331039755304043  1.0000
  H   H72       1.0  0.916353409020679  0.3777578079057993  0.3004641855850616  1.0000
  C   C109      1.0  0.15934381863995217  0.8062644860177821  0.18321547076264807  1.0000
  C   C110      1.0  0.1732909271976596  0.823782743435324  0.20707411665388173  1.0000
  C   C111      1.0  0.21944832085287783  0.8246070680206876  0.21677533725124337  1.0000
  C   C112      1.0  0.2518576795408088  0.8082038387848153  0.20225534850836707  1.0000
  C   C113      1.0  0.23794075107657076  0.7907831481978229  0.17823334124253287  1.0000
  C   C114      1.0  0.19169742468897347  0.7898512099047724  0.1686598350077136  1.0000
  H   H73       1.0  0.1482721037289061  0.8364354638116731  0.21848480984531776  1.0000
  H   H74       1.0  0.2297089752529271  0.8376026538449486  0.2359367928508458  1.0000
  H   H75       1.0  0.26302978639336927  0.7781303051501723  0.16690913357230755  1.0000
  H   H76       1.0  0.18123663174832128  0.7766518938382911  0.14978325028815012  1.0000
  C   C115      1.0  0.893485849879385  0.7630388349795275  0.17935129886143336  1.0000
  C   C116      1.0  0.9258687942307714  0.7785010474716497  0.1952275419957225  1.0000
  C   C117      1.0  0.9115134925052196  0.7998214338881136  0.2136862676847576  1.0000
  C   C118      1.0  0.8648127614233533  0.8063332051591066  0.21551798365743818  1.0000
  C   C119      1.0  0.832312540139444  0.7912622845738789  0.19905544549572662  1.0000
  C   C120      1.0  0.846651671294239  0.7694370778694909  0.18117499782134094  1.0000
  H   H77       1.0  0.9620396085875006  0.7740443711787349  0.19355535391912926  1.0000
  H   H78       1.0  0.936758077714112  0.8114526754943352  0.2263754302601209  1.0000
  H   H79       1.0  0.7961540266394107  0.7961277062271623  0.2005441815768644  1.0000
  H   H80       1.0  0.8214329182983231  0.7575409364493741  0.1688622567567881  1.0000
  C   C121      1.0  0.14424885804338716  0.5141103049649723  0.3674151527790116  1.0000
  C   C122      1.0  0.1575703311753777  0.48830130607996686  0.3737273618370099  1.0000
  C   C123      1.0  0.19874109658020891  0.4831718366728463  0.39015530912567414  1.0000
  C   C124      1.0  0.22703777186312357  0.5038288199341947  0.39981881037827083  1.0000
  C   C125      1.0  0.21369202816674482  0.5296153733572034  0.39345876658985446  1.0000
  C   C126      1.0  0.17230081102490932  0.534768478428558  0.3773362962011482  1.0000
  H   H81       1.0  0.13579791718160575  0.4722670739830445  0.36620714304635293  1.0000
  H   H82       1.0  0.20815246322299163  0.463270283784979  0.39577242920860234  1.0000
  H   H83       1.0  0.23570289322389035  0.5456354822667508  0.40068362135591096  1.0000
  H   H84       1.0  0.16254819304013662  0.5547075043080639  0.3720030625917941  1.0000
  C   C127      1.0  0.8570310998540341  0.541459586630245  0.37862404318873294  1.0000
  C   C128      1.0  0.8211937952831562  0.5252591419523093  0.36821276507037787  1.0000
  C   C129      1.0  0.7978911787822877  0.5091320856762044  0.3901866937673823  1.0000
  C   C130      1.0  0.8097465104891246  0.5095509626489705  0.42277270121012817  1.0000
  C   C131      1.0  0.8452424649932505  0.5259917924509923  0.43325387697541223  1.0000
  C   C132      1.0  0.869341643213549  0.5416654732354231  0.41112243599412185  1.0000
  H   H85       1.0  0.8116081491814147  0.5251049302832312  0.34308307630411833  1.0000
  H   H86       1.0  0.7700828558356954  0.4968746456509616  0.3819459012733255  1.0000
  H   H87       1.0  0.8544435823563268  0.5264149524635221  0.4584493290687221  1.0000
  H   H88       1.0  0.8968509346739386  0.5542575796142035  0.4193227443768126  1.0000
  C   C133      1.0  0.055578545492730225  0.6020632587389392  0.4989481150159598  1.0000
  C   C134      1.0  0.056542750994564184  0.6006941578281549  0.5325445944371694  1.0000
  C   C135      1.0  0.06856125827953763  0.685910260916734  0.002037417317890533  1.0000
  C   C136      1.0  0.057425108472815456  0.6908204038024324  0.034266393921414506  1.0000
  C   C137      1.0  0.03406889773675714  0.6717671138361478  0.052116473616837584  1.0000
  C   C138      1.0  0.07822071947966543  0.6225052098610618  0.48306674353699425  1.0000
  H   H89       1.0  0.039455051990414436  0.5847422555191513  0.5448918775244815  1.0000
  H   H90       1.0  0.08618142122375794  0.7006908808501193  0.9879773140340904  1.0000
  H   H91       1.0  0.02486084535141231  0.6753825519144713  0.07675777588126645  1.0000
  H   H92       1.0  0.07762093219351386  0.623655161839569  0.45708256328018915  1.0000
  C   C139      1.0  0.059867488954853165  0.6600259769881969  0.3051989121702108  1.0000
  C   C140      1.0  0.07938746342942204  0.6396892649609832  0.287401576333185  1.0000
  C   C141      1.0  0.09454992811233821  0.6442542154303367  0.2557728457680085  1.0000
  C   C142      1.0  0.08911901282159329  0.6689299706655855  0.24158358551096282  1.0000
  C   C143      1.0  0.06891111166921937  0.6891438878481833  0.2592281076876927  1.0000
  C   C144      1.0  0.05493001372498485  0.6847841915293242  0.29111722337106594  1.0000
  H   H93       1.0  0.08352897812339843  0.6205805422498087  0.2982067148805864  1.0000
  H   H94       1.0  0.11026454548469272  0.628553333853077  0.24223316896768246  1.0000
  H   H95       1.0  0.06477872355731629  0.7082500931589569  0.24864135881170585  1.0000
  H   H96       1.0  0.03999807691149049  0.7005699135371449  0.30493999585090714  1.0000
  Fe  Fe49      1.0  0.11194681622792235  0.6163072858101176  0.8840655617412149  1.0000
  S   S97       1.0  0.04439898386232222  0.5978129561906333  0.897103578323907  1.0000
  S   S98       1.0  0.11274726368781685  0.6498690687356706  0.8492498143372453  1.0000
  Fe  Fe50      1.0  0.16607147206225265  0.5830244745284234  0.9306801576752408  1.0000
  S   S99       1.0  0.10341564470549058  0.5615673071379162  0.947608814664916  1.0000
  S   S100      1.0  0.23177630965391208  0.572639307890424  0.9557922754216001  1.0000
  Fe  Fe51      1.0  0.0841345084660523  0.560198963002935  0.8956751293622531  1.0000
  S   S101      1.0  0.05979515439488958  0.5228722481999459  0.8727311346514403  1.0000
  Fe  Fe52      1.0  0.06985150382386252  0.6009758311524518  0.9477820245463614  1.0000
  S   S102      1.0  0.02600547716405277  0.6110961614785331  0.9905338162209246  1.0000
  S   S103      1.0  0.1499449522637823  0.5784220430245013  0.8782722583821966  1.0000
  S   S104      1.0  0.13436592581584889  0.6226966725398626  0.9350497940750123  1.0000
  Fe  Fe53      1.0  0.08146684727608615  0.7122233270445563  0.6603971686524691  1.0000
  S   S105      1.0  0.049922493957450964  0.7112742834684417  0.6114148462116747  1.0000
  S   S106      1.0  0.10026455317017707  0.7512656232960939  0.6817307105967311  1.0000
  Fe  Fe54      1.0  0.06434844337502921  0.6545574585803442  0.6716668718561639  1.0000
  S   S107      1.0  0.030838712924789347  0.6487043731393508  0.6235537375363068  1.0000
  S   S108      1.0  0.07323228236183077  0.6201099563125189  0.7048462804639436  1.0000
  Fe  Fe55      1.0  0.08842744996702301  0.6737024841568865  0.6048827236819797  1.0000
  S   S109      1.0  0.12265563072220273  0.6673853446510495  0.5568033057237484  1.0000
  Fe  Fe56      1.0  0.9952727588130552  0.686477033518889  0.6339952077545093  1.0000
  S   S110      1.0  0.9224642838734596  0.6945392748087211  0.6190385655537021  1.0000
  S   S111      1.0  0.12533280071097397  0.6766719539074204  0.6522214590492625  1.0000
  S   S112      1.0  0.023377504224132428  0.6903621553598386  0.6837958148051441  1.0000
  Fe  Fe57      1.0  0.9397295498863253  0.28708748658406213  0.6811136655773488  1.0000
  S   S113      1.0  0.9209149693511621  0.3278723343898277  0.6665003764156785  1.0000
  S   S114      1.0  0.0029738290893863706  0.28218283679413797  0.7116239748344407  1.0000
  Fe  Fe58      1.0  0.8576122902850372  0.26312109075340545  0.6478692063278056  1.0000
  S   S115      1.0  0.8317901299784389  0.3017263553554598  0.6298845537346592  1.0000
  S   S116      1.0  0.8243816001302939  0.22411116446126342  0.6386280545157413  1.0000
  Fe  Fe59      1.0  0.905725735131109  0.310267001264129  0.6184536527408306  1.0000
  S   S117      1.0  0.9311153442433987  0.3324076395700725  0.5751429112432372  1.0000
  Fe  Fe60      1.0  0.8489991617767776  0.3160296517875472  0.6792029204528546  1.0000
  S   S118      1.0  0.7998166888084575  0.3437967705995473  0.7027285235646377  1.0000
  S   S119      1.0  0.9304092024118328  0.2703295356614013  0.6317781254725024  1.0000
  S   S120      1.0  0.8687696992340129  0.2767242112068553  0.6985339502704404  1.0000
  Fe  Fe61      1.0  0.8261549816203706  0.4123527304070649  0.8594682557034988  1.0000
  S   S121      1.0  0.8003382157269339  0.4496175844394519  0.8371418096451618  1.0000
  S   S122      1.0  0.8745518089718838  0.38362421355988785  0.8364658443504811  1.0000
  Fe  Fe62      1.0  0.7763488095324226  0.4213178978128862  0.9225454032979046  1.0000
  S   S123      1.0  0.746630195004482  0.45920699979580487  0.9059322794945003  1.0000
  S   S124      1.0  0.7540087421631393  0.40422423347093706  0.9700139468051013  1.0000
  Fe  Fe63      1.0  0.732662928163319  0.43834422387189526  0.8598530138179116  1.0000
  S   S125      1.0  0.6626523008311906  0.4441233718910116  0.8379098159280425  1.0000
  Fe  Fe64      1.0  0.8166585487271322  0.46709073132259843  0.8852816577817781  1.0000
  S   S126      1.0  0.8461862631080524  0.5070143462194084  0.8942596851787085  1.0000
  S   S127      1.0  0.7571051534441952  0.3995209995373967  0.8778783020312502  1.0000
  S   S128      1.0  0.8479983823221179  0.430753990399409  0.9059226837988147  1.0000
  Fe  Fe65      1.0  0.213674300926339  0.3003195566717706  0.634079049562647  1.0000
  S   S129      1.0  0.17512123039332556  0.33692048283827625  0.6458173846098247  1.0000
  S   S130      1.0  0.174329528924758  0.26414208034324393  0.6222497130190991  1.0000
  Fe  Fe66      1.0  0.30668519644452563  0.3255738483218551  0.6414301782488422  1.0000
  S   S131      1.0  0.2769341391344099  0.36489547402985895  0.6533904957599749  1.0000
  S   S132      1.0  0.3818613126079035  0.3167710440758899  0.634229075339138  1.0000
  Fe  Fe67      1.0  0.2277930459193232  0.34204332798545334  0.6843989259397276  1.0000
  S   S133      1.0  0.20436984626517496  0.3552132378951779  0.733234159571044  1.0000
  Fe  Fe68      1.0  0.22670825853270665  0.35641127556553737  0.6138387584639179  1.0000
  S   S134      1.0  0.20168964326222014  0.3875066040694933  0.5800335978621647  1.0000
  S   S135      1.0  0.2615633508069998  0.3032722326529208  0.6757607030891754  1.0000
  S   S136      1.0  0.26110316833287817  0.31922979572754007  0.598709519772841  1.0000
  Fe  Fe69      1.0  0.36384592193311477  0.4611989072046169  0.8824629860072672  1.0000
  S   S137      1.0  0.3127136505741856  0.4294408176681608  0.8728245556675214  1.0000
  S   S138      1.0  0.34786689107417473  0.5010913296904537  0.8628810320834891  1.0000
  Fe  Fe70      1.0  0.4317078463887368  0.4244651764518015  0.9144248118532792  1.0000
  S   S139      1.0  0.3856890349316082  0.3895466298043347  0.9083712131746318  1.0000
  S   S140      1.0  0.5021238242775817  0.4182238915430147  0.9359694237561798  1.0000
  Fe  Fe71      1.0  0.3735476626566903  0.4051951797880906  0.8587972876047824  1.0000
  S   S141      1.0  0.38233866449463105  0.37966446884407445  0.8152966987489482  1.0000
  Fe  Fe72      1.0  0.32883967790524715  0.41670476887590385  0.9231756490130468  1.0000
  S   S142      1.0  0.26821696667551187  0.4039382463883638  0.9531115421311336  1.0000
  S   S143      1.0  0.42364702115979597  0.4381801090891638  0.8636408567229943  1.0000
  S   S144      1.0  0.3758461913480276  0.4503921136838827  0.9341045188209086  1.0000
  Fe  Fe73      1.0  0.7053982967098116  0.048337841049386654  0.9246237508023843  1.0000
  S   S145      1.0  0.6880726835401243  0.05518797642011597  0.9764587053068619  1.0000
  S   S146      1.0  0.768441664411837  0.026752519871912073  0.9080740075345569  1.0000
  Fe  Fe74      1.0  0.6141446274693549  0.0694582267408177  0.9004438379947353  1.0000
  S   S147      1.0  0.5880277751187943  0.07763780577316504  0.9501782379569339  1.0000
  S   S148      1.0  0.5680610534157403  0.07449062802424633  0.8572116433564935  1.0000
  Fe  Fe75      1.0  0.6589287164975848  0.09325725446126132  0.959085107305805  1.0000
  S   S149      1.0  0.6649101302627455  0.13058077981513838  0.9872220666730974  1.0000
  Fe  Fe76      1.0  0.618913845908996  0.038980849325912725  0.9636485020988004  1.0000
  S   S150      1.0  0.5900276677840482  0.007338741647312963  0.9955075107925261  1.0000
  S   S151      1.0  0.6832408457418145  0.08819069437299598  0.9080367661298985  1.0000
  S   S152      1.0  0.6382478934286184  0.029092113240643647  0.9130763260826225  1.0000
  Fe  Fe77      1.0  0.49305813688392974  0.19581120487263484  0.6971349592365047  1.0000
  S   S153      1.0  0.5647257418492165  0.2105221593433805  0.7041717712089218  1.0000
  S   S154      1.0  0.43441245530826333  0.21861271765366233  0.7183588184790874  1.0000
  Fe  Fe78      1.0  0.525522506969064  0.14762913433605923  0.6610489117214675  1.0000
  S   S155      1.0  0.6003941493256111  0.1583641392714192  0.6653316091326528  1.0000
  S   S156      1.0  0.4972054039542128  0.1132784002771705  0.6339640366978343  1.0000
  Fe  Fe79      1.0  0.5817776212317209  0.1689183527631954  0.716156893469419  1.0000
  S   S157      1.0  0.6274904072997416  0.1635259437182207  0.7593588504475767  1.0000
  Fe  Fe80      1.0  0.5757156556066694  0.1986085727041395  0.6530228539936679  1.0000
  S   S158      1.0  0.6094320406151967  0.22575453404186438  0.6178760312754851  1.0000
  S   S159      1.0  0.5087233340625923  0.15489491227918517  0.7130661822332504  1.0000
  S   S160      1.0  0.5022950283119251  0.18723647956202583  0.6448127909867496  1.0000
  Fe  Fe81      1.0  0.7849487706747548  0.7780586428574949  0.7298731342007423  1.0000
  S   S161      1.0  0.823065321554704  0.811204495740697  0.7528431785645092  1.0000
  S   S162      1.0  0.8123895735644189  0.7376018384718198  0.73825191295522  1.0000
  Fe  Fe82      1.0  0.7128876503999966  0.8138156641408478  0.7007558225553022  1.0000
  S   S163      1.0  0.745069328719708  0.8501440392053004  0.7207500661053666  1.0000
  S   S164      1.0  0.6490497945731658  0.8137937481291081  0.6703529052631495  1.0000
  Fe  Fe83      1.0  0.8119008430062741  0.8316489141808495  0.7058077724868931  1.0000
  S   S165      1.0  0.867929488604026  0.8543235621015093  0.680735861243112  1.0000
  Fe  Fe84      1.0  0.7530927817621098  0.826389901042152  0.7658595407778721  1.0000
  S   S166      1.0  0.7335756960193919  0.840783443982099  0.8152128132491979  1.0000
  S   S167      1.0  0.7789744154065619  0.7973554435332594  0.6817189324462436  1.0000
  S   S168      1.0  0.7155991449598095  0.7913085676125121  0.7469183453093234  1.0000
  Fe  Fe85      1.0  0.8875235249601803  0.9221297096642566  0.00031283230920142735  1.0000
  S   S169      1.0  0.8432684655479046  0.8922179674194606  0.9760708633624819  1.0000
  S   S170      1.0  0.8587671774586091  0.9599873077060246  0.018653315695019268  1.0000
  Fe  Fe86      1.0  0.9739249202277025  0.8879834086053453  0.9979983086569315  1.0000
  S   S171      1.0  0.9364034694617118  0.8548613042321952  0.9743710906151593  1.0000
  S   S172      1.0  0.04726323365746876  0.8817659775585721  0.014311670910498009  1.0000
  Fe  Fe87      1.0  0.9044788757465504  0.8862200651429183  0.9438049595353568  1.0000
  S   S173      1.0  0.9064152836360864  0.8849735514809967  0.88977071836434  1.0000
  Fe  Fe88      1.0  0.879304672419063  0.8640628799825018  0.008959143572782935  1.0000
  S   S174      1.0  0.8411554979416805  0.835011776603575  0.03960628668280419  1.0000
  S   S175      1.0  0.9456807950152232  0.9189577388852734  0.9651743407958309  1.0000
  S   S176      1.0  0.9195805146564417  0.8944105417372538  0.03533015490656277  1.0000
  Fe  Fe89      1.0  0.32859631881670676  0.8075163603373043  0.731126820678946  1.0000
  S   S177      1.0  0.281843972214056  0.8408766993473891  0.718810050060985  1.0000
  S   S178      1.0  0.3062517276209863  0.7653969203731052  0.7267290410896742  1.0000
  Fe  Fe90      1.0  0.4110852542607497  0.8432298824447227  0.7427678220523544  1.0000
  S   S179      1.0  0.3711709272684364  0.8795190881095388  0.7309750547092545  1.0000
  S   S180      1.0  0.48438575914306353  0.8482752668004835  0.7594580042644011  1.0000
  Fe  Fe91      1.0  0.3153638805502119  0.8610555330979565  0.7606445941267607  1.0000
  S   S181      1.0  0.27509127787703413  0.8849916493900597  0.7962335695928191  1.0000
  Fe  Fe92      1.0  0.3418348328999005  0.8560952936256593  0.6904712873366081  1.0000
  S   S182      1.0  0.3360557761120749  0.8695168433930989  0.6391083230289965  1.0000
  S   S183      1.0  0.3571426496339534  0.826246254657111  0.7756061943586787  1.0000
  S   S184      1.0  0.3865776608730013  0.8212070847718727  0.6995556171831577  1.0000
  Fe  Fe93      1.0  0.34801911191180485  0.9780175661323446  0.003946230425807995  1.0000
  S   S185      1.0  0.3894486513584438  0.9411388762955396  0.00016222318068770392  1.0000
  S   S186      1.0  0.3774931218149449  0.015782569582690087  0.02232062099155141  1.0000
  Fe  Fe94      1.0  0.2639507739165147  0.9537595038530908  0.9736666835788544  1.0000
  S   S187      1.0  0.29745603280777966  0.9146979378417193  0.9671798240977746  1.0000
  S   S188      1.0  0.19213076418872085  0.9613327490735586  0.9566263742899079  1.0000
  Fe  Fe95      1.0  0.32460427112427087  0.9214856810054227  0.016830540431835184  1.0000
  S   S189      1.0  0.3239764967049779  0.8887540720140107  0.05277453973316382  1.0000
  Fe  Fe96      1.0  0.35874284529519296  0.9378096686789236  0.950949369857437  1.0000
  S   S190      1.0  0.4019650583254396  0.9254886683802042  0.9087773810998288  1.0000
  S   S191      1.0  0.285436111241866  0.9586827993375248  0.024956164017134963  1.0000
  S   S192      1.0  0.32305822135764223  0.9764868979143067  0.9530029267848679  1.0000
  C   C145      1.0  0.28185360178872176  0.8815817322124132  0.6282081565117743  1.0000
  C   C146      1.0  0.36801531854797853  0.9354225542614678  0.12474466810305418  1.0000
  C   C147      1.0  0.3559150551846315  0.9261571401477158  0.0941953073065851  1.0000
  C   C148      1.0  0.3431875445170655  0.8999950583233524  0.09016493308383677  1.0000
  C   C149      1.0  0.34357539326639214  0.8829820140879011  0.11654862918133047  1.0000
  C   C150      1.0  0.24977228598959328  0.889506976819949  0.651390628253653  1.0000
  H   H97       1.0  0.37745574695277984  0.9557237910321549  0.12787146987714948  1.0000
  H   H98       1.0  0.35601411118085463  0.9393607500902327  0.07387231659464155  1.0000
  H   H99       1.0  0.3346421758451845  0.8626194303214989  0.11342331882844237  1.0000
  H   H100      1.0  0.2582060373690587  0.8883081430251141  0.6766797645561665  1.0000
  C   C151      1.0  0.3118086724405836  0.8979732673830922  0.8257004479882677  1.0000
  C   C152      1.0  0.2945639588365869  0.9159500165437909  0.8480120022958043  1.0000
  C   C153      1.0  0.32209154280246294  0.9244506821359642  0.8736719727515565  1.0000
  C   C154      1.0  0.36755641422352914  0.9156867535304962  0.8763246284213977  1.0000
  C   C155      1.0  0.3855829740474117  0.8987955193213958  0.8530441249458511  1.0000
  C   C156      1.0  0.357640174995483  0.8897784934730437  0.8279000457619512  1.0000
  H   H101      1.0  0.2598930580910906  0.9232675800115456  0.8453730744438683  1.0000
  H   H102      1.0  0.3083551742670974  0.9380000438192997  0.8911750657182465  1.0000
  H   H103      1.0  0.42086763938136035  0.892174093384605  0.8548186498372029  1.0000
  H   H104      1.0  0.371571343093361  0.8763045915605044  0.810433107899591  1.0000
  C   C157      1.0  0.08748506967946446  0.9040197211334483  0.9984344450487154  1.0000
  C   C158      1.0  0.07418840141273297  0.9227147591148639  0.9757764468765049  1.0000
  C   C159      1.0  0.10635794193893215  0.9405594221549917  0.9635183945448765  1.0000
  C   C160      1.0  0.15210527151716688  0.9397460163800885  0.9737939895865831  1.0000
  C   C161      1.0  0.16584598636775355  0.9208282526314984  0.9961746921554315  1.0000
  C   C162      1.0  0.13350973350564765  0.9029446882025656  0.008448063758335511  1.0000
  H   H105      1.0  0.03916281187207238  0.9235137574069272  0.9676279921616261  1.0000
  H   H106      1.0  0.09577133083819522  0.9550228201659355  0.9460242983425352  1.0000
  H   H107      1.0  0.20130562747348546  0.9200077147662656  0.004007868734696496  1.0000
  H   H108      1.0  0.14404382705661511  0.8883575870246478  0.025758455856834672  1.0000
  C   C163      1.0  0.602025902770457  0.82546202094991  0.6926041753253162  1.0000
  C   C164      1.0  0.609008666026886  0.8435705510619905  0.7172138556850329  1.0000
  C   C165      1.0  0.5717887047703344  0.8519199948749338  0.7360325047662014  1.0000
  C   C166      1.0  0.5277527408565746  0.8415168993104192  0.7311577783371608  1.0000
  C   C167      1.0  0.5204725429815306  0.8239138917889359  0.7059711297484608  1.0000
  C   C168      1.0  0.5575545183054565  0.8161237443122749  0.6864392049097702  1.0000
  H   H109      1.0  0.6430538528914241  0.8512172610783141  0.7217611963420959  1.0000
  H   H110      1.0  0.5772512810365282  0.8662620163795488  0.7546835837890035  1.0000
  H   H111      1.0  0.4867372693122022  0.8155882868192544  0.702231822331458  1.0000
  H   H112      1.0  0.5520694677266307  0.802078455749348  0.6674085122243918  1.0000
  C   C169      1.0  0.8654035907087345  0.8495114538044636  0.6391020413103453  1.0000
  C   C170      1.0  0.859837034919751  0.8243823751414999  0.6265567606912325  1.0000
  C   C171      1.0  0.8557027902484126  0.8207361399875125  0.5933150147735335  1.0000
  C   C172      1.0  0.8025793866826088  0.8524990764193648  0.06402238129122972  1.0000
  C   C173      1.0  0.8005716139187754  0.8797836054082907  0.06200427370114192  1.0000
  C   C174      1.0  0.8680997274994843  0.8709670323312533  0.6182618997818019  1.0000
  H   H113      1.0  0.8582713720934627  0.8077195940824143  0.6424158950268595  1.0000
  H   H114      1.0  0.8504348031128768  0.801293566165817  0.5837511575350923  1.0000
  H   H115      1.0  0.8212500936831039  0.8901516681687855  0.04459925251383279  1.0000
  H   H116      1.0  0.8723225145891818  0.8904398789821817  0.6279443018656311  1.0000
  C   C175      1.0  0.7812633460047945  0.8533328786377736  0.8360819522794694  1.0000
  C   C176      1.0  0.8214824745622438  0.8601133862482376  0.8194969203909382  1.0000
  C   C177      1.0  0.8596947581383595  0.8697113227883033  0.8363076002094018  1.0000
  C   C178      1.0  0.8579803939206019  0.872460047072383  0.8697872617211867  1.0000
  C   C179      1.0  0.8176237621229857  0.8659707654451267  0.8864324852670892  1.0000
  C   C180      1.0  0.7791848802217611  0.8565285482384438  0.869539952887531  1.0000
  H   H117      1.0  0.823055481178339  0.8581682434414498  0.7936539458225642  1.0000
  H   H118      1.0  0.8907505830667493  0.8748413298675881  0.8233205088580241  1.0000
  H   H119      1.0  0.8160273294208981  0.8681183263525731  0.9122497924186971  1.0000
  H   H120      1.0  0.7480833295909854  0.851365250346319  0.8824419534559609  1.0000
  C   C181      1.0  0.7920810282872606  0.00827771828651902  0.9393748818048527  1.0000
  C   C182      1.0  0.8018678842601242  0.019722357898346532  0.9690987584496477  1.0000
  C   C183      1.0  0.8226961775602092  0.004837221716231577  0.9934293906010129  1.0000
  C   C184      1.0  0.8338602421114097  0.9785852787422201  0.9879475758672287  1.0000
  C   C185      1.0  0.8234010752134944  0.9670816476097369  0.9583969987623151  1.0000
  C   C186      1.0  0.8020965387795926  0.9818771613802437  0.9342860020164957  1.0000
  H   H121      1.0  0.794186976168116  0.04015403026391029  0.973086778061463  1.0000
  H   H122      1.0  0.8306423413344306  0.013737699481569887  0.016340568170640113  1.0000
  H   H123      1.0  0.8313035633174596  0.9467428289030223  0.9542235281871598  1.0000
  H   H124      1.0  0.7929568702511003  0.9728787503571532  0.9117308268569894  1.0000
  C   C187      1.0  0.5320348025205687  0.011249379906640433  0.0059706654368092416  1.0000
  C   C188      1.0  0.509357257068906  0.9911546546829495  0.022516979282025895  1.0000
  C   C189      1.0  0.4618916506118742  0.9928055518183161  0.028330284413245366  1.0000
  C   C190      1.0  0.43721712486127806  0.01462707992147938  0.017795728346373663  1.0000
  C   C191      1.0  0.4601305430145605  0.03513756374816723  0.002285466473163078  1.0000
  C   C192      1.0  0.5075267827428315  0.03343113008380194  0.9964029014052133  1.0000
  H   H125      1.0  0.5281562446988339  0.9739559845512165  0.030032219432643448  1.0000
  H   H126      1.0  0.44430577150744505  0.9770864801175838  0.04075630642351302  1.0000
  H   H127      1.0  0.44104911493335053  0.05197263445220246  0.9939109551205076  1.0000
  H   H128      1.0  0.5247245130992862  0.04906871743320895  0.9839368429216996  1.0000
  C   C193      1.0  0.6277204340241497  0.12971776626412956  0.02055000980485855  1.0000
  C   C194      1.0  0.6123374277632032  0.10577173821250585  0.0328507765193633  1.0000
  C   C195      1.0  0.5064454179498518  0.09312597834517965  0.5733544454669842  1.0000
  C   C196      1.0  0.5286692924129199  0.10519760874208384  0.5992558140892734  1.0000
  C   C197      1.0  0.5755527679826185  0.11117400863060234  0.5969181458478233  1.0000
  C   C198      1.0  0.6166066650826101  0.15288789302261824  0.0366349635270109  1.0000
  H   H129      1.0  0.6212356116042279  0.08775827296953143  0.02078590906769695  1.0000
  H   H130      1.0  0.4702320540736329  0.08828273785357643  0.575139967758802  1.0000
  H   H131      1.0  0.5932322210896662  0.11974463193332419  0.6170693857132472  1.0000
  H   H132      1.0  0.6277794697922957  0.17148374740076006  0.026922783752886925  1.0000
  C   C199      1.0  0.5860760526834036  0.0986691929292669  0.8296747816287477  1.0000
  C   C200      1.0  0.6172436810791789  0.11813580456222894  0.8388041671246945  1.0000
  C   C201      1.0  0.6303610756299068  0.1376694635048596  0.8168471386625313  1.0000
  C   C202      1.0  0.6121594627574038  0.1379753572517802  0.7856919503880443  1.0000
  C   C203      1.0  0.581073020386635  0.11850744935468782  0.7764358262267764  1.0000
  C   C204      1.0  0.5679074597019717  0.09895955720854488  0.7984493034813555  1.0000
  H   H133      1.0  0.6307584056595482  0.11839925959874265  0.8629542876535474  1.0000
  H   H134      1.0  0.6543412699899644  0.1526967447314452  0.8242002460804236  1.0000
  H   H135      1.0  0.5673568046211438  0.11835546233865224  0.752295770585903  1.0000
  H   H136      1.0  0.5438793835320787  0.08391202494960037  0.7911981285325264  1.0000
  C   C205      1.0  0.40093751061005717  0.29175501645213414  0.6600298407218961  1.0000
  C   C206      1.0  0.43713414550000884  0.27545070240285213  0.6504195177411423  1.0000
  C   C207      1.0  0.4491144615176643  0.2535990031086491  0.669092291243575  1.0000
  C   C208      1.0  0.42474398984644995  0.2479273424973423  0.6973472298363443  1.0000
  C   C209      1.0  0.3898947364742822  0.26485145342866395  0.7076453486448715  1.0000
  C   C210      1.0  0.3782716540146667  0.2868226177025205  0.6891428519666434  1.0000
  H   H137      1.0  0.4551846535831026  0.2793183091427971  0.628112813758436  1.0000
  H   H138      1.0  0.4765773278318696  0.2408985176571567  0.661200052523687  1.0000
  H   H139      1.0  0.3714527389465817  0.26083324306579275  0.7297566393657844  1.0000
  H   H140      1.0  0.3519900729565889  0.30004945284219536  0.6975833338075279  1.0000
  C   C211      1.0  0.25340278290021706  0.3617134361041883  0.7565856961048268  1.0000
  C   C212      1.0  0.29714108218495383  0.3552903498300493  0.7448687655886894  1.0000
  C   C213      1.0  0.3364033179106366  0.36071261550564465  0.7632277556042737  1.0000
  C   C214      1.0  0.33220213768732454  0.37278128172571706  0.7932758827582598  1.0000
  C   C215      1.0  0.2884435452853739  0.37906268753368655  0.8051633589420113  1.0000
  C   C216      1.0  0.24902552541788273  0.3734609434135504  0.7868495491623559  1.0000
  H   H141      1.0  0.30085541402372734  0.34607360153535605  0.7216614736332829  1.0000
  H   H142      1.0  0.3700957994215502  0.3556681563656869  0.7539919191153982  1.0000
  H   H143      1.0  0.2849209741700113  0.38799947779765304  0.8285259275627869  1.0000
  H   H144      1.0  0.21527099337630182  0.37834146108872124  0.7960614350349755  1.0000
  C   C217      1.0  0.2771368328864614  0.40424745301964926  0.994792018133042  1.0000
  C   C218      1.0  0.23521519950816172  0.35065887295784903  0.4974010335313186  1.0000
  C   C219      1.0  0.22033494486965818  0.35542040421741156  0.5289363287594043  1.0000
  C   C220      1.0  0.21484693168840582  0.38110187950068847  0.5397190568263325  1.0000
  C   C221      1.0  0.2221119982940401  0.40196700441701816  0.5185067774287871  1.0000
  C   C222      1.0  0.3153378014571587  0.4168771358591857  0.008062064239907407  1.0000
  H   H145      1.0  0.21632701086552453  0.38142527239966145  0.004746131955228439  1.0000
  H   H146      1.0  0.21338617334539103  0.3392410566122255  0.5448715305790759  1.0000
  H   H147      1.0  0.2173104093344391  0.42184959505022634  0.5266826564876301  1.0000
  H   H148      1.0  0.33942298634966517  0.427065347129824  0.9926947994026504  1.0000
  C   C223      1.0  0.6185826434516494  0.437248575213245  0.8656375549329636  1.0000
  C   C224      1.0  0.6236567411234012  0.41716613843644873  0.8882083389399288  1.0000
  C   C225      1.0  0.587438215342567  0.41111546344298694  0.9093665243245794  1.0000
  C   C226      1.0  0.546445719441729  0.4254992226025857  0.9085571839810752  1.0000
  C   C227      1.0  0.5416312247462572  0.4458186636738455  0.8862619625908281  1.0000
  C   C228      1.0  0.5774053012904579  0.45144648071711513  0.8645569607886593  1.0000
  H   H149      1.0  0.6551367415602662  0.40592115234202486  0.8889135597614345  1.0000
  H   H150      1.0  0.5910755644895828  0.39510304453690553  0.9261944882729312  1.0000
  H   H151      1.0  0.5106846418973112  0.4575354521463421  0.8860889179660807  1.0000
  H   H152      1.0  0.5735012374364717  0.4671452181646905  0.8472923415186556  1.0000
  C   C229      1.0  0.7651253072326805  0.22514316699689182  0.6305770424402759  1.0000
  C   C230      1.0  0.7405448330241295  0.24852535401439485  0.6331723654682009  1.0000
  C   C231      1.0  0.6927716685560799  0.2487316690305592  0.6284300880623047  1.0000
  C   C232      1.0  0.6693128959747873  0.22542438363785808  0.6220849789620762  1.0000
  C   C233      1.0  0.6937222038071783  0.20196425854376693  0.6195871394540925  1.0000
  C   C234      1.0  0.741711158762261  0.20190074819383938  0.6234125968047048  1.0000
  H   H153      1.0  0.7581031174169574  0.2664090220812342  0.6392456931459917  1.0000
  H   H154      1.0  0.6738344407605524  0.2668678970174421  0.6304500602144743  1.0000
  H   H155      1.0  0.6756777225287705  0.18391380669266477  0.6146250970198498  1.0000
  H   H156      1.0  0.7606413643460226  0.18376702059878844  0.6213595221644475  1.0000
  C   C235      1.0  0.05130904290652083  0.27294234565538916  0.6888801166920402  1.0000
  C   C236      1.0  0.09512929892896693  0.2807485674957716  0.6989147811449017  1.0000
  C   C237      1.0  0.1332193596098612  0.2771408234929219  0.678795446757487  1.0000
  C   C238      1.0  0.1279798959683064  0.2647781316954172  0.6490972397322359  1.0000
  C   C239      1.0  0.08490493014527045  0.25515529866579856  0.6400099942568638  1.0000
  C   C240      1.0  0.04649771184053808  0.25939863137968117  0.6598680658306132  1.0000
  H   H157      1.0  0.09963893241547628  0.29039874354828915  0.7217289040573216  1.0000
  H   H158      1.0  0.1665739371207628  0.28422410304193707  0.6862491862462672  1.0000
  H   H159      1.0  0.08085575816538038  0.2452236444084445  0.6172420850752882  1.0000
  H   H160      1.0  0.013352987658440396  0.25195400411711855  0.6528359610453965  1.0000
  C   C241      1.0  0.7979791598578947  0.40058983819276234  0.9985136147495246  1.0000
  C   C242      1.0  0.7903397076305554  0.38482581662151233  0.025555287402493576  1.0000
  C   C243      1.0  0.8465499515585626  0.3231426520584879  0.5485432526726958  1.0000
  C   C244      1.0  0.8862872521572788  0.338548255073913  0.5479477210579765  1.0000
  C   C245      1.0  0.8766607771046397  0.40781754248805485  0.01593002771520058  1.0000
  C   C246      1.0  0.8409531235336264  0.4123939021204343  0.9939685654017817  1.0000
  H   H161      1.0  0.7570826151495597  0.375714844013233  0.029244100577878962  1.0000
  H   H162      1.0  0.84519309645485  0.3057777517982125  0.5632752162696983  1.0000
  H   H163      1.0  0.9193189495680838  0.3722280041096939  0.5268612220586898  1.0000
  H   H164      1.0  0.8467332956800642  0.4251646313384208  0.97369333015604  1.0000
  C   C247      1.0  0.8537226916053573  0.37267128252029114  0.799292364333919  1.0000
  C   C248      1.0  0.8116378778171205  0.3817699296909995  0.7874482823935922  1.0000
  C   C249      1.0  0.7952098725669163  0.3728172692700041  0.7577414176664334  1.0000
  C   C250      1.0  0.8208009342810851  0.35475584252020087  0.7398571485692467  1.0000
  C   C251      1.0  0.8629212042081745  0.3456330693940488  0.7516913894184782  1.0000
  C   C252      1.0  0.8793328285440676  0.3545750180064854  0.7814255119124037  1.0000
  H   H165      1.0  0.7916740299069452  0.3956947276873186  0.8011670030589778  1.0000
  H   H166      1.0  0.7626157369808799  0.3798764500849367  0.7486795213042958  1.0000
  H   H167      1.0  0.8826590799104823  0.331546019152683  0.738078601948213  1.0000
  H   H168      1.0  0.9116839619413457  0.34735648267062563  0.7906775152172262  1.0000
  C   C253      1.0  0.15779692185176514  0.7552205157209234  0.693431291872283  1.0000
  C   C254      1.0  0.19139976492079414  0.7370030809040319  0.68469865588205  1.0000
  C   C255      1.0  0.23695828421415743  0.7401553290924381  0.6951999868559049  1.0000
  C   C256      1.0  0.2491152905377392  0.7617397519416869  0.7140316312993048  1.0000
  C   C257      1.0  0.21558659996122143  0.7800294145235127  0.7225991323478697  1.0000
  C   C258      1.0  0.170011010026689  0.7768068187151987  0.7122330311310695  1.0000
  H   H169      1.0  0.18236240914014995  0.7204908852348081  0.6698676928837459  1.0000
  H   H170      1.0  0.2629011716823769  0.7259991753134153  0.6884379470071439  1.0000
  H   H171      1.0  0.22455253715397785  0.7964439810155233  0.7376865261766227  1.0000
  H   H172      1.0  0.14408960049083513  0.7909276880274302  0.7191365203560188  1.0000
  C   C259      1.0  0.888061348806181  0.7037932498808454  0.651761412990094  1.0000
  C   C260      1.0  0.8986914830695197  0.6953197124981502  0.6828378910722427  1.0000
  C   C261      1.0  0.8741125346739284  0.7050961971746973  0.7092588899577466  1.0000
  C   C262      1.0  0.8389876859185156  0.7234249925541797  0.7046500588429493  1.0000
  C   C263      1.0  0.8270892104101116  0.7310406093328519  0.673445491081138  1.0000
  C   C264      1.0  0.8515750773167564  0.7212104114915132  0.6469970384404841  1.0000
  H   H173      1.0  0.9258597928416127  0.6812501930901955  0.6865694034097088  1.0000
  H   H174      1.0  0.8829468033779769  0.6988742918292302  0.7333501802151996  1.0000
  H   H175      1.0  0.7988898093107573  0.7443838951563396  0.6696538013533899  1.0000
  H   H176      1.0  0.8429006072566791  0.7275893268709863  0.6229449783257611  1.0000
  C   C265      1.0  0.26811179788165274  0.5546349791401145  0.9305119331583803  1.0000
  C   C266      1.0  0.29377264665990027  0.5338900494230523  0.9431444021444846  1.0000
  C   C267      1.0  0.31893432834933294  0.517524498535143  0.9225588054993623  1.0000
  C   C268      1.0  0.3192205366025136  0.5221990243408939  0.8894146464949146  1.0000
  C   C269      1.0  0.294773418251675  0.5434849147000387  0.8769515772645513  1.0000
  C   C270      1.0  0.2689665212460156  0.5595760029387342  0.8974377955785462  1.0000
  H   H177      1.0  0.29316369379684404  0.5300019373933216  0.9687249484818266  1.0000
  H   H178      1.0  0.33819111100630295  0.5014009009494456  0.9323942021524436  1.0000
  H   H179      1.0  0.2951488569560224  0.5472496884042019  0.8513350733138972  1.0000
  H   H180      1.0  0.24985318776101437  0.5758319314889638  0.8876274245511997  1.0000
  C   C271      1.0  0.0011700073256817323  0.5171325377443761  0.880573841049116  1.0000
  C   C272      1.0  0.9785244585765654  0.49610458096699817  0.8658974753134142  1.0000
  C   C273      1.0  0.931026572809755  0.4923240995048686  0.8707191966928501  1.0000
  C   C274      1.0  0.9060944506840397  0.5098492827669739  0.8898060023133868  1.0000
  C   C275      1.0  0.9289208772319574  0.5306783241107488  0.9046805584424538  1.0000
  C   C276      1.0  0.9764515488543234  0.5341098966314187  0.9004283556369651  1.0000
  H   H181      1.0  0.9975471074428272  0.48286449863314296  0.8505870635884556  1.0000
  H   H182      1.0  0.91348508472667  0.4762214156831929  0.8591544715633377  1.0000
  H   H183      1.0  0.9097831344788719  0.5441247916665544  0.9196853889271644  1.0000
  H   H184      1.0  0.9937669022135152  0.5500147663269337  0.9124379288428346  1.0000
  C   C277      1.0  0.03578715007819966  0.6423784921993527  0.006294384573529932  1.0000
  C   C278      1.0  0.057838497159662605  0.6616984495047397  0.9880690660810234  1.0000
  C   C279      1.0  0.07847176135737577  0.620276745715501  0.5503760015405409  1.0000
  C   C280      1.0  0.09960561021878525  0.6412851460087609  0.5346842772906588  1.0000
  C   C281      1.0  0.10036706597246876  0.6420748546212436  0.5009782194100211  1.0000
  C   C282      1.0  0.023153812092819418  0.647625477104426  0.038133621026699815  1.0000
  H   H185      1.0  0.06659035725712825  0.6580379258444334  0.9632139660779053  1.0000
  H   H186      1.0  0.07907203884777814  0.6190796958050597  0.5763007756905583  1.0000
  H   H187      1.0  0.11686481122764504  0.6582761126853669  0.48873902493599297  1.0000
  H   H188      1.0  0.005709622917225986  0.6327820129464058  0.05220085594038304  1.0000
  C   C283      1.0  0.09914758617995112  0.640883345262479  0.8098241557869763  1.0000
  C   C284      1.0  0.10615553770163777  0.6153220437511615  0.7990403872628308  1.0000
  C   C285      1.0  0.0982076589174201  0.6090637988532216  0.766671143769186  1.0000
  C   C286      1.0  0.08306725983493068  0.6283000755213802  0.7451472458572779  1.0000
  C   C287      1.0  0.07549847654149056  0.6537292222209675  0.7561253991388028  1.0000
  C   C288      1.0  0.08331194042389223  0.6599743479841245  0.7884440611095738  1.0000
  H   H189      1.0  0.11878038419519182  0.6005419164901191  0.8153755099524842  1.0000
  H   H190      1.0  0.10444615590654138  0.5894019906110204  0.758151921080881  1.0000
  H   H191      1.0  0.06353288088784503  0.6686042418928313  0.73977840066455  1.0000
  H   H192      1.0  0.07723909292764053  0.6796824646745874  0.7968508600100125  1.0000
  N   N1        1.0  0.4322125834994868  0.07711944056905762  0.08955049216088495  1.0000
  C   C289      1.0  0.41858926252856105  0.051731121373437494  0.10374255629820395  1.0000
  C   C290      1.0  0.479562730159041  0.07521360151322143  0.07672140155957385  1.0000
  C   C291      1.0  0.43067639329045143  0.09771206687280154  0.11444808392116634  1.0000
  C   C292      1.0  0.4002416083205131  0.08386344827391823  0.06321001096287948  1.0000
  H   H193      1.0  0.4422284999923752  0.04587409573857215  0.12350164373713701  1.0000
  H   H194      1.0  0.4191398770684571  0.035854428262471316  0.08538550064519179  1.0000
  H   H195      1.0  0.3830104290559224  0.052437755315821066  0.11372715263525635  1.0000
  H   H196      1.0  0.4902508946430169  0.09374401721826864  0.06472604087989708  1.0000
  H   H197      1.0  0.5048401807188573  0.07134914558417704  0.09624470804740493  1.0000
  H   H198      1.0  0.4828612237336812  0.05919897309026445  0.05886190793705537  1.0000
  H   H199      1.0  0.3955108697589037  0.0998918171294445  0.12477199421548035  1.0000
  H   H200      1.0  0.4413840121227367  0.11704088518216804  0.10446979005362489  1.0000
  H   H201      1.0  0.4547758467768351  0.09335939789825254  0.13456736538570446  1.0000
  H   H202      1.0  0.40962427852074323  0.10283843500449108  0.05178703010810981  1.0000
  H   H203      1.0  0.36411577374515186  0.08537129513785846  0.07201480726756193  1.0000
  H   H204      1.0  0.40058062072454426  0.0686855044625323  0.04406132498377202  1.0000
  N   N2        1.0  0.9307771960451222  0.6726131644552253  0.23190087079621843  1.0000
  C   C293      1.0  0.8967994934578355  0.6623483222342729  0.25527572779622615  1.0000
  C   C294      1.0  0.9094296957275763  0.6745387415401907  0.19974207263635152  1.0000
  C   C295      1.0  0.9707829513126448  0.6547861633584111  0.23039513629393762  1.0000
  C   C296      1.0  0.9461680089711699  0.6988317225261332  0.242208530646992  1.0000
  H   H205      1.0  0.9119867992751164  0.6606668354640277  0.27980081526127093  1.0000
  H   H206      1.0  0.8844671813568328  0.6425339471525449  0.2483308812406504  1.0000
  H   H207      1.0  0.8661582548796797  0.6753464068190117  0.25706827794173587  1.0000
  H   H208      1.0  0.9344485934758441  0.6819209926720902  0.181499079383594  1.0000
  H   H209      1.0  0.8966490439340972  0.6552350826330283  0.19129000833093773  1.0000
  H   H210      1.0  0.8798078876969463  0.6883831760393416  0.19974220276615673  1.0000
  H   H211      1.0  0.9975793748922515  0.662119930639591  0.21337676493958957  1.0000
  H   H212      1.0  0.9605793428596077  0.6348888298133136  0.22230867140181365  1.0000
  H   H213      1.0  0.987348175680122  0.6525883660596312  0.25437836143527065  1.0000
  H   H214      1.0  0.9720650758119964  0.7069931813978225  0.22523664932507548  1.0000
  H   H215      1.0  0.962168275516808  0.6982177343267764  0.26650584955456685  1.0000
  H   H216      1.0  0.9169750217309298  0.7129446800426903  0.2430691766888017  1.0000
  N   N3        1.0  0.17193458775568526  0.6192586539045379  0.03818803684054073  1.0000
  C   C297      1.0  0.15671525250441554  0.6466320063392702  0.03433051433189682  1.0000
  C   C298      1.0  0.18135335498920013  0.6139518882197297  0.0724845491507595  1.0000
  C   C299      1.0  0.21424933682432967  0.6150252949284422  0.019080793157482345  1.0000
  C   C300      1.0  0.13535152305366127  0.6014394881144316  0.02680514872240858  1.0000
  H   H217      1.0  0.14908460863208783  0.6512278123833248  0.00870891324551537  1.0000
  H   H218      1.0  0.1833641631011702  0.6607241105848951  0.04258512582684948  1.0000
  H   H219      1.0  0.12483788232088933  0.6505324412926423  0.04840271751519154  1.0000
  H   H220      1.0  0.19293484615955703  0.5934252338925565  0.07618254643672873  1.0000
  H   H221      1.0  0.2087240128656105  0.6271019452113066  0.08190619863092867  1.0000
  H   H222      1.0  0.14996335147336404  0.6170034567787831  0.0874858617543799  1.0000
  H   H223      1.0  0.2264926845313382  0.5944481676183484  0.020963651356557422  1.0000
  H   H224      1.0  0.2427778254759001  0.628002984774205  0.02699773300886799  1.0000
  H   H225      1.0  0.20824175179870785  0.6189731121558966  0.9930648423653512  1.0000
  H   H226      1.0  0.1458526431990541  0.580581597039284  0.028718358626677043  1.0000
  H   H227      1.0  0.12691826644422233  0.6051268983078588  0.0011648678016924485  1.0000
  H   H228      1.0  0.1027500120591407  0.6040288949767819  0.04062069231634946  1.0000
  N   N4        1.0  0.8972623313841248  0.8648774836647511  0.14581311043830364  1.0000
  C   C301      1.0  0.9108252996412279  0.8832404490805006  0.12000381143277668  1.0000
  C   C302      1.0  0.8514377709008067  0.8722667557183119  0.15825127600703326  1.0000
  C   C303      1.0  0.9312022228463852  0.8659900520609122  0.17220623130056165  1.0000
  C   C304      1.0  0.8952855212077973  0.8380531834989995  0.1327448580931078  1.0000
  H   H229      1.0  0.9450178485462438  0.8781407394755378  0.10959327979225296  1.0000
  H   H230      1.0  0.9127516950435897  0.9037043372011614  0.128958366866241  1.0000
  H   H231      1.0  0.8853222649752739  0.88302023707398  0.10004851607525019  1.0000
  H   H232      1.0  0.8392058462899867  0.8583190626660828  0.17694676286891353  1.0000
  H   H233      1.0  0.8517699389365136  0.8921366221723954  0.16907868956841593  1.0000
  H   H234      1.0  0.8253130541100656  0.8723409947883456  0.13887986195796143  1.0000
  H   H235      1.0  0.9210691453938199  0.8528685538672869  0.19240784631678315  1.0000
  H   H236      1.0  0.9339344950792062  0.8860547658158113  0.18232331707941812  1.0000
  H   H237      1.0  0.9660903697699839  0.8599250161568092  0.16396462648125976  1.0000
  H   H238      1.0  0.8703456775727801  0.8366856119332182  0.11251927429046105  1.0000
  H   H239      1.0  0.8841002417083946  0.8237824346866368  0.15141996241948524  1.0000
  H   H240      1.0  0.9295334885068757  0.8316835631913136  0.12368468292532135  1.0000
  N   N5        1.0  0.8488730498620051  0.26924022726229774  0.2243544563234693  1.0000
  C   C305      1.0  0.8683636553521956  0.27171763603074073  0.1916262559958295  1.0000
  C   C306      1.0  0.8005219519849033  0.2783058426102265  0.22431366272644204  1.0000
  C   C307      1.0  0.876187311319654  0.28534285186247876  0.24684029488957404  1.0000
  C   C308      1.0  0.8504943072583109  0.24156503064687596  0.23454570390291693  1.0000
  H   H241      1.0  0.9052386141367755  0.26571571556041895  0.19088088975581613  1.0000
  H   H242      1.0  0.8670565401543288  0.2923022706787968  0.18309374171710563  1.0000
  H   H243      1.0  0.8491772177332305  0.2595480351198546  0.17401936805151338  1.0000
  H   H244      1.0  0.78500681347081  0.27740717912717694  0.24877388594537375  1.0000
  H   H245      1.0  0.797738437234064  0.2988391806281043  0.21555754993560156  1.0000
  H   H246      1.0  0.7786867345910858  0.2660454725473483  0.20829811777243662  1.0000
  H   H247      1.0  0.8628521360097847  0.2839260056074033  0.27188269604352194  1.0000
  H   H248      1.0  0.8758556677706555  0.3063312300096172  0.23974492695470168  1.0000
  H   H249      1.0  0.9130559650238089  0.2792746275265352  0.24704834648574325  1.0000
  H   H250      1.0  0.8360587045217553  0.23895989876865037  0.2591763224308152  1.0000
  H   H251      1.0  0.8865016598583537  0.2340832340813507  0.23471564563185152  1.0000
  H   H252      1.0  0.8301118455880127  0.2289174989453266  0.21803918191577895  1.0000
  N   N6        1.0  0.20037173552077242  0.8710391668163971  0.11182264287495469  1.0000
  C   C309      1.0  0.15040435855620107  0.8655591218049274  0.11359899043493216  1.0000
  C   C310      1.0  0.2222181415698267  0.852641616003878  0.08906630616401023  1.0000
  C   C311      1.0  0.22098307848573331  0.8676956639876702  0.14404593277729916  1.0000
  C   C312      1.0  0.2079159694426692  0.8981574679939553  0.1005755327100355  1.0000
  H   H253      1.0  0.13271737561598515  0.8791471441246538  0.13044178079287017  1.0000
  H   H254      1.0  0.14358583699427943  0.8452960208157646  0.12236968275373727  1.0000
  H   H255      1.0  0.1337248113395611  0.8676691454717963  0.08962181636644373  1.0000
  H   H256      1.0  0.2600306859366641  0.8559435378650233  0.08748620269932594  1.0000
  H   H257      1.0  0.21675614908021207  0.8319657200980874  0.09657558211048389  1.0000
  H   H258      1.0  0.2082420268768912  0.8550252161172883  0.06433234843333646  1.0000
  H   H259      1.0  0.21791354035592508  0.8471561426745766  0.1525180615546311  1.0000
  H   H260      1.0  0.20407198812194677  0.8804133028705389  0.16226357213025366  1.0000
  H   H261      1.0  0.2582565033017718  0.8726607510638679  0.14399524176043732  1.0000
  H   H262      1.0  0.24533025838554237  0.9028093026045585  0.09874528990111009  1.0000
  H   H263      1.0  0.19225292511069383  0.9126193670635365  0.11728103980060944  1.0000
  H   H264      1.0  0.19289060180115714  0.901419691908213  0.07628684998872215  1.0000
  N   N7        1.0  0.6240405101540056  0.048954873417746736  0.3034332666558434  1.0000
  C   C313      1.0  0.6573422286568469  0.06249870049372408  0.3244663314404771  1.0000
  C   C314      1.0  0.6178086366151266  0.06416323619373854  0.27349904131787733  1.0000
  C   C315      1.0  0.5793171487699007  0.04655678816793474  0.3202500547409946  1.0000
  C   C316      1.0  0.6416768589960345  0.022603751160663377  0.29562327725695575  1.0000
  H   H265      1.0  0.663202951712709  0.05144414572392053  0.3471491818452602  1.0000
  H   H266      1.0  0.6447621703502268  0.08219635776987877  0.3313738129439297  1.0000
  H   H267      1.0  0.6912803515164415  0.06506342357467387  0.31239358811701107  1.0000
  H   H268      1.0  0.5934195325325575  0.05437015241067722  0.2568143760781918  1.0000
  H   H269      1.0  0.6036179761424719  0.0839116917108984  0.2786120310405704  1.0000
  H   H270      1.0  0.6510138335612192  0.06711064650389398  0.26055994323558856  1.0000
  H   H271      1.0  0.5530350418694934  0.036793935915934384  0.30500827654530105  1.0000
  H   H272      1.0  0.5652950541294806  0.06601767329967956  0.32711228029003336  1.0000
  H   H273      1.0  0.5827305717455321  0.03491677718912478  0.3427005346525979  1.0000
  H   H274      1.0  0.6173042686427058  0.011677831964070018  0.280009165976284  1.0000
  H   H275      1.0  0.6468715113875804  0.010689923683494085  0.31780769617340165  1.0000
  H   H276      1.0  0.6754319195831109  0.02363658458334683  0.2829422169533145  1.0000
  N   N8        1.0  0.6415647951633906  0.4558576482413336  0.9827277863751583  1.0000
  C   C317      1.0  0.6898044320506131  0.46281252739207884  0.9901879800925599  1.0000
  C   C318      1.0  0.6110182672996  0.46531085666016236  0.008689815003172008  1.0000
  C   C319      1.0  0.6373498085154651  0.42714819204171783  0.9801133790779356  1.0000
  C   C320      1.0  0.6279573898572065  0.46809408543102343  0.951939291594743  1.0000
  H   H277      1.0  0.7136700329253661  0.4558558043245796  0.9711132141128211  1.0000
  H   H278      1.0  0.7014853515861028  0.4536076085629855  0.013040784021371321  1.0000
  H   H279      1.0  0.6945213331887773  0.4843242637273319  0.9922811327119285  1.0000
  H   H280      1.0  0.6133152119468331  0.48691928918665045  0.011338015471519025  1.0000
  H   H281      1.0  0.5743197680482215  0.4603575255666419  0.003684874825804041  1.0000
  H   H282      1.0  0.6202014936549137  0.4563399133718508  0.032226013320821645  1.0000
  H   H283      1.0  0.6497627240705637  0.4171234196887228  0.0022292085372814796  1.0000
  H   H284      1.0  0.6583247706652985  0.41949423575680556  0.9597336986200798  1.0000
  H   H285      1.0  0.6009605836079265  0.42111802319691816  0.976035836190255  1.0000
  H   H286      1.0  0.6492681376767341  0.46075738116063675  0.9315693444424057  1.0000
  H   H287      1.0  0.6319755612017901  0.4897115833541413  0.9526026281473085  1.0000
  H   H288      1.0  0.5913563138292054  0.4637679916711235  0.9460337311398218  1.0000
  N   N9        1.0  0.7261263640349803  0.3801158758046127  0.2631227556222617  1.0000
  C   C321      1.0  0.7121902808957372  0.3993374293401718  0.2878363820271047  1.0000
  C   C322      1.0  0.7372999460502929  0.3938414020718652  0.232749092037518  1.0000
  C   C323      1.0  0.6880036162164063  0.3615128061695734  0.2574468573517867  1.0000
  C   C324      1.0  0.7671120391553274  0.3657023352891927  0.2744278766852349  1.0000
  H   H289      1.0  0.7033787029023346  0.38963118142304326  0.31109049042611053  1.0000
  H   H290      1.0  0.6813097169560847  0.41063515384017873  0.2802763950961442  1.0000
  H   H291      1.0  0.7402935572447062  0.41358513751520226  0.29279801065880884  1.0000
  H   H292      1.0  0.7481635353697632  0.379895775438391  0.21360544845234553  1.0000
  H   H293      1.0  0.7071712170280461  0.40488015497506674  0.2234039558659675  1.0000
  H   H294      1.0  0.7659181895960087  0.40806910050061007  0.23601504788901953  1.0000
  H   H295      1.0  0.6971884595725177  0.34697341135967  0.2385176352641312  1.0000
  H   H296      1.0  0.6563556069785651  0.37178826813018967  0.24921843220144635  1.0000
  H   H297      1.0  0.6789096876892737  0.3505684300972334  0.27975741278820737  1.0000
  H   H298      1.0  0.7779093165839391  0.3506107594003633  0.2567392215619046  1.0000
  H   H299      1.0  0.7604215144042924  0.35576773508067433  0.29783045286522764  1.0000
  H   H300      1.0  0.7968863331284104  0.3790870386491374  0.27803751160747775  1.0000
  N   N10       1.0  0.9566707518240978  0.7794215038686124  0.6890326537134972  1.0000
  C   C325      1.0  0.9662519041757439  0.7529198447175278  0.676715588435497  1.0000
  C   C326      1.0  0.9082211527281684  0.7809357267561767  0.6998000330165854  1.0000
  C   C327      1.0  0.9647846590639602  0.7987627350883179  0.663182480049371  1.0000
  C   C328      1.0  0.9874158686061293  0.7850416317871673  0.7164377244665442  1.0000
  H   H301      1.0  0.959914972712688  0.7378221545644457  0.6955106311393905  1.0000
  H   H302      1.0  0.0026322295579426225  0.7509569850241126  0.668652609623083  1.0000
  H   H303      1.0  0.9440241868826402  0.7481125674410669  0.6557824483561404  1.0000
  H   H304      1.0  0.8840952043941104  0.7756260202730035  0.6801608287305103  1.0000
  H   H305      1.0  0.9011760706437755  0.7673108134815555  0.7201779042106073  1.0000
  H   H306      1.0  0.8992454414236236  0.8010210492613224  0.7078781912676595  1.0000
  H   H307      1.0  0.9564457897239619  0.8189569567240766  0.6713612368070411  1.0000
  H   H308      1.0  0.9429145691677725  0.7946045398591572  0.6418461084297619  1.0000
  H   H309      1.0  0.00136293402245391  0.7985016308511853  0.655073047810518  1.0000
  H   H310      1.0  0.9809086200873908  0.8048904419865842  0.72639496517408  1.0000
  H   H311      1.0  0.024343473246244196  0.7839842970712724  0.7091747709410111  1.0000
  H   H312      1.0  0.9822251516407696  0.7706754833601914  0.7362765469848882  1.0000
  N   N11       1.0  0.19434722139646063  0.736079904415947  0.25219937884752497  1.0000
  C   C329      1.0  0.23369276880573508  0.7544624630370823  0.2527582431013383  1.0000
  C   C330      1.0  0.21149898631679484  0.7090142841555324  0.24887090648147264  1.0000
  C   C331      1.0  0.1642394174365814  0.7423442713301668  0.22466488434000134  1.0000
  C   C332      1.0  0.16780834447188284  0.7384814446854095  0.28243573451049714  1.0000
  H   H313      1.0  0.2219232026313817  0.7750949615861749  0.2550859298697262  1.0000
  H   H314      1.0  0.25455244909039926  0.7532914918203156  0.2302831034452006  1.0000
  H   H315      1.0  0.25726558978998615  0.7504296395111184  0.27322109862460753  1.0000
  H   H316      1.0  0.18256768455348202  0.694664615040759  0.24834960703666614  1.0000
  H   H317      1.0  0.23130697501695247  0.70648688847752  0.22612466375291107  1.0000
  H   H318      1.0  0.23444029233120411  0.7035395226080626  0.2691830221721172  1.0000
  H   H319      1.0  0.13471534843389138  0.7285506537271573  0.22317746937170238  1.0000
  H   H320      1.0  0.18332480500215795  0.7409975999067855  0.201489122670165  1.0000
  H   H321      1.0  0.14999362290443852  0.7624997482180902  0.22647687570993727  1.0000
  H   H322      1.0  0.18955526043512727  0.7340575800769465  0.3037661631802825  1.0000
  H   H323      1.0  0.1380851510722239  0.7247153100166157  0.28294490425578794  1.0000
  H   H324      1.0  0.15392922991287808  0.7586209393952766  0.2854820174643738  1.0000
  N   N12       1.0  0.947326344304435  0.661735524481106  0.5304658545755683  1.0000
  C   C333      1.0  0.9844131267674745  0.6805516385970077  0.5380609037584683  1.0000
  C   C334      1.0  0.9557870175331146  0.6502158030788853  0.4984154254126782  1.0000
  C   C335      1.0  0.902482014052458  0.6753929229979285  0.530435331713871  1.0000
  C   C336      1.0  0.9466336488465799  0.6407748512782051  0.554987341741397  1.0000
  H   H325      1.0  0.9787904127095141  0.6898165046848604  0.5619331471465989  1.0000
  H   H326      1.0  0.9865149018953231  0.6964738594092067  0.5198717956948414  1.0000
  H   H327      1.0  0.018675377037995267  0.670846607820055  0.5388574912947309  1.0000
  H   H328      1.0  0.929053036069356  0.6354930319231465  0.49208227804841614  1.0000
  H   H329      1.0  0.9562152863823653  0.6654033666928317  0.47922224652944123  1.0000
  H   H330      1.0  0.9895463206140688  0.6400823405012033  0.4975579250974726  1.0000
  H   H331      1.0  0.8737298963108219  0.6617623291388396  0.5248109718362812  1.0000
  H   H332      1.0  0.9019005923475386  0.6914917043714052  0.5124111325086594  1.0000
  H   H333      1.0  0.8949410467140811  0.6842218980079323  0.554347695460841  1.0000
  H   H334      1.0  0.9194831600414892  0.6260103407040736  0.5498680304547999  1.0000
  H   H335      1.0  0.9398573940096923  0.648773947677374  0.5794424546923493  1.0000
  H   H336      1.0  0.9801678154501323  0.6303221850868036  0.5559844883298917  1.0000
  N   N13       1.0  0.2523420333115628  0.47165064368977777  0.2946058898778258  1.0000
  C   C337      1.0  0.2853222295820067  0.48199484512850044  0.31847309720010736  1.0000
  C   C338      1.0  0.2763883906211171  0.46719689479057896  0.2637107714565913  1.0000
  C   C339      1.0  0.2147366059260623  0.49072219193966254  0.2898553389365701  1.0000
  C   C340      1.0  0.23291443293125424  0.44666879678414306  0.3063687336706098  1.0000
  H   H337      1.0  0.3143120222018022  0.4681936210667959  0.3225507142718585  1.0000
  H   H338      1.0  0.2686099735499738  0.48526771018743925  0.3422040652203329  1.0000
  H   H339      1.0  0.3005244886996219  0.5009015322208037  0.31055246937413405  1.0000
  H   H340      1.0  0.29157205999676244  0.48558079425249073  0.25406077103890495  1.0000
  H   H341      1.0  0.3051002304747071  0.4529720314313315  0.26651678191965866  1.0000
  H   H342      1.0  0.2527341116562918  0.45906072074173593  0.24523511429740755  1.0000
  H   H343      1.0  0.18889065135028366  0.48345754959831244  0.27228393087329616  1.0000
  H   H344      1.0  0.22809170833304962  0.5097868821004551  0.2808837619047378  1.0000
  H   H345      1.0  0.19612915080031576  0.494680161964858  0.31274933263322885  1.0000
  H   H346      1.0  0.2604506422563486  0.431878652703441  0.3102866059919051  1.0000
  H   H347      1.0  0.20823993056378445  0.4381108212654586  0.28886752402565896  1.0000
  H   H348      1.0  0.21443591619377117  0.4492497097340918  0.3296313725247488  1.0000
  N   N14       1.0  0.9468880643652107  0.47421172004769074  0.3519478657372936  1.0000
  C   C341      1.0  0.9837964606526384  0.472229719878198  0.37624979645033935  1.0000
  C   C342      1.0  0.9538818955960724  0.45405730094195396  0.32699668134887516  1.0000
  C   C343      1.0  0.9482800205376766  0.5003873228070608  0.33690896400219655  1.0000
  C   C344      1.0  0.9016642882606777  0.47024192148645594  0.36767686459469623  1.0000
  H   H349      1.0  0.9790081729415849  0.48689039593948147  0.39572808881895194  1.0000
  H   H350      1.0  0.01837172411532384  0.4758378715724533  0.36537108028150955  1.0000
  H   H351      1.0  0.9842550448725876  0.4525198324085201  0.38765391848239655  1.0000
  H   H352      1.0  0.9269497958968245  0.4552259576009549  0.3080403908457679  1.0000
  H   H353      1.0  0.9879210717837835  0.45629438536241446  0.31494779340871126  1.0000
  H   H354      1.0  0.9522936342245534  0.43399482798859496  0.33744438435932633  1.0000
  H   H355      1.0  0.9208813504882667  0.502731648901511  0.318441217463661  1.0000
  H   H356      1.0  0.9821601969259985  0.5043351880043406  0.32522319042958114  1.0000
  H   H357      1.0  0.9426481242343381  0.5159267643763409  0.3550703683637228  1.0000
  H   H358      1.0  0.8729454531459766  0.47225731559370016  0.35019900360600026  1.0000
  H   H359      1.0  0.8956583727833493  0.48483483720422005  0.3870804171659133  1.0000
  H   H360      1.0  0.8989485730871681  0.450434081716978  0.3787002128851481  1.0000
  N   N15       1.0  0.6564265809499531  0.8805903320061796  0.37327928544624006  1.0000
  C   C345      1.0  0.6445308476008151  0.9081916512164873  0.3667593529515686  1.0000
  C   C346      1.0  0.6796339907153582  0.8693067344222715  0.34488261719010443  1.0000
  C   C347      1.0  0.6138809347852776  0.8657027041505155  0.3802438393499142  1.0000
  C   C348      1.0  0.6877407184629893  0.8791541690350351  0.4011823798669563  1.0000
  H   H361      1.0  0.6757696431771657  0.9200201762563679  0.36144876403177917  1.0000
  H   H362      1.0  0.6269245854794582  0.9173762895027118  0.38768312757313933  1.0000
  H   H363      1.0  0.62149000437195  0.9100622690906641  0.34552820125274775  1.0000
  H   H364      1.0  0.6863447614870486  0.8480414345079955  0.34792728524152994  1.0000
  H   H365      1.0  0.6587134953809154  0.8719354081537048  0.32280207508849107  1.0000
  H   H366      1.0  0.7133832059330493  0.8788964620590877  0.3403269859562088  1.0000
  H   H367      1.0  0.589853198226613  0.8660748867226272  0.35942003134134526  1.0000
  H   H368      1.0  0.5951882241595375  0.8739669449927653  0.40131754046277945  1.0000
  H   H369      1.0  0.6215315205284792  0.8448442017493663  0.3856442584441633  1.0000
  H   H370      1.0  0.7194099603918751  0.8910832363446234  0.39715976214379717  1.0000
  H   H371      1.0  0.6989295826559806  0.8587346423402693  0.40601375501759873  1.0000
  H   H372      1.0  0.6707805526311468  0.8865279828835609  0.42335736117067363  1.0000
  N   N16       1.0  0.020542894791482524  0.9127294279669005  0.39132422797372124  1.0000
  C   C349      1.0  0.003233172979292709  0.9386604778199542  0.3813322195648551  1.0000
  C   C350      1.0  0.003797737096704612  0.9066567953254803  0.42411093798650046  1.0000
  C   C351      1.0  0.07151075186609512  0.9129715137954595  0.3911031581058034  1.0000
  C   C352      1.0  0.0034321035561923896  0.8926696529843098  0.36875560669693835  1.0000
  H   H373      1.0  0.964869531534499  0.939507763037503  0.38252040559033007  1.0000
  H   H374      1.0  0.013747584613666097  0.9434520112346584  0.356266673874659  1.0000
  H   H375      1.0  0.017017593099155404  0.9544292876119226  0.3970369699724589  1.0000
  H   H376      1.0  0.015118514325957344  0.8869375936814095  0.4320791809785735  1.0000
  H   H377      1.0  0.016923736913203813  0.921012673003159  0.4419005697732696  1.0000
  H   H378      1.0  0.965472619338052  0.907160806873078  0.4254001348557609  1.0000
  H   H379      1.0  0.0859480561185173  0.8937811862942422  0.3986482025213275  1.0000
  H   H380      1.0  0.08535415245943279  0.9280269177439922  0.40789712093446195  1.0000
  H   H381      1.0  0.08542108738864007  0.9175238908101233  0.3667515820063819  1.0000
  H   H382      1.0  0.015330548783716091  0.8965881036210059  0.3437446519083437  1.0000
  H   H383      1.0  0.9650143428512798  0.8921749010425937  0.3684026917859264  1.0000
  H   H384      1.0  0.01550818866431336  0.8728008684443295  0.37560874516748416  1.0000
  N   N17       1.0  0.5181812299099452  0.3966810087476569  0.7982954424766968  1.0000
  C   C353      1.0  0.49136156902409894  0.4210267497963537  0.7944120122687776  1.0000
  C   C354      1.0  0.5674577827902882  0.40215853818590197  0.79220281591404  1.0000
  C   C355      1.0  0.5015476329404215  0.37690530110526976  0.775172163996489  1.0000
  C   C356      1.0  0.5123090208431222  0.3866714094813652  0.8314309009814455  1.0000
  H   H385      1.0  0.4954677757601202  0.4293994048656296  0.7698740583422516  1.0000
  H   H386      1.0  0.5023554753820568  0.4361981333507656  0.8119919921155915  1.0000
  H   H387      1.0  0.4538683330520491  0.41748349460027223  0.7982782283988983  1.0000
  H   H388      1.0  0.5890688687678992  0.3844556742052056  0.7958593763073898  1.0000
  H   H389      1.0  0.5733742849685106  0.4093060446897087  0.7672518626323611  1.0000
  H   H390      1.0  0.5807569167823765  0.41748859330895516  0.8086981037270498  1.0000
  H   H391      1.0  0.5210145095239664  0.35827567302882135  0.7773944862759474  1.0000
  H   H392      1.0  0.5049142819830297  0.3838969163833746  0.749925899428289  1.0000
  H   H393      1.0  0.46447863449684557  0.3722588653395125  0.7792534900292162  1.0000
  H   H394      1.0  0.47545003589733414  0.38262726529874147  0.8370116999549198  1.0000
  H   H395      1.0  0.5246264229911042  0.4010399512739984  0.8494556141302406  1.0000
  H   H396      1.0  0.531786210913702  0.36823861450877343  0.8352855043959541  1.0000
  N   N18       1.0  0.8974255109415327  0.9625193514228966  0.8636717133289243  1.0000
  C   C357      1.0  0.8573108087206363  0.9451246021921228  0.8685656656942199  1.0000
  C   C358      1.0  0.8976344933586735  0.9721217523331444  0.8301322244588151  1.0000
  C   C359      1.0  0.9402625620703268  0.9478087113676065  0.8700010345492214  1.0000
  C   C360      1.0  0.8944858209275323  0.9849661114677265  0.8859344511663512  1.0000
  H   H397      1.0  0.8587724440654282  0.9278497262287034  0.8523378631770329  1.0000
  H   H398      1.0  0.8243226020609352  0.9554160554995369  0.8636876773769112  1.0000
  H   H399      1.0  0.8560016072619046  0.9374099099048444  0.8936265583700036  1.0000
  H   H400      1.0  0.9276004782814892  0.9851809623092939  0.8254502938162739  1.0000
  H   H401      1.0  0.8994826383165134  0.9556120175515235  0.8127433537109667  1.0000
  H   H402      1.0  0.8657783827499331  0.9834174064997148  0.8247095707402944  1.0000
  H   H403      1.0  0.9434650281663579  0.930581310566433  0.8537910026303117  1.0000
  H   H404      1.0  0.9408870026920999  0.9400813437492814  0.8950648247799124  1.0000
  H   H405      1.0  0.9713708458816801  0.9602315923869845  0.8666769980443347  1.0000
  H   H406      1.0  0.9239392673279123  0.9986426688688089  0.8826554918375633  1.0000
  H   H407      1.0  0.8948978171472318  0.9784068381749464  0.9114906658098253  1.0000
  H   H408      1.0  0.8622245744962532  0.9963858478021401  0.8822080809015593  1.0000
  N   N19       1.0  0.004889404813186893  0.9068896706276818  0.5778022430997496  1.0000
  C   C361      1.0  0.9814536215996142  0.8955290286627026  0.606170987679851  1.0000
  C   C362      1.0  0.041915191081152825  0.8891222840257142  0.5670097411908498  1.0000
  C   C363      1.0  0.024971760677815036  0.9324839398384472  0.5864717292777806  1.0000
  C   C364      1.0  0.9711887352105104  0.9104137515012886  0.5515830938251318  1.0000
  H   H409      1.0  0.005833836437455053  0.8927047560777412  0.6265030308378453  1.0000
  H   H410      1.0  0.9659198230300788  0.8761719686718062  0.600498665455561  1.0000
  H   H411      1.0  0.9532039944537304  0.9084590502571122  0.6148368339105759  1.0000
  H   H412      1.0  0.06118680315555336  0.8975183677246584  0.5462283723291746  1.0000
  H   H413      1.0  0.06749977574674068  0.885660712805005  0.586463410545827  1.0000
  H   H414      1.0  0.02797420473963297  0.8698056416761847  0.559551208206552  1.0000
  H   H415      1.0  0.043886203020639725  0.941367515109874  0.5658244185824279  1.0000
  H   H416      1.0  0.05009708700928872  0.9306004197281568  0.6065314376793841  1.0000
  H   H417      1.0  0.9979357308987671  0.9465640636384571  0.5941632898654672  1.0000
  H   H418      1.0  0.987473813602259  0.9192814058495514  0.5298552428233506  1.0000
  H   H419      1.0  0.942545639624023  0.9235652313399276  0.5590145635509743  1.0000
  H   H420      1.0  0.9554614232145285  0.8914704225903132  0.5443345434329259  1.0000
  N   N20       1.0  0.07867516955141629  0.3229275273281345  0.5682819607519043  1.0000
  C   C365      1.0  0.09383992998757074  0.35052989126846784  0.5687966004647915  1.0000
  C   C366      1.0  0.05435639185100061  0.31661265017538753  0.5986299420598356  1.0000
  C   C367      1.0  0.11926516039213064  0.30574417395969783  0.5648083675920474  1.0000
  C   C368      1.0  0.04724930806111716  0.318830301201036  0.5408275421947607  1.0000
  H   H421      1.0  0.11313777007228598  0.35585489285870525  0.5465303916420279  1.0000
  H   H422      1.0  0.1171542926484479  0.354499136093834  0.5894126346206316  1.0000
  H   H423      1.0  0.06403152222176312  0.3640938489311398  0.5708913635502668  1.0000
  H   H424      1.0  0.04102641429026033  0.2961892264402448  0.5985688560295139  1.0000
  H   H425      1.0  0.07749114574314708  0.31851606706526325  0.6197996619721597  1.0000
  H   H426      1.0  0.024191182677144596  0.32967759415301073  0.6024427150092531  1.0000
  H   H427      1.0  0.10936473296515259  0.28470633299945797  0.5656142786749147  1.0000
  H   H428      1.0  0.1443801941080869  0.3089929539482503  0.5845441193481382  1.0000
  H   H429      1.0  0.13772691583366026  0.30938766559593917  0.54173923298051  1.0000
  H   H430      1.0  0.016774297933755067  0.3319741604943516  0.5422729583249974  1.0000
  H   H431      1.0  0.03391847577830709  0.29842000184576034  0.5402291846410684  1.0000
  H   H432      1.0  0.06470266583907369  0.3228384797475711  0.5174721132409302  1.0000
  N   N21       1.0  0.37832585737472796  0.37382874479594624  0.5272159685271168  1.0000
  C   C369      1.0  0.33826362111649283  0.3866701861571686  0.5424347945571077  1.0000
  C   C370      1.0  0.41447684656677924  0.39352127840347767  0.5206556469044485  1.0000
  C   C371      1.0  0.3639703149384153  0.3616887792055924  0.4965959922609359  1.0000
  C   C372      1.0  0.3964589749192075  0.3534910329060969  0.5491040095146229  1.0000
  H   H433      1.0  0.3106864436491322  0.3722854542700379  0.5482201567392923  1.0000
  H   H434      1.0  0.32297928628262734  0.4017306799958105  0.5263134928506241  1.0000
  H   H435      1.0  0.3478494802873437  0.39645457254633315  0.5653412737412082  1.0000
  H   H436      1.0  0.4015571736656256  0.4093569486474142  0.5046122685357867  1.0000
  H   H437      1.0  0.42685537454099354  0.4028674371001563  0.5431596741102556  1.0000
  H   H438      1.0  0.44480453479004123  0.3847269735054343  0.5082858743221919  1.0000
  H   H439      1.0  0.39324042907636303  0.3517677373805455  0.48436233891200253  1.0000
  H   H440      1.0  0.3503865553305808  0.37654231562986423  0.4794781097004959  1.0000
  H   H441      1.0  0.3361978786171596  0.34697488848269287  0.5003476797088199  1.0000
  H   H442      1.0  0.3700080920192354  0.3382791665093505  0.5544481920503149  1.0000
  H   H443      1.0  0.4071079812398733  0.36189792963270945  0.5726437541308004  1.0000
  H   H444      1.0  0.42693988199150734  0.343472100726989  0.5385519329930127  1.0000
  N   N22       1.0  0.741343217348658  0.1459739639331312  0.08545095413449055  1.0000
  C   C373      1.0  0.7097366786846792  0.12331202618959836  0.08501436851158783  1.0000
  C   C374      1.0  0.7806574327268708  0.14092504733815991  0.06368253816036984  1.0000
  C   C375      1.0  0.7583016013012832  0.15006913147065176  0.11853482088526213  1.0000
  C   C376      1.0  0.7166294349643983  0.1695970856939079  0.0744710536280293  1.0000
  H   H445      1.0  0.698680088813783  0.1187034291501383  0.06009676697650801  1.0000
  H   H446      1.0  0.6780363935971122  0.1271152630502448  0.09945437154511572  1.0000
  H   H447      1.0  0.7263423013188086  0.10545095944451122  0.09486461352065034  1.0000
  H   H448      1.0  0.8050947367898047  0.15770252419055053  0.06337442994849862  1.0000
  H   H449      1.0  0.8000415981678245  0.12316585722687166  0.07109506358768147  1.0000
  H   H450      1.0  0.7687531110085193  0.13778334620917745  0.03848036696782264  1.0000
  H   H451      1.0  0.781368666149786  0.16743112578608066  0.11995818216324627  1.0000
  H   H452      1.0  0.7776082524648518  0.1328111441831272  0.12757128381771388  1.0000
  H   H453      1.0  0.7292873790519613  0.15372457180308088  0.13547559796732944  1.0000
  H   H454      1.0  0.7056093803116958  0.1677181437149034  0.048978480772893906  1.0000
  H   H455      1.0  0.7385753718083243  0.18738924417948624  0.07625819549663726  1.0000
  H   H456      1.0  0.6853156286454591  0.17334112832187354  0.08933645849365934  1.0000
  N   N23       1.0  0.3652968675321515  0.948849349334823  0.3783900425266707  1.0000
  C   C377      1.0  0.35252914672282537  0.9630516676421639  0.3487344724907725  1.0000
  C   C378      1.0  0.4044349180206524  0.962191561642913  0.3940269820049582  1.0000
  C   C379      1.0  0.3786816714048094  0.9217940773056899  0.3701124842674484  1.0000
  C   C380      1.0  0.32545430861321034  0.9484060629753798  0.40062035284545233  1.0000
  H   H457      1.0  0.32287779027620206  0.9534734672945153  0.33643000351764124  1.0000
  H   H458      1.0  0.38164713006243056  0.9636312558405444  0.3312772004503678  1.0000
  H   H459      1.0  0.34234758643648666  0.9835720434873252  0.35407183181992624  1.0000
  H   H460      1.0  0.41490694369893094  0.9520137763180873  0.41654142757797025  1.0000
  H   H461      1.0  0.43517059462342045  0.9630504580429887  0.3780370371560138  1.0000
  H   H462      1.0  0.3955742006853211  0.9826607592430104  0.40075983888587363  1.0000
  H   H463      1.0  0.4094282424225525  0.9213381857485553  0.3540269025736883  1.0000
  H   H464      1.0  0.3505250819825615  0.9114704739682237  0.3572799536390932  1.0000
  H   H465      1.0  0.38701249779502683  0.9101387878946213  0.3919570171214757  1.0000
  H   H466      1.0  0.33245524915101393  0.9363499718525096  0.42240332716768386  1.0000
  H   H467      1.0  0.2944583963737708  0.9400780614014355  0.38881453537246335  1.0000
  H   H468      1.0  0.3162323412707769  0.968408369079289  0.40897353116178714  1.0000
  N   N24       1.0  0.7805859233673222  0.3794625150839558  0.6136522474011331  1.0000
  C   C381      1.0  0.8299546388009283  0.3744861674084601  0.6197295579233607  1.0000
  C   C382      1.0  0.7753658536933942  0.39311871112939645  0.5825173556908623  1.0000
  C   C383      1.0  0.7616184304354743  0.3958640200105336  0.639735659571959  1.0000
  C   C384      1.0  0.7554396443088363  0.3543350748831002  0.6126363403715925  1.0000
  H   H469      1.0  0.8502287762345215  0.3929301090536007  0.6201035636130955  1.0000
  H   H470      1.0  0.8451762423593099  0.3617569278528146  0.6008595365542351  1.0000
  H   H471      1.0  0.8352278578120426  0.3644879059728057  0.6432112361532891  1.0000
  H   H472      1.0  0.7385254925843202  0.3967048131541186  0.5766709488400471  1.0000
  H   H473      1.0  0.7936117947037966  0.41224770509987574  0.5823516756259522  1.0000
  H   H474      1.0  0.7898650682407422  0.3813512786852821  0.5624848819665527  1.0000
  H   H475      1.0  0.7244033533414727  0.3999731883998246  0.6359635440114874  1.0000
  H   H476      1.0  0.7800121396946857  0.41490214444196544  0.6413749810108885  1.0000
  H   H477      1.0  0.7649911460815249  0.3860182156873104  0.6635537124546579  1.0000
  H   H478      1.0  0.7692374033666709  0.3413452420123157  0.5934316574399975  1.0000
  H   H479      1.0  0.7181746279349485  0.3572697752767816  0.6076772975595623  1.0000
  H   H480      1.0  0.7582631370211752  0.3436347346729694  0.6359198994950336  1.0000
  N   N25       1.0  0.3905367174391759  0.34180912374919203  0.038462368887839604  1.0000
  C   C385      1.0  0.3445051078972913  0.3449536899794256  0.02387678376255109  1.0000
  C   C386      1.0  0.3886688277801083  0.32113304273125937  0.06332957748256529  1.0000
  C   C387      1.0  0.40481004932342807  0.3667160601160476  0.05340647937089905  1.0000
  C   C388      1.0  0.42405307808763765  0.3344778580795803  0.013249361995959719  1.0000
  H   H481      1.0  0.3444708291745331  0.36038117553745114  0.004928067288357596  1.0000
  H   H482      1.0  0.3185729917280869  0.35072084131137227  0.04220119024598534  1.0000
  H   H483      1.0  0.3321976019236802  0.32647320159302445  0.012731408300632687  1.0000
  H   H484      1.0  0.42282432858069036  0.3178792199281196  0.07473365649374446  1.0000
  H   H485      1.0  0.3640962940748053  0.32622777742622616  0.08294044186245356  1.0000
  H   H486      1.0  0.3771090563954926  0.3020899302508085  0.05319089039366088  1.0000
  H   H487      1.0  0.3805197683065522  0.3725976976416076  0.07285917233163149  1.0000
  H   H488      1.0  0.40562339312136303  0.38292609532854494  0.0354976304562975  1.0000
  H   H489      1.0  0.4395950584243819  0.36518326683336355  0.06438854631262385  1.0000
  H   H490      1.0  0.41416738264072345  0.3157698839805869  0.0014828874062164932  1.0000
  H   H491      1.0  0.4591990094774404  0.3319039959495489  0.023403463432800864  1.0000
  H   H492      1.0  0.42621326408744364  0.3497485709826136  0.9941379146948018  1.0000
  N   N26       1.0  0.2970757489253683  0.22420140441026865  0.6406950556275057  1.0000
  C   C389      1.0  0.27777317367083537  0.2324386073415817  0.672008035035172  1.0000
  C   C390      1.0  0.34036410755576746  0.20963576807852227  0.6459806485713008  1.0000
  C   C391      1.0  0.30656352023527406  0.24756092333857999  0.620753432737044  1.0000
  C   C392      1.0  0.2635612735975209  0.20720710538952034  0.624052774982212  1.0000
  H   H493      1.0  0.24477660354463382  0.2432550783688799  0.668872315287667  1.0000
  H   H494      1.0  0.30196584715303104  0.24555554261052095  0.685044890252417  1.0000
  H   H495      1.0  0.2706437586657529  0.21537241990506367  0.6878769649094406  1.0000
  H   H496      1.0  0.3557938076426667  0.2029166592804821  0.6229136342626342  1.0000
  H   H497      1.0  0.36651332057404856  0.2220022612872602  0.6581187334589287  1.0000
  H   H498      1.0  0.33482668749356714  0.1921335929517945  0.6614633671675789  1.0000
  H   H499      1.0  0.3217313671551207  0.2421985406384822  0.5970874188947526  1.0000
  H   H500      1.0  0.3312003913720854  0.26101637386297627  0.6328074377271252  1.0000
  H   H501      1.0  0.27454017298710626  0.258850368493127  0.6160397411255483  1.0000
  H   H502      1.0  0.2768158303477316  0.20076543545044168  0.600218289322158  1.0000
  H   H503      1.0  0.2303954804391772  0.21758563718511756  0.6198136399718175  1.0000
  H   H504      1.0  0.2556128884821859  0.18939147653641422  0.6384408028208578  1.0000
  N   N27       1.0  0.21019235719582782  0.6952830171417711  0.7791723965791556  1.0000
  C   C393      1.0  0.25487987030492715  0.7084328069550047  0.7734815454859686  1.0000
  C   C394      1.0  0.2165187815169795  0.666621803056045  0.7779758737976175  1.0000
  C   C395      1.0  0.17716589751322892  0.7033256283633527  0.754067172269923  1.0000
  C   C396      1.0  0.19213189408429002  0.702787285032988  0.8111166769858262  1.0000
  H   H505      1.0  0.251460141225643  0.7301176004276435  0.7744738820431543  1.0000
  H   H506      1.0  0.2691808212437854  0.7036281875680243  0.7493307842760635  1.0000
  H   H507      1.0  0.28093631741902664  0.7026558264321767  0.791724158420307  1.0000
  H   H508      1.0  0.23041354034345332  0.6602527763241692  0.7542801024548643  1.0000
  H   H509      1.0  0.24062973396303136  0.659752518352187  0.7969563732101982  1.0000
  H   H510      1.0  0.18332750769665782  0.6561443827124821  0.7817731486113152  1.0000
  H   H511      1.0  0.1886902966971943  0.6969067763042653  0.7298072263750893  1.0000
  H   H512      1.0  0.17280029383536  0.7249412913614919  0.7534509786908633  1.0000
  H   H513      1.0  0.14258949877744448  0.6946497717788203  0.7581521565500574  1.0000
  H   H514      1.0  0.18688963047931198  0.7242850381779854  0.8128684653281405  1.0000
  H   H515      1.0  0.2159459007860663  0.6968000311430984  0.8307198888972767  1.0000
  H   H516      1.0  0.15839372013256253  0.6932352082355816  0.8161708402730852  1.0000
  N   N28       1.0  0.056319618689107294  0.3554355882719367  0.7400214859884381  1.0000
  C   C397      1.0  0.07124772401920428  0.3347109910579368  0.7625038106659717  1.0000
  C   C398      1.0  0.005530602198223101  0.35768081417541  0.7410235602998051  1.0000
  C   C399      1.0  0.07121230746924624  0.3487438019796913  0.7070260705536985  1.0000
  C   C400      1.0  0.07749594453382408  0.38054252501249936  0.749531670982803  1.0000
  H   H517      1.0  0.1093167624000649  0.3318070818034864  0.7614543600784554  1.0000
  H   H518      1.0  0.05458013780469373  0.315672305424476  0.7567639102517201  1.0000
  H   H519      1.0  0.06201533052211872  0.3395422133058769  0.78777095275662  1.0000
  H   H520      1.0  0.9928966657122151  0.37293758553597606  0.724119818507181  1.0000
  H   H521      1.0  0.9886717829002761  0.33888604642332404  0.7341860461898293  1.0000
  H   H522      1.0  0.9930075880230937  0.36282592590357593  0.7655365037925331  1.0000
  H   H523      1.0  0.05434808874973096  0.3305003109709667  0.6985438871790334  1.0000
  H   H524      1.0  0.10919214466618091  0.34565930940005807  0.7057833909209267  1.0000
  H   H525      1.0  0.06238805352171184  0.3644769832893393  0.689630812722123  1.0000
  H   H526      1.0  0.06728223465391714  0.39664962660477193  0.7330214537429958  1.0000
  H   H527      1.0  0.11585966214012587  0.3793181155977966  0.7490029969190478  1.0000
  H   H528      1.0  0.06716817896589768  0.3862316643172113  0.7743344278531767  1.0000
  N   N29       1.0  0.48762500468940895  0.1800420668913805  0.8118449072575343  1.0000
  C   C401      1.0  0.4461988633383261  0.18637144704991668  0.7927709046390413  1.0000
  C   C402      1.0  0.4830274949866047  0.19116274381493967  0.8444660507392159  1.0000
  C   C403      1.0  0.5287259650267125  0.19127841016409713  0.7959510740362077  1.0000
  C   C404      1.0  0.49264533649101916  0.15135071278583703  0.814161216230967  1.0000
  H   H529      1.0  0.44842917039260477  0.17800739189069678  0.7681004311879147  1.0000
  H   H530      1.0  0.44179727354839005  0.20788131655599892  0.7898395343937605  1.0000
  H   H531      1.0  0.4143466117318028  0.1785060459448918  0.8041360655355623  1.0000
  H   H532      1.0  0.5138329798560521  0.1866604982125545  0.8594131464610874  1.0000
  H   H533      1.0  0.47919885455643335  0.21280771370995846  0.8435737472806859  1.0000
  H   H534      1.0  0.45237924476216623  0.18307993988561325  0.8572051397939479  1.0000
  H   H535      1.0  0.5333846967849324  0.18321307853159008  0.7713769700159463  1.0000
  H   H536      1.0  0.5607949734044805  0.1867826564992683  0.8095217873127106  1.0000
  H   H537      1.0  0.5260331093307052  0.21288306281441938  0.7934201791982703  1.0000
  H   H538      1.0  0.5238828724082197  0.1458334340853053  0.8281142160458389  1.0000
  H   H539      1.0  0.49597407262843507  0.14231202641183807  0.7899277262195009  1.0000
  H   H540      1.0  0.4624748285762416  0.1421337986922854  0.8262281898249201  1.0000
  N   N30       1.0  0.15996985561379692  0.5448330999664325  0.48515315027540107  1.0000
  C   C405      1.0  0.1211648055348966  0.5320534271023802  0.502089778709395  1.0000
  C   C406      1.0  0.1966393997630495  0.5254207580876771  0.47898857161782915  1.0000
  C   C407      1.0  0.17832119954114758  0.5662721923684882  0.5052076910611889  1.0000
  C   C408      1.0  0.1436289506051391  0.555618480249774  0.45424867231857546  1.0000
  H   H541      1.0  0.09313369154162258  0.5462380516405098  0.5074712156574289  1.0000
  H   H542      1.0  0.1322972685149899  0.5233504566610389  0.5253402171004351  1.0000
  H   H543      1.0  0.10578259934451129  0.5161816759344311  0.4872944131994069  1.0000
  H   H544      1.0  0.22656523593723424  0.5343391530152763  0.46620608113604267  1.0000
  H   H545      1.0  0.20982001836464606  0.5167105237876789  0.5016990102533412  1.0000
  H   H546      1.0  0.18403408144052524  0.5090840594676577  0.4636563569902203  1.0000
  H   H547      1.0  0.1908363188517179  0.558901688180381  0.5288120851329053  1.0000
  H   H548      1.0  0.15145209357331382  0.5812985198658273  0.5101891774429703  1.0000
  H   H549      1.0  0.20758327109832175  0.5763875629027845  0.4930893451065065  1.0000
  H   H550      1.0  0.1720983646676152  0.5650207810131989  0.4405032500965719  1.0000
  H   H551      1.0  0.11670786903695264  0.5707213845586651  0.45800771645403415  1.0000
  H   H552      1.0  0.12833872156313905  0.5401394690166157  0.43878411507461484  1.0000
  N   N31       1.0  0.6341601586876485  0.49111819234311477  0.42983213950778765  1.0000
  C   C409      1.0  0.6624303122829527  0.4782615469611027  0.4049023705373643  1.0000
  C   C410      1.0  0.6486924412046076  0.5187042503795343  0.4328376399913854  1.0000
  C   C411      1.0  0.6407762118262982  0.47764624573264924  0.4609540603711968  1.0000
  C   C412      1.0  0.585051325375866  0.48974758746080405  0.4206203461540079  1.0000
  H   H553      1.0  0.6531655775754586  0.45730549828959993  0.4024749821190459  1.0000
  H   H554      1.0  0.699684471201571  0.4792156813004141  0.4109024849381686  1.0000
  H   H555      1.0  0.6577679329227606  0.48749481168550685  0.38089699192358883  1.0000
  H   H556      1.0  0.6281961896119034  0.5291146073832785  0.45146873222617245  1.0000
  H   H557      1.0  0.6857405964339164  0.520149557094228  0.43979595457674026  1.0000
  H   H558      1.0  0.6445982595256243  0.5294181348529422  0.40970556267170993  1.0000
  H   H559      1.0  0.6203546566396301  0.4870007497582649  0.4804440473223766  1.0000
  H   H560      1.0  0.6776773148317964  0.4779468346552676  0.468360703260256  1.0000
  H   H561      1.0  0.6297579261947072  0.4568126804671057  0.4596060314747603  1.0000
  H   H562      1.0  0.5624624677989398  0.4989489813290415  0.4390494693494806  1.0000
  H   H563      1.0  0.5734333662367704  0.46909181100705527  0.4179007537223887  1.0000
  H   H564      1.0  0.5786909610315312  0.49969871484378786  0.39723757842287655  1.0000
  N   N32       1.0  0.2652298563142729  0.7983681732315348  0.6190487767707777  1.0000
  C   C413      1.0  0.27840021309046026  0.8131397590303038  0.5898493411644555  1.0000
  C   C414      1.0  0.30731171418575143  0.7893761837207688  0.6356536562065179  1.0000
  C   C415      1.0  0.23678127943889818  0.7755918372047693  0.6099571492738152  1.0000
  C   C416      1.0  0.23852783219194015  0.8154378473719343  0.6408202674781371  1.0000
  H   H565      1.0  0.2477573554292561  0.8214748354341134  0.5774968188012322  1.0000
  H   H566      1.0  0.29710259943536066  0.8005820538609258  0.5723449919718372  1.0000
  H   H567      1.0  0.30166591783982505  0.8297190124241058  0.595840114678651  1.0000
  H   H568      1.0  0.32954764792027186  0.8061969749790499  0.642625975136983  1.0000
  H   H569      1.0  0.29891004658598896  0.7784647782308036  0.6580720864154617  1.0000
  H   H570      1.0  0.32831081274332613  0.7762806670763004  0.6201483733157612  1.0000
  H   H571      1.0  0.2262295810550949  0.7641070433122239  0.6314866682321639  1.0000
  H   H572      1.0  0.255845641227189  0.7621352818958326  0.5936858787354887  1.0000
  H   H573      1.0  0.20471583992490897  0.7817576091549331  0.597448464089636  1.0000
  H   H574      1.0  0.22695432617455133  0.8047006654621247  0.6626663118359661  1.0000
  H   H575      1.0  0.2074447719937571  0.8235606590787404  0.6288354332008889  1.0000
  H   H576      1.0  0.2595918542901221  0.8322157429722825  0.649165311262768  1.0000
  N   N33       1.0  0.19402254762943594  0.8792116464103293  0.9006386541951215  1.0000
  C   C417      1.0  0.1590190737620496  0.8665776077733136  0.921406290239096  1.0000
  C   C418      1.0  0.2390086171945307  0.8661536794267227  0.9049969291618969  1.0000
  C   C419      1.0  0.19813886360472788  0.9069676806766512  0.9097771993727545  1.0000
  C   C420      1.0  0.179932964413142  0.8773123440932661  0.8665877393045524  1.0000
  H   H577      1.0  0.12477164873944546  0.876191407342026  0.9189225777881391  1.0000
  H   H578      1.0  0.1685787365887379  0.8679262036903909  0.9473000609037039  1.0000
  H   H579      1.0  0.15472952140036522  0.8455379522409241  0.9154052291465377  1.0000
  H   H580      1.0  0.2662203927130584  0.8753685707572934  0.8897835438822125  1.0000
  H   H581      1.0  0.25087511951924846  0.8673646389200564  0.9303950458235849  1.0000
  H   H582      1.0  0.2373256419174008  0.8451491754221574  0.8982470128819849  1.0000
  H   H583      1.0  0.16491032617141577  0.9175913532419046  0.9071424886215876  1.0000
  H   H584      1.0  0.22418731513296697  0.9174508741883356  0.8950760532419034  1.0000
  H   H585      1.0  0.20898447471147774  0.9089342948143964  0.935216715993833  1.0000
  H   H586      1.0  0.14649333869565018  0.8873241441766853  0.8623144265704773  1.0000
  H   H587      1.0  0.17628331068232228  0.8566034868720732  0.8588820783809424  1.0000
  H   H588      1.0  0.20589863859017465  0.886484656753672  0.8503113706678462  1.0000
  N   N34       1.0  0.8688988183004929  0.3444172508093045  0.9363869376162062  1.0000
  C   C421      1.0  0.8962440270735792  0.34955649844021935  0.9070123011332019  1.0000
  C   C422      1.0  0.8930637150660421  0.3553998535460172  0.9645447750796886  1.0000
  C   C423      1.0  0.8629118721261928  0.3159425763038107  0.9407132318424923  1.0000
  C   C424      1.0  0.8232524094943083  0.35687136691523363  0.9332451683662908  1.0000
  H   H589      1.0  0.9009504996278622  0.37094146562056357  0.9029115301130372  1.0000
  H   H590      1.0  0.878946091729876  0.34169190398515514  0.8851750658490783  1.0000
  H   H591      1.0  0.9310744537264953  0.3406220298868524  0.9084131141902506  1.0000
  H   H592      1.0  0.8724522558142207  0.352959252875809  0.9870089964950763  1.0000
  H   H593      1.0  0.9270121091286159  0.34586585804695785  0.9684313410298216  1.0000
  H   H594      1.0  0.8995399065251026  0.3767074790443653  0.9614087698346748  1.0000
  H   H595      1.0  0.8425466232327238  0.311508737446486  0.9628103447585646  1.0000
  H   H596      1.0  0.8967102259022615  0.3058628345509456  0.9429725024922399  1.0000
  H   H597      1.0  0.8444501151476849  0.30714027964855894  0.9199293481567711  1.0000
  H   H598      1.0  0.8012145852653877  0.3531845212913873  0.954752792365088  1.0000
  H   H599      1.0  0.8044167818371825  0.34968154681925895  0.9117184793048656  1.0000
  H   H600      1.0  0.8265062168557687  0.37841690608678796  0.9307422861569149  1.0000
  N   N35       1.0  0.1887830678143786  0.4783383822763765  0.8947588789326026  1.0000
  C   C425      1.0  0.21300699951299382  0.47953885538228486  0.863465061883126  1.0000
  C   C426      1.0  0.21793574880940378  0.46447794573491497  0.9183885553382464  1.0000
  C   C427      1.0  0.14464349232222976  0.4642871692677281  0.8909241332361759  1.0000
  C   C428      1.0  0.17953206727188548  0.5051459512852842  0.9061977037566494  1.0000
  H   H601      1.0  0.22064290438665218  0.45964865069574845  0.8540638799393842  1.0000
  H   H602      1.0  0.246550444877358  0.4899761636044107  0.8655414653995929  1.0000
  H   H603      1.0  0.19226234629886785  0.4900818937200464  0.845096472756474  1.0000
  H   H604      1.0  0.22487436381873493  0.4439825714629916  0.9108317719285582  1.0000
  H   H605      1.0  0.25194828534861863  0.4742848170788161  0.9213129327351619  1.0000
  H   H606      1.0  0.20137669831382718  0.4635895501988864  0.9425234205081942  1.0000
  H   H607      1.0  0.15020820390508782  0.44397246991548667  0.8822207843452208  1.0000
  H   H608      1.0  0.12176189326805853  0.4744500432251188  0.8734155767082756  1.0000
  H   H609      1.0  0.12548922908566115  0.4631282045161175  0.9141086099017395  1.0000
  H   H610      1.0  0.1609441743680014  0.5051337039979467  0.9296300379721733  1.0000
  H   H611      1.0  0.15816775055828686  0.5162942176334723  0.8887344939452355  1.0000
  H   H612      1.0  0.21201377088735643  0.5161737533545424  0.909547948122712  1.0000
  N   N36       1.0  0.6004368170539011  0.8081417000342876  0.8163409748889905  1.0000
  C   C429      1.0  0.5850886250006986  0.7966622015712667  0.78556164135453  1.0000
  C   C430      1.0  0.6099112017898909  0.8363018089959281  0.8118345618685681  1.0000
  C   C431      1.0  0.6428246586783118  0.7948470972515688  0.8272095151080329  1.0000
  C   C432      1.0  0.5637935569780025  0.8048450392836674  0.8407552119546887  1.0000
  H   H613      1.0  0.6108746971571161  0.7999260114825971  0.7660680529907824  1.0000
  H   H614      1.0  0.5521005756350447  0.8055077915595376  0.7774189445235383  1.0000
  H   H615      1.0  0.579423934091138  0.7752299721375655  0.7876599941328942  1.0000
  H   H616      1.0  0.6356462301339314  0.8396489112550021  0.7923184696755375  1.0000
  H   H617      1.0  0.5779792981416151  0.8471689264139298  0.8054928939727896  1.0000
  H   H618      1.0  0.6243392033921237  0.8452938729508788  0.8339879146952067  1.0000
  H   H619      1.0  0.6370590084746574  0.7736007511303599  0.8312354613609809  1.0000
  H   H620      1.0  0.6561561809305095  0.8034782327457046  0.8499253158660269  1.0000
  H   H621      1.0  0.6708907747588339  0.7968567201112565  0.8091305378561081  1.0000
  H   H622      1.0  0.5741299211040171  0.813450448914366  0.8642210592887972  1.0000
  H   H623      1.0  0.5556227332209828  0.7838376137492974  0.8447708088701199  1.0000
  H   H624      1.0  0.5313422467341247  0.8147100823677024  0.8330903036015475  1.0000
  N   N37       1.0  0.05674040454021978  0.38929089193961947  0.09775580321614474  1.0000
  C   C433      1.0  0.024246565173312362  0.4114987149595947  0.09895530998333135  1.0000
  C   C434      1.0  0.036012237027695626  0.36782133443150583  0.07895597029259149  1.0000
  C   C435      1.0  0.066456028478594  0.38013387838093793  0.1308025847896468  1.0000
  C   C436      1.0  0.10025711497803425  0.3976196113727394  0.08225150807993087  1.0000
  H   H625      1.0  0.038572420425164955  0.42819729283226887  0.11279693298830651  1.0000
  H   H626      1.0  0.9911439848341306  0.4057069245493893  0.11051500298029793  1.0000
  H   H627      1.0  0.01550031601495605  0.41862554849121214  0.07440424627107878  1.0000
  H   H628      1.0  0.0604765641077738  0.351261015451642  0.07608821096217278  1.0000
  H   H629      1.0  0.004299134986713415  0.3601225366002192  0.0908124197187361  1.0000
  H   H630      1.0  0.02588292136359449  0.3744247451553837  0.05447638478423977  1.0000
  H   H631      1.0  0.07927689020688167  0.3962436249842377  0.1463070910051436  1.0000
  H   H632      1.0  0.09333723091627388  0.36466740378814844  0.13086283428152123  1.0000
  H   H633      1.0  0.03519483642771659  0.3717142468497359  0.1424912074969431  1.0000
  H   H634      1.0  0.12529578195412494  0.3811055497713431  0.0808711899009138  1.0000
  H   H635      1.0  0.11717438331400443  0.413632671351708  0.09593461555351834  1.0000
  H   H636      1.0  0.09432082935915242  0.40467017235592306  0.05727599557395591  1.0000
  N   N38       1.0  0.9150011526324408  0.7650679938594819  0.0533787851122387  1.0000
  C   C437      1.0  0.9161195944359213  0.771990182725697  0.01884209718755092  1.0000
  C   C438      1.0  0.8668233952308106  0.760713653639862  0.06370422048742519  1.0000
  C   C439      1.0  0.9349318895400854  0.7867064764939444  0.0722850008598952  1.0000
  C   C440      1.0  0.9420954157724165  0.7409842127453753  0.05877994336631054  1.0000
  H   H637      1.0  0.9013321316577059  0.7561292734486903  0.003767157099947349  1.0000
  H   H638      1.0  0.9520071315423905  0.7755745403535941  0.010365060315037145  1.0000
  H   H639      1.0  0.8959319798260779  0.7900985652015837  0.013945771971969334  1.0000
  H   H640      1.0  0.8648385649280224  0.7554867085362835  0.08972649019773327  1.0000
  H   H641      1.0  0.8455020922021611  0.7785852739718501  0.06001075709848558  1.0000
  H   H642      1.0  0.8505116445329058  0.7445714702446224  0.049908460718187664  1.0000
  H   H643      1.0  0.9334310513987663  0.7824026301141993  0.09853779269906204  1.0000
  H   H644      1.0  0.9159544399309898  0.8052821245244096  0.06801894414937348  1.0000
  H   H645      1.0  0.9716137331465304  0.7902204201959038  0.0656355110660245  1.0000
  H   H646      1.0  0.9415500848554783  0.7350622285808597  0.08457792710963075  1.0000
  H   H647      1.0  0.9788534646638626  0.7436558916726768  0.05163857898995805  1.0000
  H   H648      1.0  0.9284030159718806  0.7242912811972149  0.04457700957556887  1.0000
  N   N39       1.0  0.9718777418711083  0.5803674291177343  0.8097936519021013  1.0000
  C   C441      1.0  0.9474920836336479  0.5736769049319239  0.7797526665616142  1.0000
  C   C442      1.0  0.9420612918100048  0.5742276750467344  0.837687059373406  1.0000
  C   C443      1.0  0.9831797378657798  0.6085663672305678  0.809759301133231  1.0000
  C   C444      1.0  0.014779760925823116  0.5649314938226293  0.8118919326943429  1.0000
  H   H649      1.0  0.9691154767156527  0.5780606613168608  0.7582025789702475  1.0000
  H   H650      1.0  0.9149283434532182  0.5849791023723213  0.7773433921375557  1.0000
  H   H651      1.0  0.938460057710582  0.5525188136629202  0.7790300154471409  1.0000
  H   H652      1.0  0.9331972608538152  0.5530295376192105  0.8386327209741249  1.0000
  H   H653      1.0  0.9593139164832922  0.5791388445342623  0.8607646707734058  1.0000
  H   H654      1.0  0.9091165111967209  0.5852973543408587  0.8368785342678652  1.0000
  H   H655      1.0  0.0042817543637518884  0.6140189748079782  0.7883879806130265  1.0000
  H   H656      1.0  0.0032268046262671213  0.6141837051097445  0.8314890644130593  1.0000
  H   H657      1.0  0.9515599048273645  0.6208297148175608  0.8092630694743984  1.0000
  H   H658      1.0  0.034739276402594665  0.5699092024813683  0.8338412841587138  1.0000
  H   H659      1.0  0.037615082356458274  0.568497895790634  0.7908245757629714  1.0000
  H   H660      1.0  0.007514096444634744  0.5435611817292805  0.8130378913771976  1.0000
  N   N40       1.0  0.747832801051181  0.1987020405066721  0.7253096783750169  1.0000
  C   C445      1.0  0.7781700260357193  0.18076645872379063  0.707203680714523  1.0000
  C   C446      1.0  0.7022147155178025  0.19989332987826794  0.7096695165228453  1.0000
  C   C447      1.0  0.7685211259251097  0.22513012037854627  0.7257516095290963  1.0000
  C   C448      1.0  0.7423897626102809  0.18893702307369759  0.7585843010779932  1.0000
  H   H661      1.0  0.813091875412701  0.1796564558118582  0.7180722445151378  1.0000
  H   H662      1.0  0.7828448283530988  0.18738819882761884  0.6819534535969369  1.0000
  H   H663      1.0  0.763665779139412  0.16062786448178323  0.70638614176385  1.0000
  H   H664      1.0  0.7044635789552678  0.20892903616509872  0.6854458728374649  1.0000
  H   H665      1.0  0.6870118706088942  0.1800598389613352  0.7067484545928053  1.0000
  H   H666      1.0  0.677323576671104  0.21169978419284358  0.7239258996878034  1.0000
  H   H667      1.0  0.7463407931252835  0.239253643963464  0.7389370384424053  1.0000
  H   H668      1.0  0.7734030688750394  0.23289654734069293  0.70091127769812  1.0000
  H   H669      1.0  0.8030528312089554  0.22504173337734018  0.7373033454857535  1.0000
  H   H670      1.0  0.727409417208921  0.1688642666953355  0.7589150705686268  1.0000
  H   H671      1.0  0.718675781724111  0.2015525297697796  0.7727813338105892  1.0000
  H   H672      1.0  0.7759789819403344  0.18814297342734562  0.7713480823392197  1.0000
  N   N41       1.0  0.709757141187238  0.8588782777501134  0.599550268034366  1.0000
  C   C449      1.0  0.6604014733943581  0.8605247020690927  0.6081497231147234  1.0000
  C   C450      1.0  0.7145931120369413  0.8528052509861119  0.5649522163953979  1.0000
  C   C451      1.0  0.731711225923462  0.8380348722647453  0.61872062237404  1.0000
  C   C452      1.0  0.7325085501496047  0.8840857097137134  0.6065365402859411  1.0000
  H   H673      1.0  0.6424477013142693  0.8758950794762513  0.5939901466116844  1.0000
  H   H674      1.0  0.6556537687480437  0.8650541660615799  0.6341629551218904  1.0000
  H   H675      1.0  0.6424291575943192  0.8415977032353277  0.6038367974515378  1.0000
  H   H676      1.0  0.7515105543959776  0.8511698152106026  0.5578112753911029  1.0000
  H   H677      1.0  0.697807790441142  0.8338785637200093  0.5589091472941022  1.0000
  H   H678      1.0  0.6987645258396198  0.868249316788351  0.5496342296021797  1.0000
  H   H679      1.0  0.7148114932148638  0.8187506524581307  0.6147866096172955  1.0000
  H   H680      1.0  0.7296085053226807  0.8422899792995118  0.6449123445167212  1.0000
  H   H681      1.0  0.7686396985012446  0.8358821411770814  0.6124627961495754  1.0000
  H   H682      1.0  0.7698893769540529  0.8833454668400611  0.6005918475949464  1.0000
  H   H683      1.0  0.7295677696310147  0.8891917131652722  0.6324901036128243  1.0000
  H   H684      1.0  0.7170560659923362  0.9003069002891649  0.5923393729357048  1.0000
  N   N42       1.0  0.7108829360357726  0.016362250689406777  0.4981719039479896  1.0000
  C   C453      1.0  0.6851161872931377  0.035920916984967466  0.5171911273993018  1.0000
  C   C454      1.0  0.759649639599939  0.016057135161017255  0.5083720555737967  1.0000
  C   C455      1.0  0.7082140500149418  0.023196202364545115  0.46367095623822896  1.0000
  C   C456      1.0  0.6904592964735504  0.9902167242725147  0.5033713569061896  1.0000
  H   H685      1.0  0.6480011151002859  0.03628601006728793  0.5104864539526373  1.0000
  H   H686      1.0  0.6986013376602327  0.05606155916273159  0.5132066564797346  1.0000
  H   H687      1.0  0.6868993452016906  0.03173831031977947  0.5434177976737059  1.0000
  H   H688      1.0  0.7800995063941228  0.0015497792119265608  0.4943689065296404  1.0000
  H   H689      1.0  0.7761574111091736  0.03551338458795272  0.5049348163858677  1.0000
  H   H690      1.0  0.7630601351971829  0.010709259333923749  0.5342269522105111  1.0000
  H   H691      1.0  0.7269631711027839  0.008773952591663914  0.44849896153292035  1.0000
  H   H692      1.0  0.7231302649446663  0.042847915658024815  0.4587675904728209  1.0000
  H   H693      1.0  0.6719001647651185  0.02357577620845519  0.4551755399160177  1.0000
  H   H694      1.0  0.6539715976394009  0.9895277847400687  0.4951834854127598  1.0000
  H   H695      1.0  0.6909457502298881  0.9845542048144242  0.5292046298684371  1.0000
  H   H696      1.0  0.7096349008093866  0.9749151282958907  0.48987680570114744  1.0000
  N   N43       1.0  0.5175758131367747  0.8778199293680381  0.17825171289873834  1.0000
  C   C457      1.0  0.5103939219559375  0.8492678629575304  0.1807240492200822  1.0000
  C   C458      1.0  0.5584607913353673  0.883126790247551  0.15798202332883512  1.0000
  C   C459      1.0  0.5249876892038825  0.888751531034158  0.21070868303856405  1.0000
  C   C460      1.0  0.4765343377094693  0.8900937303763858  0.16367718311647517  1.0000
  H   H697      1.0  0.5036941524929205  0.8403876915470855  0.15679275134841586  1.0000
  H   H698      1.0  0.4805922828083465  0.8444691087136771  0.19658878786172024  1.0000
  H   H699      1.0  0.5411275836770986  0.8393430547126854  0.19106399409410482  1.0000
  H   H700      1.0  0.5655509442330355  0.9044644205258723  0.15612566741519524  1.0000
  H   H701      1.0  0.5898973570124243  0.873711808081197  0.16806844114197797  1.0000
  H   H702      1.0  0.5538308066795505  0.8754542047072397  0.13317611736031765  1.0000
  H   H703      1.0  0.49556299007920784  0.8843094868029371  0.2270867184341937  1.0000
  H   H704      1.0  0.5290765765123094  0.9103672043262848  0.20997448761752324  1.0000
  H   H705      1.0  0.5564723152242707  0.8804748531692452  0.22192326243069754  1.0000
  H   H706      1.0  0.4802531892128825  0.9117134555461816  0.16182747213064522  1.0000
  H   H707      1.0  0.4451890820810011  0.8863671688954402  0.17837986356248053  1.0000
  H   H708      1.0  0.4696290642524884  0.8824377314770183  0.13912339482383618  1.0000
  N   N44       1.0  0.7020017435933287  0.9599421467106181  0.024727365591443062  1.0000
  C   C461      1.0  0.6549153121695852  0.9551285358583019  0.03700487872337943  1.0000
  C   C462      1.0  0.7219918911731026  0.9352330770464752  0.012700835971621416  1.0000
  C   C463      1.0  0.7310234899251629  0.9702690679869928  0.0509663089143515  1.0000
  C   C464      1.0  0.7000698462314  0.97921855927328  0.9982533944922704  1.0000
  H   H709      1.0  0.6387977958112919  0.9735309735100325  0.0458666071944851  1.0000
  H   H710      1.0  0.6549719906355107  0.9407913431558002  0.057198707818168826  1.0000
  H   H711      1.0  0.632029609042156  0.9474008010372139  0.017787984527174006  1.0000
  H   H712      1.0  0.7582238154566542  0.9380601349728428  0.004417801535694599  1.0000
  H   H713      1.0  0.7225505956710899  0.9199479880709539  0.031774217847711395  1.0000
  H   H714      1.0  0.7020039900210014  0.9273778407459694  0.992069195986459  1.0000
  H   H715      1.0  0.7669385325846416  0.9739076923884399  0.04261026787582467  1.0000
  H   H716      1.0  0.7328815391939627  0.9563057182609535  0.07148966847885085  1.0000
  H   H717      1.0  0.7173352511683261  0.9890872394271336  0.06033429151928282  1.0000
  H   H718      1.0  0.7344345116137011  0.9823100528172435  0.9872624787638682  1.0000
  H   H719      1.0  0.6876142696656572  0.9985608778189178  0.006825648760597769  1.0000
  H   H720      1.0  0.6764141736626337  0.9728273672375708  0.9787611663345892  1.0000
  N   N45       1.0  0.3409937467318247  0.9575868940192986  0.5988267330570072  1.0000
  C   C465      1.0  0.3792371750456775  0.9635997977927602  0.6210095455654935  1.0000
  C   C466      1.0  0.3341320983543001  0.9798053527483357  0.5765668730035995  1.0000
  C   C467      1.0  0.29834705841591835  0.9530596393711948  0.6175571803038673  1.0000
  C   C468      1.0  0.35232556340906246  0.9338377029772319  0.5802153811542211  1.0000
  H   H721      1.0  0.4119042617421028  0.96724372761627  0.6076341386657835  1.0000
  H   H722      1.0  0.3854611399058976  0.9471288518868292  0.6380414971164259  1.0000
  H   H723      1.0  0.37174688274345885  0.9813480146930451  0.6355643434627924  1.0000
  H   H724      1.0  0.3652334317028512  0.9836086178294444  0.5615161834308876  1.0000
  H   H725      1.0  0.30512173923117974  0.9760686492730413  0.5598422714386515  1.0000
  H   H726      1.0  0.32576709503358886  0.9981910532255248  0.5896042075161938  1.0000
  H   H727      1.0  0.30265868397088097  0.9367292577977794  0.6350271984673045  1.0000
  H   H728      1.0  0.268913070806867  0.947877539424228  0.6016660668635069  1.0000
  H   H729      1.0  0.288140682185734  0.970749138044963  0.6313643898266978  1.0000
  H   H730      1.0  0.32403493319175025  0.9285597749483107  0.563424425271355  1.0000
  H   H731      1.0  0.35801280545571174  0.9167090983929455  0.5963288132288507  1.0000
  H   H732      1.0  0.3840504985274758  0.9366295955559241  0.5655156514466437  1.0000
  N   N46       1.0  0.5810885514794524  0.18226813239993522  0.5336635740493474  1.0000
  C   C469      1.0  0.6180974784498051  0.20199264996903885  0.5366184137346568  1.0000
  C   C470      1.0  0.5983982359894825  0.15949237503809868  0.5154919405481613  1.0000
  C   C471      1.0  0.5414880548348144  0.19378292572229536  0.5164705852512899  1.0000
  C   C472      1.0  0.5662067611867828  0.17380650069642803  0.5660764369389227  1.0000
  H   H733      1.0  0.6057724904212957  0.2197558870656777  0.5494680065874908  1.0000
  H   H734      1.0  0.6311585104450843  0.20833322747809974  0.5126696876392894  1.0000
  H   H735      1.0  0.6478417680156074  0.19426360281281546  0.5505658592511348  1.0000
  H   H736      1.0  0.6102716156001791  0.16507562431827272  0.4909656546671247  1.0000
  H   H737      1.0  0.6278752858777912  0.14999795912266145  0.5279430707968035  1.0000
  H   H738      1.0  0.571136156527056  0.14435446436209068  0.5125380895990803  1.0000
  H   H739      1.0  0.5129585943881385  0.17935140577119074  0.5139377040753875  1.0000
  H   H740      1.0  0.5514177303723682  0.20033901313733668  0.49186432815927605  1.0000
  H   H741      1.0  0.5275516763174386  0.2110361350461605  0.5295667291314321  1.0000
  H   H742      1.0  0.539114656018393  0.15839563010151345  0.5648792454994566  1.0000
  H   H743      1.0  0.5519781845151583  0.19044288806869603  0.5801293652736943  1.0000
  H   H744      1.0  0.5954762353661378  0.16571417425624943  0.5801581113773868  1.0000
  N   N47       1.0  0.4791498501661323  0.9940137047713484  0.9078263254703487  1.0000
  C   C473      1.0  0.5069256811833521  0.018185249283821703  0.9102855313293857  1.0000
  C   C474      1.0  0.5099494312646351  0.9715372518566913  0.9018678296598569  1.0000
  C   C475      1.0  0.44602878840190663  0.9964462794539442  0.8810589353343671  1.0000
  C   C476      1.0  0.4536734559278064  0.9897532979982147  0.9381933931260135  1.0000
  H   H745      1.0  0.4849518733460694  0.035551513505122756  0.9151525369289206  1.0000
  H   H746      1.0  0.5264164426113727  0.022210723204756366  0.8876701923099422  1.0000
  H   H747      1.0  0.5324880810273168  0.01680214867741725  0.930139512781901  1.0000
  H   H748      1.0  0.5353345393070373  0.969135707984917  0.9216861592379941  1.0000
  H   H749      1.0  0.4900577425559131  0.9529413501263005  0.9000746897914335  1.0000
  H   H750      1.0  0.5295963805365949  0.9740135996469508  0.8790453661235013  1.0000
  H   H751      1.0  0.42183528550851607  0.012992023091786375  0.8850291489371218  1.0000
  H   H752      1.0  0.4248893426867653  0.9783358107655669  0.8785003969900245  1.0000
  H   H753      1.0  0.4639962933492779  0.9998454831200001  0.8577410139266801  1.0000
  H   H754      1.0  0.43135146196298274  0.9721503170078204  0.9368975063541212  1.0000
  H   H755      1.0  0.4310655329876755  0.006624994022266462  0.9441749516182394  1.0000
  H   H756      1.0  0.4775523369761936  0.9866281795463668  0.9586216335427434  1.0000
  N   N48       1.0  0.3337206188272913  0.2666274154805473  0.23889421768136732  1.0000
  C   C477      1.0  0.35008808946432296  0.29329371284300204  0.23124758353095626  1.0000
  C   C478      1.0  0.2845017390232894  0.267665505510061  0.24799163883203718  1.0000
  C   C479      1.0  0.36091691358030276  0.25599741423546885  0.2659150815624997  1.0000
  C   C480      1.0  0.33938733340033556  0.24962178880419306  0.21043508077996248  1.0000
  H   H757      1.0  0.3873254041683834  0.29345588762577574  0.22500667579805497  1.0000
  H   H758      1.0  0.3449906764902856  0.3068600031469499  0.2518894921508384  1.0000
  H   H759      1.0  0.33091526443602115  0.30171775316556027  0.21058918415062086  1.0000
  H   H760      1.0  0.2787216504519063  0.2809423992345682  0.2688352102640198  1.0000
  H   H761      1.0  0.2630858688836765  0.27533415711431997  0.22788267917307806  1.0000
  H   H762      1.0  0.27095810969594825  0.24802714176687388  0.2545542634030119  1.0000
  H   H763      1.0  0.35744359879068555  0.2684140044019398  0.28775688913883724  1.0000
  H   H764      1.0  0.39829232444667795  0.2550356277644496  0.2597084856086569  1.0000
  H   H765      1.0  0.3496572424356519  0.2358522267047436  0.2723466313724811  1.0000
  H   H766      1.0  0.32514983775475576  0.22973777072480553  0.21478462788226682  1.0000
  H   H767      1.0  0.37634774044887753  0.24715001913186968  0.20402381792278584  1.0000
  H   H768      1.0  0.32166220841852494  0.2578737607563003  0.1889396078895109  1.0000
