data_image0
_chemical_formula_structural       FeS2FeS2FeSFeS3FeS2FeS2FeSFeS3FeS2FeS2FeSFeS3FeS2FeS2FeSFeS3FeS2FeS2FeSFeS3FeS2FeS2FeSFeS3FeS2FeS2FeSFeS3FeS2FeS2FeSFeS3FeS2FeS2FeSFeS3FeS2FeS2FeSFeS3FeS2FeS2FeSFeS3FeS2FeS2FeSFeS3FeS2FeS2FeSFeS3FeS2FeS2FeSFeS3FeS2FeS2FeSFeS3FeS2FeS2FeSFeS3FeS2FeS2FeSFeS3FeS2FeS2FeSFeS3FeS2FeS2FeSFeS3FeS2FeS2FeSFeS3FeS2FeS2FeSFeS3FeS2FeS2FeSFeS3FeS2FeS2FeSFeS3FeS2FeS2FeSFeS3FeS2FeS2FeSFeS3FeS2FeS2FeSFeS3FeS2FeS2FeSFeS3FeS2FeS2FeSFeS3FeS2FeS2FeSFeS3FeS2FeS2FeSFeS3FeS2FeS2FeSFeS3FeS2FeS2FeSFeS3C6H4C6H4C6H4C6H4C6H4C6H4C6H4C6H4C6H4C6H4C6H4C6H4C6H4C6H4C6H4C6H4C6H4C6H4C6H4C6H4C6H4C6H4C6H4C6H4C6H4C6H4C6H4C6H4C6H4C6H4C6H4C6H4C6H4C6H4C6H4C6H4C6H4C6H4C6H4C6H4C6H4C6H4C6H4C6H4C6H4C6H4C6H4C6H4C6H4C6H4C6H4C6H4C6H4C6H4C6H4C6H4C6H4C6H4C6H4C6H4C6H4C6H4C6H4C6H4NC4H12NC4H12NC4H12NC4H12NC4H12NC4H12NC4H12NC4H12NC4H12NC4H12NC4H12NC4H12NC4H12NC4H12NC4H12NC4H12NC4H12NC4H12NC4H12NC4H12NC4H12NC4H12NC4H12NC4H12NC4H12NC4H12NC4H12NC4H12NC4H12NC4H12NC4H12NC4H12NC4H12NC4H12NC4H12NC4H12NC4H12NC4H12NC4H12NC4H12NC4H12NC4H12NC4H12NC4H12NC4H12NC4H12NC4H12NC4H12NC4H12NC4H12NC4H12NC4H12NC4H12NC4H12NC4H12NC4H12NC4H12NC4H12NC4H12NC4H12NC4H12NC4H12NC4H12NC4H12
_chemical_formula_sum              "Fe128 S256 C640 H1024 N64"
_cell_length_a       30.75807903910661
_cell_length_b       38.03963928661832
_cell_length_c       59.33091991518761
_cell_angle_alpha    89.98944156800219
_cell_angle_beta     90.10458915111099
_cell_angle_gamma    90.7031157728396

_space_group_name_H-M_alt    "P 1"
_space_group_IT_number       1

loop_
  _space_group_symop_operation_xyz
  'x, y, z'

loop_
  _atom_site_type_symbol
  _atom_site_label
  _atom_site_symmetry_multiplicity
  _atom_site_fract_x
  _atom_site_fract_y
  _atom_site_fract_z
  _atom_site_occupancy
  Fe  Fe1       1.0  0.9904680727211554  0.808663836615293  0.9863247036755057  1.0000
  S   S1        1.0  0.011785040832480664  0.8082166061497491  0.02250085740328256  1.0000
  S   S2        1.0  0.0005026728646666534  0.8571705382995434  0.965459983156588  1.0000
  Fe  Fe2       1.0  0.9614632936554567  0.7321915016553232  0.9868773041125745  1.0000
  S   S3        1.0  0.9798911186061275  0.724808407909957  0.02320053444647341  1.0000
  S   S4        1.0  0.935044016726608  0.6904087218866338  0.9635868662478135  1.0000
  Fe  Fe3       1.0  0.9499602860285883  0.7777520159112312  0.028342230999254703  1.0000
  S   S5        1.0  0.904741608306255  0.7862019192858571  0.05752610973502814  1.0000
  Fe  Fe4       1.0  0.03973232290980544  0.7557975846809041  0.014108684697833773  1.0000
  S   S6        1.0  0.10730160081722406  0.7404247396478539  0.02406698623197623  1.0000
  S   S7        1.0  0.9259653039914993  0.7825845148800042  0.9927594599396646  1.0000
  S   S8        1.0  0.023851020728185235  0.7590590213086246  0.9772583925253503  1.0000
  Fe  Fe5       1.0  0.05342299852067045  0.5249770291753932  0.9321966812696063  1.0000
  S   S9        1.0  0.06896225260521271  0.46821839637756735  0.9363287090730037  1.0000
  S   S10       1.0  0.05003075620100472  0.5540848269599679  0.9649452701640101  1.0000
  Fe  Fe6       1.0  0.05220211861912549  0.5200075952612774  0.8809022029180099  1.0000
  S   S11       1.0  0.06583774132488163  0.462067157976603  0.8809412352629834  1.0000
  S   S12       1.0  0.04877763750756858  0.5553248932974097  0.8505683172604489  1.0000
  Fe  Fe7       1.0  0.01827836344968592  0.459716749972795  0.9096096510608808  1.0000
  S   S13       1.0  0.9633207083566222  0.42109958327319336  0.9151722716234774  1.0000
  Fe  Fe8       1.0  0.11470943754108666  0.476524417773342  0.9075566746717719  1.0000
  S   S14       1.0  0.18563613642900334  0.4650352406435275  0.9077781207757735  1.0000
  S   S15       1.0  0.9999154386556306  0.5164797477586592  0.9071385774030235  1.0000
  S   S16       1.0  0.10389579803687045  0.5343542366740678  0.9058757734603927  1.0000
  Fe  Fe9       1.0  0.32726884490723024  0.8968423627681634  0.7058929589238956  1.0000
  S   S17       1.0  0.27869372013580523  0.9362006151554224  0.6933280903716855  1.0000
  S   S18       1.0  0.3813408088306885  0.9071911140098524  0.7309629331698393  1.0000
  Fe  Fe10      1.0  0.2854200220800771  0.8364323222546036  0.6798849041604563  1.0000
  S   S19       1.0  0.2342779133145243  0.8709186792959822  0.6654187254314383  1.0000
  S   S20       1.0  0.2808935984001134  0.7802803935456396  0.6683066214453639  1.0000
  Fe  Fe11      1.0  0.28853525653738915  0.9095562201197352  0.6598406608105927  1.0000
  S   S21       1.0  0.28815324891730665  0.9347457181600828  0.6254460890336302  1.0000
  Fe  Fe12      1.0  0.22946580442595574  0.8933776343941391  0.6999952551643617  1.0000
  S   S22       1.0  0.16381192548545973  0.8984922231880421  0.7161928501232688  1.0000
  S   S23       1.0  0.3405233817037425  0.873188807534943  0.6718309498767343  1.0000
  S   S24       1.0  0.2768753698648403  0.8560995689922587  0.715165451369461  1.0000
  Fe  Fe13      1.0  0.27526074278247975  0.5677196060040984  0.7165777774860207  1.0000
  S   S25       1.0  0.26359406815694225  0.5852152359725519  0.7520526124516601  1.0000
  S   S26       1.0  0.3431796719954716  0.5587626748956763  0.7041280287330719  1.0000
  Fe  Fe14      1.0  0.1803377078920185  0.5743114100880504  0.7034413791596349  1.0000
  S   S27       1.0  0.16010900601394906  0.5922687919401726  0.7378077352641192  1.0000
  S   S28       1.0  0.13046632731198657  0.5742593762907977  0.6758070307632249  1.0000
  Fe  Fe15      1.0  0.22051845963825373  0.6256427205299339  0.7364925053972398  1.0000
  S   S29       1.0  0.22435587855535494  0.6814459495330544  0.748521727846195  1.0000
  Fe  Fe16      1.0  0.20461240484654472  0.5502709239002895  0.750161698942321  1.0000
  S   S30       1.0  0.18888613153141476  0.512674940080751  0.7781381164483061  1.0000
  S   S31       1.0  0.23727814093959998  0.6112818744338444  0.7010593735834968  1.0000
  S   S32       1.0  0.21976077422125442  0.5289738044938532  0.7157579642174369  1.0000
  Fe  Fe17      1.0  0.9594089781962539  0.2671338293359348  0.9897546424230593  1.0000
  S   S33       1.0  0.8970726460260583  0.2755951355092247  0.008340239130324001  1.0000
  S   S34       1.0  0.012482354841800047  0.30796231851449013  0.988302297776408  1.0000
  Fe  Fe18      1.0  0.9323134581236563  0.19567238146934054  0.9725382435539752  1.0000
  S   S35       1.0  0.8678846726616244  0.19735541629985548  0.9897854238639436  1.0000
  S   S36       1.0  0.948274227639603  0.15165693381374115  0.9490033752528921  1.0000
  Fe  Fe19      1.0  0.865448115286233  0.2528317536551134  0.9775173066762625  1.0000
  S   S37       1.0  0.8049945273612558  0.2772847987062053  0.9636748372707121  1.0000
  Fe  Fe20      1.0  0.9048652426102716  0.21949122566507873  0.019092567724242615  1.0000
  S   S38       1.0  0.8841072720413276  0.19972532818569233  0.05317294464590949  1.0000
  S   S39       1.0  0.9270244485288119  0.2496267555628363  0.9577607816677765  1.0000
  S   S40       1.0  0.9703109466031764  0.2126337603029933  0.0030654497010471626  1.0000
  Fe  Fe21      1.0  0.7249369309368701  0.9568378456270779  0.9364907190964994  1.0000
  S   S41       1.0  0.7493945661557423  0.01251376625953049  0.936840577204623  1.0000
  S   S42       1.0  0.6644688342339279  0.944496865163271  0.9562509351059528  1.0000
  Fe  Fe22      1.0  0.8058521460768273  0.9301172320420531  0.9130861946110871  1.0000
  S   S43       1.0  0.8372126442058054  0.9836160106831743  0.9113922084095158  1.0000
  S   S44       1.0  0.8388409009317046  0.8806699658099026  0.9018209154841708  1.0000
  Fe  Fe23      1.0  0.8132173646332392  0.9895954664779973  0.9468184617673523  1.0000
  S   S45       1.0  0.8491483068496856  0.012111008817089708  0.9765021990692845  1.0000
  Fe  Fe24      1.0  0.7705081769061437  0.001410880173477791  0.9015427703711938  1.0000
  S   S46       1.0  0.7616603328642747  0.042885110973983176  0.8750730889211393  1.0000
  S   S47       1.0  0.7872675643745257  0.9346702293243926  0.9494227188781729  1.0000
  S   S48       1.0  0.7406661450674733  0.9471940492151429  0.9001097117953595  1.0000
  Fe  Fe25      1.0  0.48461831326938465  0.4021372231632826  0.7261809439085027  1.0000
  S   S49       1.0  0.5398841547468891  0.438155874661434  0.7165294067791651  1.0000
  S   S50       1.0  0.4221170438454221  0.41838799260163506  0.7423253205635447  1.0000
  Fe  Fe26      1.0  0.5299000241958486  0.3370543256364035  0.7089462263688097  1.0000
  S   S51       1.0  0.5884169586505071  0.3675702929621826  0.6973023306456455  1.0000
  S   S52       1.0  0.5297268818104532  0.2787374260728132  0.7040183267222606  1.0000
  Fe  Fe27      1.0  0.5821538029388592  0.395463545239145  0.7302584895940814  1.0000
  S   S53       1.0  0.6416759551909565  0.40155214739623324  0.7517964596330029  1.0000
  Fe  Fe28      1.0  0.5402304444753548  0.40645283353330375  0.684613581705844  1.0000
  S   S54       1.0  0.5443355522525541  0.4314350488678009  0.6503957722778158  1.0000
  S   S55       1.0  0.5267720437179515  0.36224475107839244  0.7429672355575393  1.0000
  S   S56       1.0  0.4819647568361583  0.3733489082924887  0.6932622986204691  1.0000
  Fe  Fe29      1.0  0.5441999291363083  0.13913371452471024  0.7836543981099353  1.0000
  S   S57       1.0  0.5433442821181939  0.12311432503405051  0.7474675562694747  1.0000
  S   S58       1.0  0.5298080540221909  0.1940130938260587  0.7949287816404024  1.0000
  Fe  Fe30      1.0  0.5660800275028615  0.06604907609109878  0.7994880290963131  1.0000
  S   S59       1.0  0.566237040837952  0.042916736382197174  0.7646007485939806  1.0000
  S   S60       1.0  0.5747282900348302  0.034690686878920296  0.8313206606499783  1.0000
  Fe  Fe31      1.0  0.6027317682125551  0.0924877683157117  0.7555151281525606  1.0000
  S   S61       1.0  0.6625777754318043  0.10057214002687886  0.7346175020119415  1.0000
  Fe  Fe32      1.0  0.5066022213461258  0.07558864441296853  0.7593803015415626  1.0000
  S   S62       1.0  0.44624710474354484  0.06524608746045857  0.739110958829915  1.0000
  S   S63       1.0  0.6072182013232295  0.1131244376825884  0.7906978765588869  1.0000
  S   S64       1.0  0.5027818195447432  0.09395782272106423  0.7951515896618626  1.0000
  Fe  Fe33      1.0  0.2798973160544703  0.37612368971164406  0.0033020536841694703  1.0000
  S   S65       1.0  0.3478642239952295  0.3973660668220028  0.9993891198231329  1.0000
  S   S66       1.0  0.24167669568229894  0.3479968659735121  0.976588156558504  1.0000
  Fe  Fe34      1.0  0.2713913405482533  0.4001585133811381  0.05141908536284512  1.0000
  S   S67       1.0  0.338631124935482  0.42315389060558406  0.0520503883118002  1.0000
  S   S68       1.0  0.2271848877256803  0.39835712860467376  0.08136552426428545  1.0000
  Fe  Fe35      1.0  0.3221801306341111  0.44412488809527895  0.017927354364778436  1.0000
  S   S69       1.0  0.3388271821331292  0.5008861022569886  0.012419150968016268  1.0000
  Fe  Fe36      1.0  0.35790472443687016  0.37449285784857184  0.03380891250997209  1.0000
  S   S70       1.0  0.41879309395577113  0.34610989827222455  0.04302284917062438  1.0000
  S   S71       1.0  0.25291538288758575  0.4250057013460982  0.01870522659321061  1.0000
  S   S72       1.0  0.2920140778441399  0.34927380547063747  0.03618566473337115  1.0000
  Fe  Fe37      1.0  0.22022417770463534  0.6552656560643959  0.9260771482941706  1.0000
  S   S73       1.0  0.23367000605309812  0.6184789289848925  0.8980003700666291  1.0000
  S   S74       1.0  0.1522618154136809  0.6508231425444578  0.938552496258718  1.0000
  Fe  Fe38      1.0  0.3093003383371271  0.6882236871382151  0.9235308778788752  1.0000
  S   S75       1.0  0.33084476384328776  0.6542720802454133  0.894673659853973  1.0000
  S   S76       1.0  0.35528930504984446  0.7267962233560524  0.9400861464752489  1.0000
  Fe  Fe39      1.0  0.2643964697101933  0.6644932987181436  0.8809033437890751  1.0000
  S   S77       1.0  0.24725192269834761  0.6670593269629621  0.8443100403568259  1.0000
  Fe  Fe40      1.0  0.298440119631054  0.61080968102177  0.9140000292372111  1.0000
  S   S78       1.0  0.32154654606140115  0.5551109325885288  0.9128241993351386  1.0000
  S   S79       1.0  0.24528759471838524  0.7025637884790036  0.9078567806143573  1.0000
  S   S80       1.0  0.2820467964974447  0.6435409247304381  0.9442624219817517  1.0000
  Fe  Fe41      1.0  0.8547899978914227  0.461959323937185  0.6456984718417562  1.0000
  S   S81       1.0  0.807573370942805  0.46930388538850526  0.6739094012745181  1.0000
  S   S82       1.0  0.8255273109820042  0.4640074532768518  0.610932002073218  1.0000
  Fe  Fe42      1.0  0.9309782053590827  0.4557375754868112  0.6777666359723018  1.0000
  S   S83       1.0  0.8898067127819754  0.4624043113954381  0.7086300623474583  1.0000
  S   S84       1.0  0.0016496904053742156  0.4447503687435701  0.6840900241894219  1.0000
  Fe  Fe43      1.0  0.8434370195878561  0.4258616731895475  0.6909366927202566  1.0000
  S   S85       1.0  0.8031430726719483  0.3833594502154272  0.707315067623886  1.0000
  Fe  Fe44      1.0  0.8581395323942543  0.5051529599079558  0.6888068035137513  1.0000
  S   S86       1.0  0.8380893534879519  0.5574765362622418  0.7027314478021719  1.0000
  S   S87       1.0  0.8868433387917548  0.41540165744601626  0.6615451683812876  1.0000
  S   S88       1.0  0.9027863831957793  0.5016397487720656  0.6591092260551847  1.0000
  Fe  Fe45      1.0  0.0327589077029482  0.740811521538153  0.7548817305665774  1.0000
  S   S89       1.0  0.04930659821671246  0.6967549028937721  0.7780585736251139  1.0000
  S   S90       1.0  0.07667072859294177  0.7479566480122631  0.7250825193354482  1.0000
  Fe  Fe46      1.0  0.9514184221968492  0.7582085438040929  0.7802017964024542  1.0000
  S   S91       1.0  0.9596752340130283  0.7149156149205518  0.8056419749296592  1.0000
  S   S92       1.0  0.8964750397850731  0.7966265129372024  0.7810458397045613  1.0000
  Fe  Fe47      1.0  0.029476596987109138  0.7323467116206293  0.8060111177719096  1.0000
  S   S93       1.0  0.06620310239662232  0.7424175198469045  0.8381379252002203  1.0000
  Fe  Fe48      1.0  0.9787603221132904  0.6822674458217384  0.775703050163314  1.0000
  S   S94       1.0  0.9710069853861293  0.6236141617062908  0.7725871963352449  1.0000
  S   S95       1.0  0.020165247989833327  0.7782651952097352  0.7831828703477951  1.0000
  S   S96       1.0  0.9633910934531302  0.7238732954243791  0.7501740681783738  1.0000
  Fe  Fe49      1.0  0.412701118817789  0.9457606359614498  0.9864255544560055  1.0000
  S   S97       1.0  0.34309587901383254  0.9607381332352654  0.9811636424230652  1.0000
  S   S98       1.0  0.44952751017993803  0.9430421072127521  0.01909851697904097  1.0000
  Fe  Fe50      1.0  0.43067640573742416  0.9380825811428155  0.9362201738563197  1.0000
  S   S99       1.0  0.3627166698592704  0.9517056763383107  0.9264493857439638  1.0000
  S   S100      1.0  0.48083933226476216  0.9291373116175731  0.9093492540469772  1.0000
  Fe  Fe51      1.0  0.3692045666335355  0.9934403567740984  0.9527130926877926  1.0000
  S   S101      1.0  0.35191711262767683  0.04920199640552503  0.9459886168218673  1.0000
  Fe  Fe52      1.0  0.3427348283059154  0.9174134370316235  0.955477250587955  1.0000
  S   S102      1.0  0.28569215728526304  0.8808792740726537  0.9506122976139302  1.0000
  S   S103      1.0  0.43899161864508107  0.9827554697258424  0.9603848203157863  1.0000
  S   S104      1.0  0.4105653615612917  0.8994850322219514  0.9629039051086206  1.0000
  Fe  Fe53      1.0  0.588266719894215  0.1920002461570987  0.9603030759724654  1.0000
  S   S105      1.0  0.5968977262867161  0.18750462946994936  0.923145950457166  1.0000
  S   S106      1.0  0.6456238309873553  0.17500881326713713  0.9804926935990999  1.0000
  Fe  Fe54      1.0  0.49461214374045115  0.2133032737548672  0.9562537131899126  1.0000
  S   S107      1.0  0.4949046067150774  0.21105293275066184  0.9183949865652492  1.0000
  S   S108      1.0  0.4305217803367743  0.2211502634107557  0.9736429727369356  1.0000
  Fe  Fe55      1.0  0.5319171710328172  0.16148685305720697  0.9232095515227637  1.0000
  S   S109      1.0  0.5217122830813683  0.11244564193230229  0.9032005282864818  1.0000
  Fe  Fe56      1.0  0.5598969871620499  0.2376344878240077  0.9214117979584948  1.0000
  S   S110      1.0  0.582815721889075  0.2748791218353276  0.8946709319814272  1.0000
  S   S111      1.0  0.5261471624008017  0.16088895050392907  0.9607235199579599  1.0000
  S   S112      1.0  0.5568490521005203  0.24497807029751545  0.9589372599243459  1.0000
  Fe  Fe57      1.0  0.8269162731544896  0.9770372752887654  0.6985533353597903  1.0000
  S   S113      1.0  0.862793584570781  0.0037371179713066023  0.7267113505675078  1.0000
  S   S114      1.0  0.7562217215598126  0.963291668844364  0.7019815633431955  1.0000
  Fe  Fe58      1.0  0.9048326102798057  0.9774583817907863  0.6672207976158603  1.0000
  S   S115      1.0  0.9473280334926915  0.005506470462428581  0.6922435351715988  1.0000
  S   S116      1.0  0.9321775868724372  0.9553523570035596  0.6351258605755287  1.0000
  Fe  Fe59      1.0  0.9174832292494953  0.9683163653504161  0.717247650798196  1.0000
  S   S117      1.0  0.9633476653495513  0.9399652452051485  0.7398822330911135  1.0000
  Fe  Fe60      1.0  0.889119880169196  0.03847986336192921  0.6992253007788504  1.0000
  S   S118      1.0  0.8907242799887977  0.09720641558215286  0.7021678298271699  1.0000
  S   S119      1.0  0.8788979858580258  0.93777833764227  0.69183046174164  1.0000
  S   S120      1.0  0.8490728136936786  0.014179135515410168  0.6715855331343967  1.0000
  Fe  Fe61      1.0  0.7517262179808583  0.24376609890064416  0.8013499029289923  1.0000
  S   S121      1.0  0.7632002147312821  0.1982536757778153  0.8243532048045128  1.0000
  S   S122      1.0  0.6876956682673583  0.2483206861846037  0.7836963535352394  1.0000
  Fe  Fe62      1.0  0.8415586649300858  0.274013128697671  0.80765899047606  1.0000
  S   S123      1.0  0.861904940874493  0.23179091716901767  0.8318840042474943  1.0000
  S   S124      1.0  0.8825331706948909  0.3201325705981352  0.7969311655124407  1.0000
  Fe  Fe63      1.0  0.828269313403267  0.19498794666124838  0.8077285353107887  1.0000
  S   S125      1.0  0.8538659048795941  0.14054732553310373  0.8025015356379502  1.0000
  Fe  Fe64      1.0  0.7954898460640767  0.2381502574483069  0.8464881045181768  1.0000
  S   S126      1.0  0.7805631052704192  0.2365483631966911  0.8832529991779291  1.0000
  S   S127      1.0  0.8134705194847105  0.23665246134244344  0.7821229349421682  1.0000
  S   S128      1.0  0.7786363538227317  0.2843149815529231  0.8250381426354871  1.0000
  Fe  Fe65      1.0  0.29371033440311956  0.824490423960442  0.5124011083745688  1.0000
  S   S129      1.0  0.31652088399736084  0.7918487924979631  0.483437561316897  1.0000
  S   S130      1.0  0.2222859193197734  0.8277608669574649  0.5182057635831795  1.0000
  Fe  Fe66      1.0  0.383790608976152  0.8393614625271343  0.5295669259748448  1.0000
  S   S131      1.0  0.4156276430190982  0.8071398552498629  0.5026533068861347  1.0000
  S   S132      1.0  0.4206043329191555  0.8669427261121349  0.557159209306912  1.0000
  Fe  Fe67      1.0  0.36810876632316125  0.8334882105421629  0.47955572132403407  1.0000
  S   S133      1.0  0.39048378134002537  0.8513886412822631  0.4453098362133318  1.0000
  Fe  Fe68      1.0  0.3613852746610563  0.7683172817329196  0.5087910929304288  1.0000
  S   S134      1.0  0.3635702644066382  0.709622638773192  0.5116577038028259  1.0000
  S   S135      1.0  0.34052215734234575  0.8689259833438054  0.5060097834750392  1.0000
  S   S136      1.0  0.33449269476590726  0.797790472536338  0.5381186131743982  1.0000
  Fe  Fe69      1.0  0.27345107962715803  0.5243474126913431  0.43409816974518395  1.0000
  S   S137      1.0  0.26927929900423825  0.5684448254192884  0.40929260058535527  1.0000
  S   S138      1.0  0.2236961875052625  0.5173400287479227  0.46137900296413864  1.0000
  Fe  Fe70      1.0  0.3594582092313173  0.49899003471009135  0.4162920163248837  1.0000
  S   S139      1.0  0.3637122957726836  0.5411530897201656  0.3900974295387413  1.0000
  S   S140      1.0  0.4063984309834713  0.4541556112321767  0.41644073973155143  1.0000
  Fe  Fe71      1.0  0.3397179099350682  0.5773335567980495  0.4171417534801158  1.0000
  S   S141      1.0  0.36074534668021846  0.6342416817908368  0.4169565955824166  1.0000
  Fe  Fe72      1.0  0.2932908822200205  0.5293013040009632  0.384216070021315  1.0000
  S   S142      1.0  0.2690567953590864  0.5284113024933953  0.34854202573156806  1.0000
  S   S143      1.0  0.3424611108807403  0.536128191397206  0.4443033612430244  1.0000
  S   S144      1.0  0.2904078109090729  0.48392970287456116  0.4081950889906141  1.0000
  Fe  Fe73      1.0  0.01567963687649354  0.7420916152120375  0.18887084251730976  1.0000
  S   S145      1.0  0.06269591932378793  0.7794535987166151  0.1724034873981683  1.0000
  S   S146      1.0  0.015477897367526916  0.6842242948627499  0.1818364543168038  1.0000
  Fe  Fe74      1.0  0.9772339716963  0.79769452952943  0.21899494149086596  1.0000
  S   S147      1.0  0.02117650452054609  0.8402707092680304  0.20567136849942233  1.0000
  S   S148      1.0  0.9245607305066861  0.8048134490747961  0.24477536689804638  1.0000
  Fe  Fe75      1.0  0.006499638541048958  0.8165479545233192  0.17183408609086886  1.0000
  S   S149      1.0  0.995997431003714  0.8535387200228882  0.14283095781299265  1.0000
  Fe  Fe76      1.0  0.07329758905694717  0.799787874337182  0.20742518351564618  1.0000
  S   S150      1.0  0.13916614166955754  0.8096614072505208  0.22232278687469956  1.0000
  S   S151      1.0  0.9580548093748298  0.7770569341435709  0.18488829179059402  1.0000
  S   S152      1.0  0.030976360704835004  0.7593657168116907  0.22410904091219447  1.0000
  Fe  Fe77      1.0  0.05041654390351114  0.5148455504055052  0.2645867508755845  1.0000
  S   S153      1.0  0.05674240514604723  0.561078495346178  0.2877341491317297  1.0000
  S   S154      1.0  0.09800045994272667  0.5113494073943025  0.23601637586587687  1.0000
  Fe  Fe78      1.0  0.9672545034993745  0.48858339556468283  0.28679041745072786  1.0000
  S   S155      1.0  0.9659523543512558  0.5333217473377209  0.3112240905895414  1.0000
  S   S156      1.0  0.9154872335064553  0.4467315946923707  0.2890007485855667  1.0000
  Fe  Fe79      1.0  0.9854050452433979  0.5668479004844456  0.2817283774660338  1.0000
  S   S157      1.0  0.9599841785183824  0.6211395965371126  0.27570156990691985  1.0000
  Fe  Fe80      1.0  0.036960750574650314  0.5228756725188419  0.3145979592066148  1.0000
  S   S158      1.0  0.06487750813370408  0.5187321753918707  0.34917793754590937  1.0000
  S   S159      1.0  0.9798836572834101  0.5229133141291228  0.2566703685977277  1.0000
  S   S160      1.0  0.03726488918262083  0.4757297674623188  0.29214298986891124  1.0000
  Fe  Fe81      1.0  0.8873791406927343  0.2858450778881296  0.16540937683998339  1.0000
  S   S161      1.0  0.9459035918760339  0.260699993920665  0.18076669807189427  1.0000
  S   S162      1.0  0.8957960433436204  0.3110053735001265  0.1314168019841021  1.0000
  Fe  Fe82      1.0  0.831348456546613  0.2710762944899396  0.20646073526841227  1.0000
  S   S163      1.0  0.885335331445062  0.2446238177297876  0.22499168103618963  1.0000
  S   S164      1.0  0.7693097068479499  0.27835303141177875  0.22581115226841678  1.0000
  Fe  Fe83      1.0  0.9268046856567742  0.28902699911390717  0.21226854669563225  1.0000
  S   S165      1.0  0.9772083533927615  0.31392615199444945  0.23494341713596434  1.0000
  Fe  Fe84      1.0  0.898825336503946  0.21887813206340248  0.19190963993028912  1.0000
  S   S166      1.0  0.9171606991602983  0.16191354026488938  0.19087562296089144  1.0000
  S   S167      1.0  0.8718824372958801  0.31775791451295265  0.1960276449491733  1.0000
  S   S168      1.0  0.8413251923541002  0.24174424878783252  0.1741195503291089  1.0000
  Fe  Fe85      1.0  0.7574041792325092  0.02875671589773754  0.22974098401789844  1.0000
  S   S169      1.0  0.771663836349585  0.9713172678296237  0.22700725140085193  1.0000
  S   S170      1.0  0.7504324972644748  0.06551170666519956  0.20049922337469397  1.0000
  Fe  Fe86      1.0  0.7489470126290515  0.02695383720498712  0.28073596538155593  1.0000
  S   S171      1.0  0.7624131793724132  0.9692725586157558  0.2828776346125533  1.0000
  S   S172      1.0  0.7384057843359022  0.06255548308271708  0.31027279553875087  1.0000
  Fe  Fe87      1.0  0.814274083599107  0.9806843718563519  0.2572126790353879  1.0000
  S   S173      1.0  0.8843260970154994  0.965406629332223  0.25958430147582195  1.0000
  Fe  Fe88      1.0  0.7183265118741367  0.965295948605091  0.25266810795891576  1.0000
  S   S174      1.0  0.6621494410078556  0.9273833280243055  0.25028460687837745  1.0000
  S   S175      1.0  0.8044645046949429  0.038899470287304894  0.25772949052717975  1.0000
  S   S176      1.0  0.7004770551239942  0.022152320477196286  0.25282055208337234  1.0000
  Fe  Fe89      1.0  0.538154106371928  0.3736035119717985  0.5112220448527423  1.0000
  S   S177      1.0  0.6071960263108063  0.3759265571119418  0.5235453039988802  1.0000
  S   S178      1.0  0.5022033666397941  0.4247462523585185  0.5085308510109466  1.0000
  Fe  Fe90      1.0  0.5380237561749525  0.2942194659105515  0.506679484218874  1.0000
  S   S179      1.0  0.6070818589041032  0.2894960995407345  0.5183001147936177  1.0000
  S   S180      1.0  0.4966382930781586  0.24631103354907244  0.49986782873769653  1.0000
  Fe  Fe91      1.0  0.5886776352259177  0.3291284197070362  0.544427085291203  1.0000
  S   S181      1.0  0.6103660715736376  0.32051715687368704  0.580055206093423  1.0000
  Fe  Fe92      1.0  0.6195149109739893  0.336521458479848  0.49639072274335394  1.0000
  S   S182      1.0  0.6783394845710168  0.3426004594557794  0.47430830324389056  1.0000
  S   S183      1.0  0.5183120738451745  0.33021453846486193  0.5347540641379445  1.0000
  S   S184      1.0  0.5520127358674172  0.3376781778785697  0.4821619688273389  1.0000
  Fe  Fe93      1.0  0.5249115170206816  0.10594583669899582  0.41670654784760497  1.0000
  S   S185      1.0  0.510500616391148  0.08233694895291421  0.4504595262453072  1.0000
  S   S186      1.0  0.5248804644330072  0.16381959350851294  0.40912526570164737  1.0000
  Fe  Fe94      1.0  0.5526440957940741  0.036559260005571304  0.39659725321738104  1.0000
  S   S187      1.0  0.5404123208504877  0.006521551898131861  0.42868721632725015  1.0000
  S   S188      1.0  0.5750682736746523  0.00864273607772259  0.3652767406114365  1.0000
  Fe  Fe95      1.0  0.47955886207723447  0.03806775626813863  0.43083575630284476  1.0000
  S   S189      1.0  0.415738758374843  0.016424827467821146  0.44365069199050683  1.0000
  Fe  Fe96      1.0  0.5720738875745822  0.053049949941794905  0.4453712616080338  1.0000
  S   S190      1.0  0.6203329481092639  0.049756380635920694  0.4734645090832799  1.0000
  S   S191      1.0  0.4886087466293553  0.06436043969232341  0.3972069717490256  1.0000
  S   S192      1.0  0.5897253675108585  0.08034837798762617  0.41329045500844835  1.0000
  Fe  Fe97      1.0  0.3294311140300003  0.45990212449910856  0.1849536233749128  1.0000
  S   S193      1.0  0.3998960252782845  0.4462346809913321  0.187750096735825  1.0000
  S   S194      1.0  0.30836317988647427  0.4954689230620677  0.15693477955439591  1.0000
  Fe  Fe98      1.0  0.30355755792692074  0.41627786154196766  0.22493889156922062  1.0000
  S   S195      1.0  0.3711013239547999  0.3972585298111371  0.2311121954828542  1.0000
  S   S196      1.0  0.2499469001153883  0.40311317215671355  0.24908823046237  1.0000
  Fe  Fe99      1.0  0.3907571169078558  0.4531157562547935  0.22478762210866998  1.0000
  S   S197      1.0  0.4421815124799108  0.4730559462792224  0.24825970358181668  1.0000
  Fe  Fe100     1.0  0.3749861906411043  0.3916008547949669  0.19368114756344187  1.0000
  S   S198      1.0  0.413196825235968  0.3494864372844569  0.17675938697129415  1.0000
  S   S199      1.0  0.3228702752054396  0.4730594185528257  0.2216475586829628  1.0000
  S   S200      1.0  0.3049282042891988  0.4043181948661295  0.18791002238571225  1.0000
  Fe  Fe101     1.0  0.3056887434982842  0.686353502984461  0.2439809206833839  1.0000
  S   S201      1.0  0.2916903992053818  0.6678356672138687  0.27901758560910417  1.0000
  S   S202      1.0  0.257760564682401  0.6764090596588497  0.2161419229674423  1.0000
  Fe  Fe102     1.0  0.38887609529911316  0.7233879071481267  0.25688969730046285  1.0000
  S   S203      1.0  0.3823077436904055  0.7089217979355487  0.29329077018025573  1.0000
  S   S204      1.0  0.4427290031018769  0.7587225555973405  0.24502578817042114  1.0000
  Fe  Fe103     1.0  0.3626274207532032  0.6558184966345387  0.2801341557783729  1.0000
  S   S205      1.0  0.38416758707320214  0.6091519571590522  0.30009043953561715  1.0000
  Fe  Fe104     1.0  0.3120895159434252  0.7222665655375695  0.28927786691417134  1.0000
  S   S206      1.0  0.2784291739300881  0.7532702641234278  0.3163292330309928  1.0000
  S   S207      1.0  0.37514347208101073  0.6689935998054859  0.2437947834773912  1.0000
  S   S208      1.0  0.32061328559627716  0.7420604189946967  0.2540521940507425  1.0000
  Fe  Fe105     1.0  0.9396390876669801  0.4430448178796405  0.4985268770398782  1.0000
  S   S209      1.0  0.8804557576896743  0.47289062514823893  0.4884112984887193  1.0000
  S   S210      1.0  0.947353838295595  0.41521649962128093  0.5316482762524749  1.0000
  Fe  Fe106     1.0  0.9869111525021869  0.45979327445649  0.45459751175903174  1.0000
  S   S211      1.0  0.9312475861984486  0.49106631205767226  0.44113360044658106  1.0000
  S   S212      1.0  0.042598753958208  0.45323399200982506  0.4303675027884683  1.0000
  Fe  Fe107     1.0  0.9284066085768483  0.513447610919243  0.4760537645570108  1.0000
  S   S213      1.0  0.9200435994885358  0.5711252688677859  0.48286302520429264  1.0000
  Fe  Fe108     1.0  0.8896031242852074  0.44727885304431836  0.454745053581684  1.0000
  S   S214      1.0  0.8325430205411027  0.4230053324341249  0.4364331432683845  1.0000
  S   S215      1.0  0.9870955289052139  0.485446325418122  0.4886491048813796  1.0000
  S   S216      1.0  0.9454499847384293  0.41414168542194585  0.46582478949896794  1.0000
  Fe  Fe109     1.0  0.01221249352349818  0.7507047280434916  0.4084954020197436  1.0000
  S   S217      1.0  0.024893523446337662  0.6935357811375557  0.40192583945367  1.0000
  S   S218      1.0  0.9475173960089253  0.7771198154425156  0.4081402327530686  1.0000
  Fe  Fe110     1.0  0.1073698572084738  0.769578317950739  0.41377511612069734  1.0000
  S   S219      1.0  0.12886962552044265  0.7144375031147416  0.4077847751897748  1.0000
  S   S220      1.0  0.1570609144966091  0.8126338122094735  0.4183753658041656  1.0000
  Fe  Fe111     1.0  0.07924733840444498  0.7139674754825427  0.3801319005497716  1.0000
  S   S221      1.0  0.09491803011273194  0.6925265476358035  0.34585851515081617  1.0000
  Fe  Fe112     1.0  0.07327344239367783  0.6992381566430929  0.430202954568249  1.0000
  S   S222      1.0  0.08788935829630007  0.6592265124724849  0.4569021948001521  1.0000
  S   S223      1.0  0.062353594547145404  0.7706032884702647  0.3841640426030064  1.0000
  S   S224      1.0  0.05580840114610042  0.7545885356749743  0.4386581147066467  1.0000
  Fe  Fe113     1.0  0.8532814287501224  0.9819378909445811  0.51546723261074  1.0000
  S   S225      1.0  0.9243111264210501  0.9785638339708433  0.5073489784726485  1.0000
  S   S226      1.0  0.8265261803510479  0.00013326529070267765  0.5486310686600514  1.0000
  Fe  Fe114     1.0  0.8255150205232253  0.9602612087377062  0.4684678131742628  1.0000
  S   S227      1.0  0.893718453117397  0.9555145997585197  0.45599719332780264  1.0000
  S   S228      1.0  0.7701430550066778  0.9483258498322614  0.44508510678740076  1.0000
  Fe  Fe115     1.0  0.905378253144596  0.9288589691027045  0.4890840215455269  1.0000
  S   S229      1.0  0.9412149890707079  0.8779165542425954  0.4926274908854812  1.0000
  Fe  Fe116     1.0  0.9058861990099015  0.0054614479763104296  0.4750629523461499  1.0000
  S   S230      1.0  0.9417784914321957  0.051925878773512346  0.46072329351291874  1.0000
  S   S231      1.0  0.8358285849885244  0.9297697583455243  0.5001975360101475  1.0000
  S   S232      1.0  0.8363054972044003  0.01282599707651144  0.4845197241039525  1.0000
  Fe  Fe117     1.0  0.7529193124925834  0.2070551355841933  0.39476941942432237  1.0000
  S   S233      1.0  0.7533646371927804  0.16828308655545074  0.36651671299272043  1.0000
  S   S234      1.0  0.6988738524391184  0.20156895876093403  0.4198023428647984  1.0000
  Fe  Fe118     1.0  0.836254071109254  0.24239513827434045  0.3800398736184258  1.0000
  S   S235      1.0  0.8450109362066996  0.2057197318269134  0.35078691432596965  1.0000
  S   S236      1.0  0.8869153519859907  0.28475643963830544  0.3850728831086119  1.0000
  Fe  Fe119     1.0  0.7740129239932214  0.21388035344842124  0.3452697418083454  1.0000
  S   S237      1.0  0.7517254621927091  0.22105957787035435  0.3097570982128255  1.0000
  Fe  Fe120     1.0  0.824036703882568  0.1633201141517178  0.374715198205162  1.0000
  S   S238      1.0  0.8465032464452047  0.10742257324603499  0.37364388573511753  1.0000
  S   S239      1.0  0.7663548296122508  0.25382205846401235  0.37256097682997386  1.0000
  S   S240      1.0  0.8223444789009374  0.19893492992693046  0.40480911435777306  1.0000
  Fe  Fe121     1.0  0.3952668473819275  0.9742550416836678  0.19124706493492444  1.0000
  S   S241      1.0  0.43343269862910366  0.005767162197465313  0.1659999669933415  1.0000
  S   S242      1.0  0.368037294098369  0.9952665632488311  0.22354901330284782  1.0000
  Fe  Fe122     1.0  0.4054325748559083  0.9058953434076013  0.16561432001959472  1.0000
  S   S243      1.0  0.44556562357120105  0.9312392093754029  0.13851470702433819  1.0000
  S   S244      1.0  0.3815594700819174  0.8498673022260954  0.16243751249508873  1.0000
  Fe  Fe123     1.0  0.4788735098599918  0.9599771361021894  0.16684556561095457  1.0000
  S   S245      1.0  0.5508076039352745  0.971716485658875  0.1659789820219888  1.0000
  Fe  Fe124     1.0  0.39688483521538104  0.9744683390409737  0.1400309996512515  1.0000
  S   S246      1.0  0.36507739802161965  0.9975791417925709  0.1092788681167902  1.0000
  S   S247      1.0  0.44301370440520094  0.930680247113753  0.19404576699607948  1.0000
  S   S248      1.0  0.35411230328481536  0.9470899731929431  0.16525379883853228  1.0000
  Fe  Fe125     1.0  0.46426008203731134  0.19176792187563738  0.23966258188545145  1.0000
  S   S249      1.0  0.4738406137295439  0.1778427397582074  0.2759062045548405  1.0000
  S   S250      1.0  0.3968903589364814  0.2064797842247242  0.22930657882747643  1.0000
  Fe  Fe126     1.0  0.5587887378633954  0.1811955793010992  0.22796843926885557  1.0000
  S   S251      1.0  0.5766542996892237  0.1661939243799398  0.2632607254778941  1.0000
  S   S252      1.0  0.609879492143372  0.17909199081423516  0.200990270213921  1.0000
  Fe  Fe127     1.0  0.5150235881120946  0.13459124071124562  0.2626091634663405  1.0000
  S   S253      1.0  0.509356912060862  0.08130220936107833  0.2783110126455291  1.0000
  Fe  Fe128     1.0  0.5339212026059061  0.21106283356029168  0.27324772045702556  1.0000
  S   S254      1.0  0.551240472785632  0.24774356219996663  0.30150246388943036  1.0000
  S   S255      1.0  0.5002620661285352  0.1453784412015744  0.22633370695217955  1.0000
  S   S256      1.0  0.5212843165578326  0.22898891292345266  0.23793250106207542  1.0000
  C   C1        1.0  0.4085231821176898  0.017505666942666753  0.23897790113039724  1.0000
  C   C2        1.0  0.4032512991441219  0.02287442694939057  0.2621448518026834  1.0000
  C   C3        1.0  0.43465598460678284  0.04202572073843824  0.27436349767335966  1.0000
  C   C4        1.0  0.4705243371216028  0.056872255161606516  0.26325456384786927  1.0000
  C   C5        1.0  0.4755060154864706  0.05186466882916305  0.24007584771494084  1.0000
  C   C6        1.0  0.4451013688433286  0.03153068521027147  0.22806176115060328  1.0000
  H   H1        1.0  0.3749737122536162  0.012129527425768004  0.2706632383541914  1.0000
  H   H2        1.0  0.43064384812037554  0.045969877049590845  0.2923095017239816  1.0000
  H   H3        1.0  0.5028745300476913  0.06353488166950554  0.23139496069399262  1.0000
  H   H4        1.0  0.44946734432121194  0.0275922066113321  0.21023832041079987  1.0000
  C   C7        1.0  0.6965417962209074  0.23125221047189667  0.30804230417863465  1.0000
  C   C8        1.0  0.672512150946068  0.23965160876471897  0.3272949477751872  1.0000
  C   C9        1.0  0.6279620431153928  0.2469192651370286  0.32536185657404576  1.0000
  C   C10       1.0  0.6075959502629803  0.24482262839627347  0.30426789104306984  1.0000
  C   C11       1.0  0.6318821197568284  0.23708848624698609  0.2851765908534193  1.0000
  C   C12       1.0  0.6762193419372552  0.23048984345061954  0.28699284965799654  1.0000
  H   H5        1.0  0.6880421860056048  0.24031451301211984  0.3436462885319035  1.0000
  H   H6        1.0  0.6092025103712547  0.2530515603429617  0.340231564330678  1.0000
  H   H7        1.0  0.6162061221268195  0.23593434068241115  0.26894828792422204  1.0000
  H   H8        1.0  0.6942533490690712  0.2241175877062845  0.2720395605898429  1.0000
  C   C13       1.0  0.8730414262880355  0.09278627324407149  0.3979876206770238  1.0000
  C   C14       1.0  0.8961554432555118  0.1161132127348327  0.4118719187965998  1.0000
  C   C15       1.0  0.9178029246340703  0.10344629540210264  0.43104141079167474  1.0000
  C   C16       1.0  0.9153181275349646  0.06767987661279938  0.4366226829073178  1.0000
  C   C17       1.0  0.8915438072159358  0.04457148570110696  0.4228892409257913  1.0000
  C   C18       1.0  0.8710172437522276  0.057003456255386976  0.40343205293523726  1.0000
  H   H9        1.0  0.8981777547297918  0.14374302203481176  0.40761733037983744  1.0000
  H   H10       1.0  0.9362501275203422  0.12136734685685904  0.44164325115890757  1.0000
  H   H11       1.0  0.8895458129656082  0.016989473502454056  0.4270746373285103  1.0000
  H   H12       1.0  0.8529600255637002  0.038877158253173276  0.3928493398190136  1.0000
  C   C19       1.0  0.9442670555766264  0.8047370358931525  0.43169144674766513  1.0000
  C   C20       1.0  0.9295252234592252  0.8391448077585979  0.42917753099314215  1.0000
  C   C21       1.0  0.9282718456453279  0.8617738811453863  0.44782601012000933  1.0000
  C   C22       1.0  0.9414626588723086  0.8499960087196226  0.46906941342060776  1.0000
  C   C23       1.0  0.9559957600395723  0.8154976358304848  0.47157477584230734  1.0000
  C   C24       1.0  0.9573097971111069  0.7928854126658771  0.4529346310532702  1.0000
  H   H13       1.0  0.9199428456215564  0.8485019445214091  0.41269280444337275  1.0000
  H   H14       1.0  0.9176490589929429  0.888355134035686  0.4456028844322088  1.0000
  H   H15       1.0  0.9660889432009656  0.8061492510561953  0.48798323670918947  1.0000
  H   H16       1.0  0.9678116868602592  0.7660626608396778  0.4550804577005487  1.0000
  C   C25       1.0  0.9668283769789453  0.5967039099160333  0.4773736519211628  1.0000
  C   C26       1.0  0.008307272134041366  0.583381729473197  0.4814574033035641  1.0000
  C   C27       1.0  0.04539712035534382  0.6036502567016919  0.476357996629848  1.0000
  C   C28       1.0  0.04120133461109132  0.63680396749498  0.4664066223439  1.0000
  C   C29       1.0  0.999785535523891  0.6504706923420616  0.46266295666422286  1.0000
  C   C30       1.0  0.962645908014999  0.6306099668796901  0.4684513426286303  1.0000
  H   H17       1.0  0.011977266252860996  0.5575208825301385  0.4885785555360058  1.0000
  H   H18       1.0  0.07739264651560429  0.5930267833404933  0.4793444840269386  1.0000
  H   H19       1.0  0.9963149617882563  0.6761557288111558  0.45506584549398305  1.0000
  H   H20       1.0  0.9306307456175259  0.6411095282033028  0.4653584756851654  1.0000
  C   C31       1.0  0.8469830930130506  0.3849961684360013  0.4215561208859107  1.0000
  C   C32       1.0  0.8906849776253922  0.37790191278483437  0.41748067318876564  1.0000
  C   C33       1.0  0.9024674036715014  0.3470200218847054  0.4063324781150063  1.0000
  C   C34       1.0  0.8705871846157265  0.32283082645881384  0.39933526011574183  1.0000
  C   C35       1.0  0.8267173040673426  0.3297409019021229  0.4035206946365776  1.0000
  C   C36       1.0  0.8149004371147807  0.36099298185124773  0.4144387552795183  1.0000
  H   H21       1.0  0.9154441970179505  0.39625421697484553  0.422895840172315  1.0000
  H   H22       1.0  0.9364154567026617  0.34151528274660703  0.40344369353278337  1.0000
  H   H23       1.0  0.8018848323806405  0.31119282755685473  0.3983010051649722  1.0000
  H   H24       1.0  0.7809826740180839  0.3662971776976584  0.4176258823842185  1.0000
  C   C37       1.0  0.4280648656874628  0.7820996636954274  0.22079327357110484  1.0000
  C   C38       1.0  0.3930550059679102  0.7708211790100158  0.20741149651170335  1.0000
  C   C39       1.0  0.3802946386388372  0.7908424064180893  0.18871867107296617  1.0000
  C   C40       1.0  0.401846237417909  0.8225526405106024  0.18373197272726466  1.0000
  C   C41       1.0  0.4375523977102321  0.8332421036448653  0.19673371810894177  1.0000
  C   C42       1.0  0.4507804292009316  0.8129480653106776  0.215175464346787  1.0000
  H   H25       1.0  0.375955602555925  0.7466306842045141  0.21143941634759908  1.0000
  H   H26       1.0  0.35311583849070954  0.7821468029247404  0.17846860671901785  1.0000
  H   H27       1.0  0.4552121220566425  0.857030686559062  0.1925706248077396  1.0000
  H   H28       1.0  0.4782304061253557  0.8214463292399113  0.22532811079421888  1.0000
  C   C43       1.0  0.22658602643039913  0.7371272171319845  0.3236690108292724  1.0000
  C   C44       1.0  0.20510940876666295  0.7118060921453851  0.3104704064598998  1.0000
  C   C45       1.0  0.1645615716402878  0.698139668620699  0.3172453780672532  1.0000
  C   C46       1.0  0.1451822105258975  0.7101214305304324  0.3371015798049019  1.0000
  C   C47       1.0  0.16618666628950035  0.7360819715375431  0.34996458269010183  1.0000
  C   C48       1.0  0.20683687072252602  0.7494518326091748  0.3433062367495742  1.0000
  H   H29       1.0  0.21939484954425442  0.7031126754437287  0.2949296784328063  1.0000
  H   H30       1.0  0.14826754540644926  0.6782729169413003  0.30718755644092505  1.0000
  H   H31       1.0  0.15102502556388028  0.7461929537793078  0.3649752998452688  1.0000
  H   H32       1.0  0.22286775208838328  0.769462600606174  0.3533685467236652  1.0000
  C   C49       1.0  0.42753883143666743  0.5121954945360864  0.26164149942970016  1.0000
  C   C50       1.0  0.3995362201559871  0.5360601102077385  0.25123362068849364  1.0000
  C   C51       1.0  0.38699330985367053  0.5666209963669402  0.26274995602830375  1.0000
  C   C52       1.0  0.4017647961381336  0.5727843302363046  0.2847145933358579  1.0000
  C   C53       1.0  0.42934793641116825  0.5487271671515662  0.29510070683068457  1.0000
  C   C54       1.0  0.4427562222154925  0.518772499920879  0.2834590876929231  1.0000
  H   H33       1.0  0.3879906124190303  0.5310367802012408  0.23432068040335188  1.0000
  H   H34       1.0  0.36512997647657086  0.5850561898335458  0.2550656327232438  1.0000
  H   H35       1.0  0.4407048263922016  0.5534504147978683  0.31212790952912134  1.0000
  H   H36       1.0  0.46441846687259275  0.5004164966787649  0.2915331896924826  1.0000
  C   C55       1.0  0.40689253271422526  0.30911886613815903  0.19042207879485962  1.0000
  C   C56       1.0  0.3718010193991528  0.3031073042798263  0.2049215338032402  1.0000
  C   C57       1.0  0.3679151166563323  0.2709342941821743  0.21632026879077507  1.0000
  C   C58       1.0  0.39972437286383605  0.24529016093080866  0.2136346838263009  1.0000
  C   C59       1.0  0.4347843016443236  0.25135657836540065  0.19912933112401762  1.0000
  C   C60       1.0  0.4380783994748398  0.2831292343628833  0.1873081129607473  1.0000
  H   H37       1.0  0.34753849715015955  0.3231315953804403  0.20727852623236778  1.0000
  H   H38       1.0  0.3408648142700313  0.2662757263688033  0.2276206341079445  1.0000
  H   H39       1.0  0.4592415177512327  0.23145529973179815  0.19690090703342444  1.0000
  H   H40       1.0  0.4652081268476465  0.28777249375256986  0.17605643564720871  1.0000
  C   C61       1.0  0.6591634703891717  0.01847212937757048  0.46636544314360423  1.0000
  C   C62       1.0  0.6915491343659903  0.009785754482299458  0.4818819370503764  1.0000
  C   C63       1.0  0.724803538743361  0.9869615548668769  0.4756310386189885  1.0000
  C   C64       1.0  0.725535062846907  0.9727073289771009  0.4539087487283359  1.0000
  C   C65       1.0  0.6922982485817757  0.9803848866430341  0.4386464982584949  1.0000
  C   C66       1.0  0.659303940024048  0.0035258875906591935  0.4448162376910413  1.0000
  H   H41       1.0  0.6914353295361615  0.02116344633856193  0.49860193003724407  1.0000
  H   H42       1.0  0.7500069590733572  0.9806128249705695  0.4876298284858669  1.0000
  H   H43       1.0  0.6929327058603394  0.9695570241840352  0.4217795751568888  1.0000
  H   H44       1.0  0.6346801502097276  0.010385967795477402  0.43264614971399684  1.0000
  C   C67       1.0  0.5131113095122857  0.18894986003319403  0.433094184606117  1.0000
  C   C68       1.0  0.4853997218671028  0.17550699844016826  0.449693942815382  1.0000
  C   C69       1.0  0.47887551571799913  0.19433272755160988  0.4696718686788387  1.0000
  C   C70       1.0  0.5005793205552669  0.22638489373236398  0.47330010800488065  1.0000
  C   C71       1.0  0.5272608605099897  0.24048628917052017  0.4563940145780456  1.0000
  C   C72       1.0  0.533309352738906  0.2218326487164317  0.4362187847590587  1.0000
  H   H45       1.0  0.4687526784112896  0.1506426774892664  0.44711488977560576  1.0000
  H   H46       1.0  0.4578446867472763  0.18354510422132614  0.48261665535626846  1.0000
  H   H47       1.0  0.5439592828391485  0.2652903200527143  0.45905808706126067  1.0000
  H   H48       1.0  0.554746605254432  0.2323417881455183  0.42336515063362185  1.0000
  C   C73       1.0  0.6834219851894269  0.304180504428392  0.45831678362538464  1.0000
  C   C74       1.0  0.7204355685486591  0.2989841670808157  0.4450992382832024  1.0000
  C   C75       1.0  0.7252248768798414  0.2674983849123086  0.43309465797701785  1.0000
  C   C76       1.0  0.692746783315883  0.24143838569192785  0.4341221449998507  1.0000
  C   C77       1.0  0.6553387596710805  0.2470571862430494  0.44690017222938166  1.0000
  C   C78       1.0  0.6507575416017282  0.278316755229526  0.45907253481535043  1.0000
  H   H49       1.0  0.7455780455291594  0.3190532898177245  0.4442809968183956  1.0000
  H   H50       1.0  0.7542472123417776  0.26327544506005063  0.423252094376901  1.0000
  H   H51       1.0  0.629626724117652  0.2274654797331357  0.44716088160957174  1.0000
  H   H52       1.0  0.621766713323889  0.28241584984408974  0.4689115195424773  1.0000
  C   C79       1.0  0.6327164468981379  0.9353655555973639  0.22549649968247698  1.0000
  C   C80       1.0  0.5897112985502936  0.9233109311783693  0.22344949985433618  1.0000
  C   C81       1.0  0.5643404316980275  0.9335215607280396  0.20492520662050662  1.0000
  C   C82       1.0  0.5824988044432047  0.9546119071039898  0.18798829890697247  1.0000
  C   C83       1.0  0.6264932676125192  0.9641635004739428  0.18921876949821154  1.0000
  C   C84       1.0  0.651220384313123  0.955464604398094  0.20820975933708336  1.0000
  H   H53       1.0  0.5757465229326422  0.906605982909315  0.23634674788219792  1.0000
  H   H54       1.0  0.5309735518894003  0.9248737916767958  0.20374961501055405  1.0000
  H   H55       1.0  0.6413483322782859  0.9787413269639307  0.1755908044804071  1.0000
  H   H56       1.0  0.6846394687695304  0.9642065419912212  0.20936682837938106  1.0000
  C   C85       1.0  0.694821267210291  0.04701718026382262  0.3266400030335001  1.0000
  C   C86       1.0  0.6805233573914817  0.06623267075604988  0.34530798176070476  1.0000
  C   C87       1.0  0.6445655824926873  0.054225519696297964  0.35787124968963474  1.0000
  C   C88       1.0  0.6228947256758629  0.023080550382684972  0.3517183466018679  1.0000
  C   C89       1.0  0.6384179734497465  0.0034002924713028015  0.33358735081139473  1.0000
  C   C90       1.0  0.67396981343264  0.015431063482359342  0.3209365945130172  1.0000
  H   H57       1.0  0.6970275950501091  0.09049203724873967  0.349903194575635  1.0000
  H   H58       1.0  0.633399693451951  0.06924232078766535  0.372062750722994  1.0000
  H   H59       1.0  0.622926468020411  0.9786832533480255  0.32936867128185643  1.0000
  H   H60       1.0  0.685141929207833  0.0002066511081588729  0.30675432438865624  1.0000
  C   C91       1.0  0.8717315167154737  0.13367884575341993  0.19155547382340393  1.0000
  C   C92       1.0  0.8318374958646692  0.14439585270929525  0.18275269599099253  1.0000
  C   C93       1.0  0.7950317668457201  0.12256923245935725  0.18466151083021096  1.0000
  C   C94       1.0  0.7978299007431954  0.09031922877398046  0.19583935820984516  1.0000
  C   C95       1.0  0.8379379657269487  0.07907347354901151  0.2041043196682334  1.0000
  C   C96       1.0  0.8749963946714563  0.10062980722522874  0.20176133087991072  1.0000
  H   H61       1.0  0.8292180942747797  0.16935869795050038  0.1743460032823441  1.0000
  H   H62       1.0  0.7641055806015093  0.1311714893079621  0.17805088130816094  1.0000
  H   H63       1.0  0.8404559336062175  0.05380157598415303  0.21231492378320282  1.0000
  H   H64       1.0  0.9058913151107061  0.09211551200070134  0.20845274867572455  1.0000
  C   C97       1.0  0.7248919578923885  0.25165771105498375  0.2176881184469312  1.0000
  C   C98       1.0  0.7292092001281957  0.22538123383114  0.20135801769387668  1.0000
  C   C99       1.0  0.6935812059308919  0.20349583291642698  0.1958740750936773  1.0000
  C   C100      1.0  0.653665457498603  0.20775405988664278  0.20681177283472812  1.0000
  C   C101      1.0  0.6492226289955091  0.23434331112927936  0.22281860171296697  1.0000
  C   C102      1.0  0.684747515160812  0.2561924917957799  0.22830051084509084  1.0000
  H   H65       1.0  0.7600058478194207  0.22156397027112876  0.19313264465027594  1.0000
  H   H66       1.0  0.697143483762394  0.18300621990072516  0.1833899661388624  1.0000
  H   H67       1.0  0.6181710693709476  0.23828803105600788  0.23077250687400097  1.0000
  H   H68       1.0  0.6811055469404567  0.27656752959154346  0.24086117021752895  1.0000
  C   C103      1.0  0.1405728903355769  0.481756684706955  0.24022010233140542  1.0000
  C   C104      1.0  0.14275385450161007  0.46117519901450116  0.25971281061170143  1.0000
  C   C105      1.0  0.1760579401497049  0.4366168942057788  0.2622791755080641  1.0000
  C   C106      1.0  0.2076016539712882  0.43300074401722677  0.24549894653976884  1.0000
  C   C107      1.0  0.20558501793468942  0.4537353821784603  0.22606215900547427  1.0000
  C   C108      1.0  0.17202641493232093  0.4779944117544742  0.22340182785824833  1.0000
  H   H69       1.0  0.11897188456266412  0.4641173172136346  0.2728547135574393  1.0000
  H   H70       1.0  0.17757669220362401  0.42064858241661285  0.2773512572469069  1.0000
  H   H71       1.0  0.2295283885592193  0.45076091124004486  0.21290050909159103  1.0000
  H   H72       1.0  0.17038058709641432  0.49373318489551243  0.2082328284098351  1.0000
  C   C109      1.0  0.9317096930132682  0.4085249664940994  0.2752063977789744  1.0000
  C   C110      1.0  0.9722960009308056  0.39382806748640686  0.27965499404619704  1.0000
  C   C111      1.0  0.9855230884559577  0.3639474193479735  0.2677668566884735  1.0000
  C   C112      1.0  0.9584442039780137  0.3490656564174324  0.2512387647522854  1.0000
  C   C113      1.0  0.9176056471605691  0.36347270807079046  0.24717687938653227  1.0000
  C   C114      1.0  0.9041007945451588  0.39298758831116504  0.2592500420436573  1.0000
  H   H73       1.0  0.9934594304681427  0.40541425630412214  0.2922476820143761  1.0000
  H   H74       1.0  0.017001979527879296  0.35265871024227324  0.27115784807723464  1.0000
  H   H75       1.0  0.8965829548844504  0.35234131073224484  0.23450185719850367  1.0000
  H   H76       1.0  0.8728015366667723  0.4044872495777305  0.2557003051631574  1.0000
  C   C115      1.0  0.9942854915794201  0.6641308274491767  0.20616333367367987  1.0000
  C   C116      1.0  0.005691399490038052  0.6297208635894166  0.21183342082176534  1.0000
  C   C117      1.0  0.993747387940548  0.6157070161381248  0.23288606278339083  1.0000
  C   C118      1.0  0.9699430243988442  0.6359450959173122  0.24812276058293867  1.0000
  C   C119      1.0  0.9566393077368327  0.6695734988586256  0.2418783172671344  1.0000
  C   C120      1.0  0.9688871174027619  0.6836724914239777  0.22100317086030188  1.0000
  H   H77       1.0  0.025059372526196277  0.6144123276217546  0.2003233389859586  1.0000
  H   H78       1.0  0.004080108540337246  0.5896944947289702  0.2375423325812044  1.0000
  H   H79       1.0  0.9372690485189267  0.6849886036312866  0.2532718075165192  1.0000
  H   H80       1.0  0.9587246079779339  0.7098394495647339  0.21645828978994483  1.0000
  C   C121      1.0  0.1687427906326635  0.7707951835319263  0.22078420124194648  1.0000
  C   C122      1.0  0.19139340700928575  0.7592517497102262  0.2397458375683705  1.0000
  C   C123      1.0  0.21719270292924842  0.7293496994403654  0.238404718833906  1.0000
  C   C124      1.0  0.22134924007498435  0.7113336826177595  0.21799611184000833  1.0000
  C   C125      1.0  0.19751789221200577  0.7220949598665617  0.19917516725837311  1.0000
  C   C126      1.0  0.17096444283881906  0.7517823410502719  0.20061409391372925  1.0000
  H   H81       1.0  0.1888659467116629  0.7733549682079988  0.2555313541307894  1.0000
  H   H82       1.0  0.233821164084002  0.7202764381816323  0.25328954241661794  1.0000
  H   H83       1.0  0.20041286165461392  0.7081223865051343  0.18337839651888485  1.0000
  H   H84       1.0  0.1535065740568744  0.7607036069522515  0.1859001785656418  1.0000
  C   C127      1.0  0.913610380539271  0.8491184408828876  0.2503285056225953  1.0000
  C   C128      1.0  0.8707374656204205  0.8596853018583234  0.25411860514528883  1.0000
  C   C129      1.0  0.8613309687347291  0.8954258429108632  0.25713051201055004  1.0000
  C   C130      1.0  0.8949823334671425  0.9204783975319625  0.2567495815146821  1.0000
  C   C131      1.0  0.93789593862068  0.9097929512413973  0.2534571082810603  1.0000
  C   C132      1.0  0.9471891592767598  0.8741882630380408  0.25015611546353017  1.0000
  H   H85       1.0  0.844688039390325  0.8402940907926767  0.2543073835095343  1.0000
  H   H86       1.0  0.8281160080892352  0.9035491819513347  0.25972985040655283  1.0000
  H   H87       1.0  0.9639994830501907  0.9291311096087745  0.2532350032008045  1.0000
  H   H88       1.0  0.980405047387747  0.8661354334731237  0.2476234265758875  1.0000
  C   C133      1.0  0.17355140672741243  0.49973625267818284  0.45244134969177213  1.0000
  C   C134      1.0  0.1383134659424865  0.4996138615753113  0.4673251930898248  1.0000
  C   C135      1.0  0.09807525308544607  0.48528902992385947  0.46068516143679117  1.0000
  C   C136      1.0  0.09293331241790392  0.47080339271450045  0.4391904258576123  1.0000
  C   C137      1.0  0.12825126225317818  0.47076861348348714  0.42431831212397236  1.0000
  C   C138      1.0  0.1684596809610186  0.4854205599139514  0.43087465855345974  1.0000
  H   H89       1.0  0.14216186102689177  0.5105260224799522  0.484063865600767  1.0000
  H   H90       1.0  0.0713715708501006  0.4850714922627478  0.47236287000731075  1.0000
  H   H91       1.0  0.12458808289861056  0.45930642095607827  0.4077226057708032  1.0000
  H   H92       1.0  0.19557833942467306  0.48517314882131957  0.41935707962694985  1.0000
  C   C139      1.0  0.4340235341293682  0.4467879365429301  0.4417931174230658  1.0000
  C   C140      1.0  0.4502556336340049  0.4132674598735844  0.446214633495701  1.0000
  C   C141      1.0  0.47093832677270786  0.4062434395501398  0.46675682395764684  1.0000
  C   C142      1.0  0.4763119286650162  0.4329181977320599  0.4827451174120747  1.0000
  C   C143      1.0  0.4605071406315541  0.4665799809386789  0.47821129227328035  1.0000
  C   C144      1.0  0.4391231064373756  0.4734838928367019  0.4577931395267443  1.0000
  H   H93       1.0  0.44592416439613364  0.3924580663324133  0.4339361355767853  1.0000
  H   H94       1.0  0.48174949967374464  0.37999273212612256  0.47037894243352885  1.0000
  H   H95       1.0  0.4646831944980007  0.4873242756927933  0.4905478137654861  1.0000
  H   H96       1.0  0.4270592848715966  0.49952657340550144  0.45435769362160267  1.0000
  C   C145      1.0  0.12174036380227067  0.519069080059701  0.3484827881407434  1.0000
  C   C146      1.0  0.1440573497178195  0.522584378491865  0.32805818560821076  1.0000
  C   C147      1.0  0.18960138182502498  0.5249675256643225  0.3279980420778721  1.0000
  C   C148      1.0  0.21257362717976264  0.5238138378743846  0.34836498543491873  1.0000
  C   C149      1.0  0.19031703673058142  0.5194925967562203  0.36866232275659555  1.0000
  C   C150      1.0  0.14497064423341982  0.5169014707299211  0.36869956380354246  1.0000
  H   H97       1.0  0.12632428223250144  0.5236982118087309  0.31234894375279065  1.0000
  H   H98       1.0  0.20686929635588627  0.5280569651617731  0.3122420378800061  1.0000
  H   H99       1.0  0.208009450222686  0.5182717665828407  0.3843771506952441  1.0000
  H   H100      1.0  0.12804343646676686  0.5136970532376126  0.38447499223775217  1.0000
  C   C151      1.0  0.3653665898943386  0.6885763751144506  0.4854225081549046  1.0000
  C   C152      1.0  0.37221490010118696  0.7079186545987753  0.4656682092458226  1.0000
  C   C153      1.0  0.3711880968102554  0.6909103999639775  0.4446948225822328  1.0000
  C   C154      1.0  0.3627997276919145  0.6546775567766787  0.44342602252070257  1.0000
  C   C155      1.0  0.3557333532338524  0.6354117327471337  0.46316712289242445  1.0000
  C   C156      1.0  0.3574647596861385  0.6522934093732549  0.48416511590331107  1.0000
  H   H101      1.0  0.37891623631403404  0.7358542172687638  0.4665878764436915  1.0000
  H   H102      1.0  0.37726512963584097  0.7057473400405625  0.42946214536283217  1.0000
  H   H103      1.0  0.34930370326995297  0.6074869137128255  0.46231376826637605  1.0000
  H   H104      1.0  0.35214247318279857  0.6373041966317791  0.49943958794059484  1.0000
  C   C157      1.0  0.20100549126335007  0.8271805987041813  0.49099088440380406  1.0000
  C   C158      1.0  0.22453713189755864  0.8427224364381658  0.47338707177968214  1.0000
  C   C159      1.0  0.21016355039920714  0.8389336403599135  0.45112138518995537  1.0000
  C   C160      1.0  0.17306891342803402  0.8186789571392272  0.44640381495041315  1.0000
  C   C161      1.0  0.14935221151883368  0.8035167198112821  0.46406847350633  1.0000
  C   C162      1.0  0.16291574818852622  0.8081933012441928  0.48639812599133875  1.0000
  H   H105      1.0  0.2539961810963582  0.857579040867241  0.4769404107644204  1.0000
  H   H106      1.0  0.22816416214626178  0.8512732747502679  0.43756297867413574  1.0000
  H   H107      1.0  0.12062073394602942  0.7881540130724018  0.4606679772661566  1.0000
  H   H108      1.0  0.14478413105802285  0.7960915064367815  0.5000190346321322  1.0000
  C   C163      1.0  0.39581048517226525  0.897317107916552  0.44344076296045676  1.0000
  C   C164      1.0  0.3667414291949116  0.919060781448472  0.4547351921661825  1.0000
  C   C165      1.0  0.3722766885142583  0.9556864201811223  0.4539358328157193  1.0000
  C   C166      1.0  0.4072199522526365  0.9707333565741927  0.44211583638621466  1.0000
  C   C167      1.0  0.43593388724494786  0.9490206412050319  0.4305024221378218  1.0000
  C   C168      1.0  0.42995970673724976  0.9123377003239379  0.4309886154482708  1.0000
  H   H109      1.0  0.339655767773688  0.9077388589484594  0.46387672723300927  1.0000
  H   H110      1.0  0.3498228622876021  0.9724369051511986  0.4627997950022899  1.0000
  H   H111      1.0  0.46273381197137203  0.960456060058858  0.4211703787296026  1.0000
  H   H112      1.0  0.45244721901983487  0.8956092515780153  0.4221431099236651  1.0000
  C   C169      1.0  0.9060192557935262  0.9698889739759292  0.6105012904352117  1.0000
  C   C170      1.0  0.8788179835280377  0.9990419089189132  0.6110704429224515  1.0000
  C   C171      1.0  0.8552609479205205  0.008679857025954751  0.5918252480051954  1.0000
  C   C172      1.0  0.8593680263035576  0.9895469772118796  0.5718021866407667  1.0000
  C   C173      1.0  0.8877051156073826  0.9610878556426946  0.5709476422776282  1.0000
  C   C174      1.0  0.9109096039814629  0.9512105118009437  0.5903218167848953  1.0000
  H   H113      1.0  0.8761839670400021  0.014396750080255538  0.6262619169854151  1.0000
  H   H114      1.0  0.8338969177350921  0.031050550946780883  0.5924160880640613  1.0000
  H   H115      1.0  0.8909936065083846  0.9462151322410652  0.5555163340610546  1.0000
  H   H116      1.0  0.9321216159298977  0.9287528792186476  0.5897469215949932  1.0000
  C   C175      1.0  0.8868751118475111  0.11100677958913434  0.7302481856388333  1.0000
  C   C176      1.0  0.8967797231375283  0.08820762231160233  0.7479617113769031  1.0000
  C   C177      1.0  0.8888932554681133  0.09833153970945059  0.7703035842810227  1.0000
  C   C178      1.0  0.8704309909661618  0.1309870828457963  0.7749090440814553  1.0000
  C   C179      1.0  0.862874233056483  0.15449128672789558  0.7572702145162807  1.0000
  C   C180      1.0  0.8715861462902225  0.14465650129483026  0.7349754386476574  1.0000
  H   H117      1.0  0.9106220755775176  0.0628366049680721  0.7444588162339761  1.0000
  H   H118      1.0  0.895986229354959  0.08044007302886182  0.7839668096546443  1.0000
  H   H119      1.0  0.8499922526501194  0.1800371641527481  0.760722966602958  1.0000
  H   H120      1.0  0.8657042581759113  0.16277640504883703  0.7213015039131987  1.0000
  C   C181      1.0  0.6383415067521483  0.2663189407945988  0.8916342923241127  1.0000
  C   C182      1.0  0.6566974428740734  0.26474776813654316  0.8701320452960459  1.0000
  C   C183      1.0  0.7001529251590167  0.2550262297109606  0.867545709121174  1.0000
  C   C184      1.0  0.7257285784000508  0.24761601803094127  0.886455614328627  1.0000
  C   C185      1.0  0.7072456518245396  0.2487951597965508  0.9079090946063127  1.0000
  C   C186      1.0  0.6635072918162087  0.25795684072981473  0.9105127273706891  1.0000
  H   H121      1.0  0.6370872388630923  0.26981613344804883  0.8554158112866727  1.0000
  H   H122      1.0  0.7135440040158395  0.252999459240383  0.8508578344116496  1.0000
  H   H123      1.0  0.7267634603745287  0.24264413078245772  0.9224852516633729  1.0000
  H   H124      1.0  0.6493515358638484  0.2587862255855714  0.9271779814110637  1.0000
  C   C187      1.0  0.4260754536634943  0.9602921096068403  0.043580443772333055  1.0000
  C   C188      1.0  0.4506423706864651  0.9610899615874803  0.06346397763917877  1.0000
  C   C189      1.0  0.4324152708348615  0.9734281629575741  0.08354941293242213  1.0000
  C   C190      1.0  0.3894915926738475  0.9850172305345666  0.08385017538474604  1.0000
  C   C191      1.0  0.36506999375898824  0.9848106775397408  0.06388369429092555  1.0000
  C   C192      1.0  0.3832406412243958  0.9722339751723341  0.043783133272966346  1.0000
  H   H125      1.0  0.4838724045556268  0.9520160862601889  0.06336263705928502  1.0000
  H   H126      1.0  0.45179596048763987  0.9742915936067815  0.09874717490236182  1.0000
  H   H127      1.0  0.3317091792864414  0.9935336215301596  0.06410765471088209  1.0000
  H   H128      1.0  0.3638620990763186  0.971254455110689  0.02860734720246172  1.0000
  C   C193      1.0  0.39507159002168424  0.06746079483769525  0.930644262595994  1.0000
  C   C194      1.0  0.4240328636078219  0.04559655030596109  0.9192436252111603  1.0000
  C   C195      1.0  0.4623806194257731  0.0596273298959046  0.9100158490687554  1.0000
  C   C196      1.0  0.4716651278541094  0.09549062125061204  0.9121981866098556  1.0000
  C   C197      1.0  0.4422025181266253  0.1174484547446673  0.9230739565860522  1.0000
  C   C198      1.0  0.4036699943648831  0.10352141101128227  0.9320651682803945  1.0000
  H   H129      1.0  0.4173081111575263  0.01773680611917494  0.9179038800629554  1.0000
  H   H130      1.0  0.4854246582787186  0.04254923683073896  0.9018944894155378  1.0000
  H   H131      1.0  0.4491439911009315  0.14518610335862855  0.9248281977261591  1.0000
  H   H132      1.0  0.3813747789838654  0.12052723458133761  0.9408288326371875  1.0000
  C   C199      1.0  0.9119503357110608  0.8355357678453345  0.7670518578059417  1.0000
  C   C200      1.0  0.8858867070412748  0.8654424327652036  0.7682485790187473  1.0000
  C   C201      1.0  0.9006570213938153  0.8974682637829872  0.7590164545657343  1.0000
  C   C202      1.0  0.9419227374968941  0.8996555849118464  0.7491456397291674  1.0000
  C   C203      1.0  0.9672315543449593  0.8695449127511803  0.7473504965079651  1.0000
  C   C204      1.0  0.9516864975404973  0.837391620963983  0.755712256875346  1.0000
  H   H133      1.0  0.8546461565134321  0.8639789914396883  0.7765508604871884  1.0000
  H   H134      1.0  0.8808878097278814  0.9207105292447175  0.7602293293001238  1.0000
  H   H135      1.0  0.9988372769915222  0.8710192539159717  0.7394251155904968  1.0000
  H   H136      1.0  0.9705381316239461  0.8140650597584814  0.7533131001439739  1.0000
  C   C205      1.0  0.8585007105253004  0.44834579577556016  0.5891667810213349  1.0000
  C   C206      1.0  0.8983983635056336  0.432652513296275  0.5937767896656705  1.0000
  C   C207      1.0  0.9249438254172816  0.42159127062586366  0.5759693449867158  1.0000
  C   C208      1.0  0.9120487526396865  0.4268250566908643  0.5535649019732893  1.0000
  C   C209      1.0  0.8718016382175722  0.4419665577540098  0.5490059926640897  1.0000
  C   C210      1.0  0.844962736625619  0.4525053587876817  0.5667848783284823  1.0000
  H   H137      1.0  0.9089713263948745  0.4292130824229742  0.6110298888818868  1.0000
  H   H138      1.0  0.9559492104086996  0.40962785916206085  0.5795852252394724  1.0000
  H   H139      1.0  0.8611845958622023  0.4455088480549454  0.5318473311194074  1.0000
  H   H140      1.0  0.8139192434797704  0.4644058175738225  0.5632076238773505  1.0000
  C   C211      1.0  0.8750291776306582  0.5761272942423241  0.722068825063003  1.0000
  C   C212      1.0  0.9018362594504672  0.5546895944920108  0.7350529022392264  1.0000
  C   C213      1.0  0.9303180021244641  0.5697384517827652  0.7508882904423596  1.0000
  C   C214      1.0  0.9330561670432788  0.6062566635882805  0.7533988479382259  1.0000
  C   C215      1.0  0.9063018688200447  0.6278430752349515  0.7404666156934886  1.0000
  C   C216      1.0  0.8769747994241708  0.612716505905067  0.7249494153287452  1.0000
  H   H141      1.0  0.8997619335245328  0.5265066089032172  0.7333624706196211  1.0000
  H   H142      1.0  0.9498996148473793  0.553114257772766  0.7615055354400511  1.0000
  H   H143      1.0  0.9077827494422025  0.6560639407470691  0.7425899309950447  1.0000
  H   H144      1.0  0.85590927434838  0.6293704190931103  0.7150996438500136  1.0000
  C   C217      1.0  0.8261598297086099  0.3655694642711228  0.7318921987440443  1.0000
  C   C218      1.0  0.8682762242317348  0.37500461475156927  0.738777943018471  1.0000
  C   C219      1.0  0.8854127463238791  0.36141425150745926  0.7589147151513801  1.0000
  C   C220      1.0  0.8606809315030512  0.3380434611374167  0.7720633406327504  1.0000
  C   C221      1.0  0.8185122837063621  0.32883586040301505  0.765185753780013  1.0000
  C   C222      1.0  0.8012642728072901  0.3425834922452489  0.7451860722250567  1.0000
  H   H145      1.0  0.8879692253743617  0.39227578724712686  0.7284503936551994  1.0000
  H   H146      1.0  0.9181432983577296  0.3684087184853223  0.7640707572872152  1.0000
  H   H147      1.0  0.7990066188459185  0.3112680454635826  0.7753595460747812  1.0000
  H   H148      1.0  0.7685139594477002  0.3354679291576927  0.7400897190769901  1.0000
  C   C223      1.0  0.3336802242150064  0.7687738713365344  0.9438168498115842  1.0000
  C   C224      1.0  0.35052781992593945  0.7906352372405104  0.9607808603771704  1.0000
  C   C225      1.0  0.3352576390880389  0.8249925966029169  0.9632165059515272  1.0000
  C   C226      1.0  0.30317899710593227  0.8374803465351298  0.9486519827776081  1.0000
  C   C227      1.0  0.2858869905413096  0.815518912035239  0.9319137458234585  1.0000
  C   C228      1.0  0.30143198146627065  0.7812995484940652  0.9293700372082421  1.0000
  H   H149      1.0  0.37544400263579925  0.780980995149778  0.9720135030579211  1.0000
  H   H150      1.0  0.34821183013629364  0.8417783740556977  0.9763818922852998  1.0000
  H   H151      1.0  0.26170128938621395  0.8253996296186864  0.9203491090074449  1.0000
  H   H152      1.0  0.2896721960234119  0.7651894379757419  0.9156771588847408  1.0000
  C   C229      1.0  0.1972709096311172  0.6881913114342654  0.8420194771293755  1.0000
  C   C230      1.0  0.18884236173551056  0.7176627042294778  0.8553119684132554  1.0000
  C   C231      1.0  0.1484633744045316  0.7341117994496307  0.8540271377339689  1.0000
  C   C232      1.0  0.11637990983830582  0.7211688776981603  0.8394039529933713  1.0000
  C   C233      1.0  0.12471059820963304  0.6915987891071969  0.8261554304928367  1.0000
  C   C234      1.0  0.16531685408689156  0.6753096763080517  0.8272779704238893  1.0000
  H   H153      1.0  0.21384983984472355  0.7282945483588539  0.8662201523003749  1.0000
  H   H154      1.0  0.1422254693467636  0.7570387039696076  0.8642623714626059  1.0000
  H   H155      1.0  0.09970831586510931  0.6806895350161867  0.8154063134401782  1.0000
  H   H156      1.0  0.17165153309354877  0.6523761705522152  0.8170397715453178  1.0000
  C   C235      1.0  0.24564724089785805  0.42788273222779616  0.10210875845633116  1.0000
  C   C236      1.0  0.27244062341819314  0.45645855982300765  0.09631636765790152  1.0000
  C   C237      1.0  0.29030847756357103  0.4780927263530249  0.11318158340730358  1.0000
  C   C238      1.0  0.28158381148058215  0.4710684711093595  0.13588364971139333  1.0000
  C   C239      1.0  0.2533318403164187  0.4433929205993251  0.14162305710184844  1.0000
  C   C240      1.0  0.23536995999461502  0.42181258330390764  0.12474997125663156  1.0000
  H   H157      1.0  0.27924220748120604  0.46209115415961266  0.07881970957528983  1.0000
  H   H158      1.0  0.3117100605308045  0.49973085368175435  0.108621101240123  1.0000
  H   H159      1.0  0.24513729431113948  0.43867369070384665  0.15906331471598936  1.0000
  H   H160      1.0  0.21426532057658607  0.3999844988036247  0.1292891249846464  1.0000
  C   C241      1.0  0.3400956071408971  0.5148543291170904  0.9843255334786472  1.0000
  C   C242      1.0  0.33480955289678976  0.4909913500429916  0.966562985179232  1.0000
  C   C243      1.0  0.3318025059536392  0.503372825215342  0.9443195430662359  1.0000
  C   C244      1.0  0.33291833075497074  0.5395385593840674  0.939970291837519  1.0000
  C   C245      1.0  0.34001812082254135  0.5631698478300688  0.9576409506419068  1.0000
  C   C246      1.0  0.3438325107130187  0.5508385569415555  0.9797776269889528  1.0000
  H   H161      1.0  0.3324595989379692  0.4631615026509046  0.9699933164453931  1.0000
  H   H162      1.0  0.32735722304585274  0.4850664570682086  0.9305418598312142  1.0000
  H   H163      1.0  0.3427962526829826  0.5909726710896823  0.9542776589034805  1.0000
  H   H164      1.0  0.34857388401131706  0.5693044553832493  0.9934664147767305  1.0000
  C   C247      1.0  0.42337347064250663  0.3092325537502049  0.025491299321137806  1.0000
  C   C248      1.0  0.46380303602743234  0.2999398511037782  0.0166311752398145  1.0000
  C   C249      1.0  0.46672143078218714  0.2721156790074261  0.001153733380185873  1.0000
  C   C250      1.0  0.429334674006751  0.2531467451993895  0.9949343167811073  1.0000
  C   C251      1.0  0.38934900243744575  0.2614282820259886  0.004661082221486534  1.0000
  C   C252      1.0  0.3862364255560558  0.2897705326279425  0.01959045463252629  1.0000
  H   H165      1.0  0.49262160675426103  0.31494765016365583  0.021178173865964878  1.0000
  H   H166      1.0  0.4977569792917437  0.2657266446793986  0.9938892669193486  1.0000
  H   H167      1.0  0.36048601936730706  0.2463739313826484  0.00028495317737697867  1.0000
  H   H168      1.0  0.35511837523842515  0.2962774831687477  0.026717699852115473  1.0000
  C   C253      1.0  0.6863227443624647  0.0624251936374185  0.7239774993466723  1.0000
  C   C254      1.0  0.7286061837602783  0.06457049998747899  0.7154540692714997  1.0000
  C   C255      1.0  0.7498438196143463  0.03412902748014224  0.708505086330325  1.0000
  C   C256      1.0  0.728591507557339  0.0014798455254743104  0.7096165510461231  1.0000
  C   C257      1.0  0.6858656579125173  0.999368681780184  0.7176289244183089  1.0000
  C   C258      1.0  0.6647930643515034  0.029846876905480935  0.7249440587229816  1.0000
  H   H169      1.0  0.7455753010931602  0.08963522423675907  0.7147761485736366  1.0000
  H   H170      1.0  0.7828775341596745  0.03608755454577306  0.7025022925712872  1.0000
  H   H171      1.0  0.6693047765638537  0.9741369508261551  0.7185163507200524  1.0000
  H   H172      1.0  0.6319609288829529  0.028060630008066578  0.7312617521129254  1.0000
  C   C259      1.0  0.5575081740110255  0.3998445243203201  0.6300844445572049  1.0000
  C   C260      1.0  0.5636628431430097  0.36490713222243654  0.636503168452672  1.0000
  C   C261      1.0  0.5791489184400055  0.3404931698280444  0.6209089094239033  1.0000
  C   C262      1.0  0.5871352504040868  0.35063217554937404  0.598637933314772  1.0000
  C   C263      1.0  0.5789271907435087  0.38516699370057594  0.5918579975706366  1.0000
  C   C264      1.0  0.5644804915527809  0.40988854016097837  0.6076604595894715  1.0000
  H   H173      1.0  0.5569553286684973  0.35659205364363916  0.6535251011799875  1.0000
  H   H174      1.0  0.5849038049412568  0.3136632734981073  0.6261017858071255  1.0000
  H   H175      1.0  0.5850055876292896  0.3930779994764523  0.5746239475339437  1.0000
  H   H176      1.0  0.5595786656578139  0.4368742789583916  0.6025833673309111  1.0000
  C   C265      1.0  0.533264696844881  0.22025128327433818  0.7707914402837315  1.0000
  C   C266      1.0  0.5056184868063415  0.24887341833817908  0.7681521274731861  1.0000
  C   C267      1.0  0.5055626278258618  0.26782145287970494  0.7478678477811458  1.0000
  C   C268      1.0  0.5324205551963369  0.25753414546164866  0.7300972082959538  1.0000
  C   C269      1.0  0.5601738040156953  0.22902322732089186  0.7328110253510144  1.0000
  C   C270      1.0  0.5613033166346092  0.21091122239861915  0.7533338108597781  1.0000
  H   H177      1.0  0.4831611191757487  0.25556138284167945  0.7814310516281808  1.0000
  H   H178      1.0  0.48343808302813907  0.28944092176017205  0.7456036388220034  1.0000
  H   H179      1.0  0.5812160827247806  0.22125129200547722  0.7191379561823291  1.0000
  H   H180      1.0  0.5838179951444581  0.18959698541180825  0.7555944317802423  1.0000
  C   C271      1.0  0.658711060872508  0.3589327988527079  0.7585572437761716  1.0000
  C   C272      1.0  0.6923431086444157  0.3539080069405567  0.7740647814118348  1.0000
  C   C273      1.0  0.7023841019953868  0.31985108924549355  0.7813481672388319  1.0000
  C   C274      1.0  0.6787859803370317  0.2908066125104553  0.7732407945826785  1.0000
  C   C275      1.0  0.6460646781480539  0.29582572886188263  0.7572816818845169  1.0000
  C   C276      1.0  0.6363318486171283  0.32969976856304106  0.7498216989971801  1.0000
  H   H181      1.0  0.7099842185780674  0.37625455799814334  0.7808763106648419  1.0000
  H   H182      1.0  0.7276644020270847  0.3163852925314845  0.7936261612705863  1.0000
  H   H183      1.0  0.6275591816537658  0.27358019375016845  0.750939370538084  1.0000
  H   H184      1.0  0.6106136275704123  0.33295703918140196  0.7377273094233222  1.0000
  C   C277      1.0  0.5324857647070856  0.9326156302832203  0.9217927239386591  1.0000
  C   C278      1.0  0.5361893307208396  0.9317934732271099  0.9452480243181521  1.0000
  C   C279      1.0  0.5770466340822287  0.9349711628487153  0.9554654076844096  1.0000
  C   C280      1.0  0.6144865615767172  0.9392144339320513  0.9423422950908945  1.0000
  C   C281      1.0  0.6110058040117858  0.9401197121141219  0.9188112248470272  1.0000
  C   C282      1.0  0.5699073631197372  0.9366174558418155  0.9085140448100869  1.0000
  H   H185      1.0  0.5076276228212712  0.9283323311752179  0.9556368341993681  1.0000
  H   H186      1.0  0.5796399599668387  0.9341615083231898  0.9736636563864522  1.0000
  H   H187      1.0  0.6398615529107854  0.9434150145162622  0.9085939758313845  1.0000
  H   H188      1.0  0.5671680363833069  0.9373065030869697  0.8903341636612611  1.0000
  C   C283      1.0  0.7091682077719884  0.041479961484046424  0.8637168076938413  1.0000
  C   C284      1.0  0.676312462365724  0.02101852585787367  0.8736646744249116  1.0000
  C   C285      1.0  0.6348767454979208  0.019212278770359914  0.8637403378008565  1.0000
  C   C286      1.0  0.6264868894384394  0.03755570182897161  0.8437599493021729  1.0000
  C   C287      1.0  0.6593522973475203  0.05819069391337117  0.8340399972328215  1.0000
  C   C288      1.0  0.700386747379095  0.06061544106028105  0.844172485781121  1.0000
  H   H189      1.0  0.6828736979889042  0.0063925958274111405  0.8888849380994298  1.0000
  H   H190      1.0  0.6096054165260404  0.003104877928385985  0.8713256668839917  1.0000
  H   H191      1.0  0.6535790345527764  0.07181832347310957  0.8185129302058004  1.0000
  H   H192      1.0  0.7256501486750163  0.07671481990490614  0.8365952471548876  1.0000
  C   C289      1.0  0.8835127489568843  0.23269033090447702  0.07368312000193966  1.0000
  C   C290      1.0  0.8608424777379754  0.22672560232240596  0.09376042333349455  1.0000
  C   C291      1.0  0.8636501791858129  0.25113825784527  0.11138295970299311  1.0000
  C   C292      1.0  0.8886037027334515  0.2818329923898332  0.10883935289118203  1.0000
  C   C293      1.0  0.9095888649374316  0.28858725406230556  0.08833767045123797  1.0000
  C   C294      1.0  0.9072894219984409  0.2639078345276178  0.07079225058859051  1.0000
  H   H193      1.0  0.841839697064089  0.20283792306995221  0.09589502808383954  1.0000
  H   H194      1.0  0.8464703205152649  0.2462097332097618  0.12689888914157202  1.0000
  H   H195      1.0  0.9288513777416629  0.31237506473140275  0.08630613135766096  1.0000
  H   H196      1.0  0.9252913982698169  0.26849139503547953  0.055421728897568245  1.0000
  C   C295      1.0  0.8793637715738617  0.04981946157797479  0.9692999372008599  1.0000
  C   C296      1.0  0.8983206760025767  0.05305293363661434  0.9479785836547633  1.0000
  C   C297      1.0  0.9211247439338178  0.08390525803718915  0.9421610121359456  1.0000
  C   C298      1.0  0.9240286840762738  0.11186072660937572  0.9574375834415666  1.0000
  C   C299      1.0  0.9059402453374678  0.1083024783963671  0.9789346232083641  1.0000
  C   C300      1.0  0.8839242850436132  0.07718540277452113  0.9849209757235285  1.0000
  H   H197      1.0  0.8958190034577318  0.03168240792911314  0.9360495143275099  1.0000
  H   H198      1.0  0.9357855416528716  0.0863728353652211  0.9256610129855624  1.0000
  H   H199      1.0  0.909210516804336  0.12936830591240625  0.9910423916882423  1.0000
  H   H200      1.0  0.8697320966190673  0.0745918154178622  0.001519068319587591  1.0000
  C   C301      1.0  0.760006473054204  0.24869229679981036  0.9659327608848397  1.0000
  C   C302      1.0  0.7183133910132516  0.2623372575358576  0.968735975162003  1.0000
  C   C303      1.0  0.6827660463116362  0.23962008990100847  0.9725065059867017  1.0000
  C   C304      1.0  0.6891156549931292  0.20333437903901597  0.9740336806719517  1.0000
  C   C305      1.0  0.7306097423346049  0.18967522602965228  0.9708724777355171  1.0000
  C   C306      1.0  0.7657301643483045  0.21228243852799158  0.9661579303909938  1.0000
  H   H201      1.0  0.7135533896513876  0.29046395790431495  0.968165625388599  1.0000
  H   H202      1.0  0.6506837223104568  0.2503018970970409  0.9748527217560354  1.0000
  H   H203      1.0  0.7354783942450355  0.16159498117003085  0.971821462715954  1.0000
  H   H204      1.0  0.7971722078623039  0.20151389478611942  0.9626099455454242  1.0000
  C   C307      1.0  0.09586106480143175  0.5373419800766638  0.6765981593817856  1.0000
  C   C308      1.0  0.10946067121617653  0.505990446358025  0.6864745188693183  1.0000
  C   C309      1.0  0.08085082497607443  0.47707796717067635  0.6877133521935441  1.0000
  C   C310      1.0  0.03813160402309079  0.47984704148061175  0.6797822667732658  1.0000
  C   C311      1.0  0.024662169249217714  0.5111467083752187  0.6697725566431232  1.0000
  C   C312      1.0  0.053680071788333006  0.5396866072803419  0.6678759295159092  1.0000
  H   H205      1.0  0.1422015624908115  0.5037722391386985  0.6928453766766971  1.0000
  H   H206      1.0  0.09160499315186077  0.45272291378962537  0.6951892205208765  1.0000
  H   H207      1.0  0.9920399016091082  0.513356809026956  0.663379934237771  1.0000
  H   H208      1.0  0.04315312333099097  0.5636644665305556  0.659901627341689  1.0000
  C   C313      1.0  0.3657134289260218  0.5210603459453788  0.716213401810229  1.0000
  C   C314      1.0  0.409591710916744  0.5136506908738304  0.7125776080386667  1.0000
  C   C315      1.0  0.42733821437447295  0.48233390099232293  0.720784056523208  1.0000
  C   C316      1.0  0.40136810409013146  0.458618003471308  0.7329485360860682  1.0000
  C   C317      1.0  0.3578440104440525  0.4666419465769578  0.7372161830806069  1.0000
  C   C318      1.0  0.3399857744000731  0.49779102078994225  0.7288210793168665  1.0000
  H   H209      1.0  0.42981866036896277  0.532062741392495  0.7033232026349164  1.0000
  H   H210      1.0  0.46108348136696414  0.476671887328855  0.717789370123395  1.0000
  H   H211      1.0  0.33768900551274794  0.4484726249082899  0.7467381128447287  1.0000
  H   H212      1.0  0.3061994324641651  0.5035154247780201  0.7319396033803367  1.0000
  C   C319      1.0  0.32712816733664607  0.9186543334963393  0.6065476089920286  1.0000
  C   C320      1.0  0.36638895250467524  0.9048016636589533  0.6142373292317445  1.0000
  C   C321      1.0  0.3956323903572682  0.8898187549828812  0.5989268471950454  1.0000
  C   C322      1.0  0.3851286397911463  0.8877423938339509  0.5759846143658599  1.0000
  C   C323      1.0  0.34612105265672505  0.9020013368784703  0.5682607156081014  1.0000
  C   C324      1.0  0.31773308789618754  0.9181853209327177  0.5834349841455206  1.0000
  H   H213      1.0  0.3745188401394139  0.9060125929564824  0.6319342506182527  1.0000
  H   H214      1.0  0.42592316732571167  0.8790999486696952  0.6049757508953979  1.0000
  H   H215      1.0  0.3378795154934506  0.900905728641444  0.5505904777507592  1.0000
  H   H216      1.0  0.2878054146844173  0.9294794735520705  0.5773413601487536  1.0000
  C   C325      1.0  0.26274242318737  0.7539790267237122  0.690665641184526  1.0000
  C   C326      1.0  0.2754762795662819  0.76189608199534  0.7127260571485317  1.0000
  C   C327      1.0  0.2630038013423153  0.7397928349884116  0.7304943408793888  1.0000
  C   C328      1.0  0.23691800001553973  0.7101383316700542  0.7263265993697635  1.0000
  C   C329      1.0  0.22335130274064124  0.7025974571076704  0.7043257945059547  1.0000
  C   C330      1.0  0.23672143666020173  0.7242747645360341  0.6864431600365686  1.0000
  H   H217      1.0  0.2968705754984272  0.7840407000563031  0.7159661169497281  1.0000
  H   H218      1.0  0.2746910600510516  0.745241295650022  0.7473363720926022  1.0000
  H   H219      1.0  0.20220415515360154  0.6802850618812656  0.7010901762590721  1.0000
  H   H220      1.0  0.22652353867959937  0.7182338185523602  0.6694037282277276  1.0000
  C   C331      1.0  0.13973971407545446  0.8566696262947304  0.7190129831479867  1.0000
  C   C332      1.0  0.10188091244880071  0.8522266616226676  0.7318548132473737  1.0000
  C   C333      1.0  0.08211265523809597  0.8188900216719683  0.7337221308611469  1.0000
  C   C334      1.0  0.10013654144852668  0.7900054703877178  0.7227092341927879  1.0000
  C   C335      1.0  0.13803853221528636  0.7944230759696691  0.7099908577331118  1.0000
  C   C336      1.0  0.15792649341115522  0.8276302946531927  0.7082534570039638  1.0000
  H   H221      1.0  0.08794396664054106  0.8744914735536382  0.7404412617644838  1.0000
  H   H222      1.0  0.05266009282968565  0.815696358883407  0.7434190114594844  1.0000
  H   H223      1.0  0.152432758287266  0.7720619370784987  0.7016770624504917  1.0000
  H   H224      1.0  0.18735798676224202  0.8305839021212801  0.6985453266682019  1.0000
  C   C337      1.0  0.3997928753102354  0.9510762302327207  0.7329767083204084  1.0000
  C   C338      1.0  0.3810402519584362  0.9774482426954219  0.7199058182284287  1.0000
  C   C339      1.0  0.3954973581233006  0.012400889578952912  0.7219842839618171  1.0000
  C   C340      1.0  0.4292261798415498  0.021126006388797025  0.7369130092807136  1.0000
  C   C341      1.0  0.4484465518195536  0.9947992520471451  0.749896601806788  1.0000
  C   C342      1.0  0.43357854156757597  0.9598130830159997  0.747983521862883  1.0000
  H   H225      1.0  0.3554544809729008  0.9709748242480593  0.7081306604359978  1.0000
  H   H226      1.0  0.38062611090987647  0.032634172769657965  0.7118611178208875  1.0000
  H   H227      1.0  0.47465292648985197  0.001353765663420603  0.761361010495468  1.0000
  H   H228      1.0  0.44837723048539435  0.9394188942007776  0.7579979214301414  1.0000
  C   C343      1.0  0.19987339388318023  0.43202517600891005  0.9267879974614828  1.0000
  C   C344      1.0  0.23865317336561928  0.4357491661028589  0.9388513630687967  1.0000
  C   C345      1.0  0.25093679942771613  0.4101413012046793  0.9543955390562476  1.0000
  C   C346      1.0  0.22546589286677077  0.3798347993211506  0.95714528728602  1.0000
  C   C347      1.0  0.1866623940754064  0.37575795076073587  0.9449595143787182  1.0000
  C   C348      1.0  0.1733523743865325  0.40230455910602897  0.930076390881597  1.0000
  H   H229      1.0  0.2588437338760435  0.4588097159258996  0.9364011144803543  1.0000
  H   H230      1.0  0.28051806379817507  0.4137274131637786  0.9639866434931575  1.0000
  H   H231      1.0  0.166694825185852  0.35240140547933524  0.9471805701092731  1.0000
  H   H232      1.0  0.1433033673284973  0.3993730676742817  0.9207006423473826  1.0000
  C   C349      1.0  0.9772252823404405  0.3887431899600286  0.934813774320355  1.0000
  C   C350      1.0  0.9444049974762312  0.3694485920240828  0.9457036603073391  1.0000
  C   C351      1.0  0.9552005789561575  0.3443803046763813  0.9620457691096198  1.0000
  C   C352      1.0  0.9988015841869249  0.338942376887391  0.9677149210899937  1.0000
  C   C353      1.0  0.03156214838326887  0.3581844075370253  0.9567593501488598  1.0000
  C   C354      1.0  0.020784869774326253  0.38278730847221887  0.9401619539740659  1.0000
  H   H233      1.0  0.9106417926460484  0.3739417421733729  0.9415861830188761  1.0000
  H   H234      1.0  0.9297462151450411  0.329592525941747  0.970480215657599  1.0000
  H   H235      1.0  0.06532921224039034  0.3533767810948735  0.9605265866811676  1.0000
  H   H236      1.0  0.04630381426544772  0.3964922318694489  0.9311391024658946  1.0000
  C   C355      1.0  0.08664144898213344  0.5437214179003633  0.8298054749604522  1.0000
  C   C356      1.0  0.10494561503051549  0.5103173320525288  0.8299528282150167  1.0000
  C   C357      1.0  0.13583757715758138  0.5011021866379237  0.8138274930905808  1.0000
  C   C358      1.0  0.14915227645357132  0.5254039514255046  0.79752755715284  1.0000
  C   C359      1.0  0.13082587277911464  0.5589202669250045  0.797140916586003  1.0000
  C   C360      1.0  0.09927250125419418  0.5679828150109998  0.8131929501892745  1.0000
  H   H237      1.0  0.0951504868118851  0.4913097039186916  0.8423594630548505  1.0000
  H   H238      1.0  0.14969265367352713  0.47507409683027857  0.8141255107579184  1.0000
  H   H239      1.0  0.14129419503148133  0.578029925391594  0.7847757390172378  1.0000
  H   H240      1.0  0.08521212146193013  0.5939412710240247  0.812959712801163  1.0000
  C   C361      1.0  0.9288302507262375  0.8061798700894339  0.08116326666696971  1.0000
  C   C362      1.0  0.9609669807396426  0.8321603743012016  0.07864293136244904  1.0000
  C   C363      1.0  0.9805680032389374  0.8472926062521395  0.09773784024272142  1.0000
  C   C364      1.0  0.9692013238041706  0.8355905929386293  0.11934316174294164  1.0000
  C   C365      1.0  0.936996152261601  0.8096395365472541  0.12189715014545041  1.0000
  C   C366      1.0  0.9162601128882935  0.7954360897987568  0.10281314614625447  1.0000
  H   H241      1.0  0.9702604731024136  0.8410180524591342  0.06201204765147117  1.0000
  H   H242      1.0  0.005294949050052011  0.8675477095704872  0.09574124836324316  1.0000
  H   H243      1.0  0.9277766602443196  0.8007257639642767  0.1385336000256541  1.0000
  H   H244      1.0  0.8911367278684593  0.775499525759678  0.10478933991568629  1.0000
  C   C367      1.0  0.9650193449282274  0.6514881436985084  0.9645115841779354  1.0000
  C   C368      1.0  0.9896699656811668  0.6430646890922725  0.9835204659755775  1.0000
  C   C369      1.0  0.015188389201145736  0.612775225827702  0.9836456594224795  1.0000
  C   C370      1.0  0.01662631390281666  0.5911124781028864  0.9646208185054617  1.0000
  C   C371      1.0  0.9912112684719581  0.5990447819324368  0.9457590018612839  1.0000
  C   C372      1.0  0.96492596380842  0.6289394646031564  0.9458527772821675  1.0000
  H   H245      1.0  0.9891547055337219  0.659912862767686  0.998130093252814  1.0000
  H   H246      1.0  0.034710277861373484  0.6067146508446112  0.9982959730331707  1.0000
  H   H247      1.0  0.9919190681496  0.5823925936619633  0.9310611991472987  1.0000
  H   H248      1.0  0.9451998809115639  0.6350883529315912  0.9312979126621767  1.0000
  C   C373      1.0  0.12257768072058917  0.7116160636310112  0.0025289178982608185  1.0000
  C   C374      1.0  0.09003344498063681  0.6929889992702254  0.9910796808159733  1.0000
  C   C375      1.0  0.09984720760535604  0.6739997591350629  0.9716619743713318  1.0000
  C   C376      1.0  0.14238785127282005  0.6732417225441559  0.96366970394869  1.0000
  C   C377      1.0  0.17561278752051712  0.6909722446494234  0.975396257805423  1.0000
  C   C378      1.0  0.16566509302982202  0.7101847737032684  0.99495577994202  1.0000
  H   H249      1.0  0.05688820522987359  0.6937309541691241  0.9969646542282488  1.0000
  H   H250      1.0  0.07419706891999645  0.660422035568157  0.9625488341642425  1.0000
  H   H251      1.0  0.20866694232942562  0.6903855106178953  0.969209305651447  1.0000
  H   H252      1.0  0.19094584252489089  0.7247685671511009  0.003710325523413882  1.0000
  C   C379      1.0  0.9577432669221316  0.8630166197634052  0.9462657827883664  1.0000
  C   C380      1.0  0.9478823471459504  0.8968897179839803  0.9387739009064641  1.0000
  C   C381      1.0  0.911510422295812  0.9023445238409555  0.9249769934542135  1.0000
  C   C382      1.0  0.8855834499966322  0.8738161739570284  0.9181405261832852  1.0000
  C   C383      1.0  0.8963817168680587  0.8397545917677728  0.9249451795519956  1.0000
  C   C384      1.0  0.9321645782624601  0.8343908737772038  0.9392075493791799  1.0000
  H   H253      1.0  0.967646028689011  0.9191033134117903  0.9441511618823499  1.0000
  H   H254      1.0  0.9035700590430549  0.9286779936798234  0.9196592224228693  1.0000
  H   H255      1.0  0.8762296949192546  0.8176256856708017  0.9198436814327945  1.0000
  H   H256      1.0  0.9398484126210765  0.8081041061005688  0.9447773592346694  1.0000
  N   N1        1.0  0.45525918246666325  0.8209612608294421  0.9161713110415513  1.0000
  C   C385      1.0  0.4782051247625726  0.8341963705978513  0.9364429087533397  1.0000
  C   C386      1.0  0.4138560874106161  0.8398395823057622  0.9133839940676024  1.0000
  C   C387      1.0  0.4462012648851141  0.7829017481664644  0.9187747450798783  1.0000
  C   C388      1.0  0.4827920961061859  0.8269753351702803  0.8961098044416502  1.0000
  H   H257      1.0  0.4855662104100526  0.8628540342030062  0.9350719554280545  1.0000
  H   H258      1.0  0.5096607464898323  0.8206134111964741  0.939041746734231  1.0000
  H   H259      1.0  0.45828818358973733  0.8301617922156569  0.9519096252959999  1.0000
  H   H260      1.0  0.3925158370059572  0.8362668398660998  0.9283009979544882  1.0000
  H   H261      1.0  0.4194496862198136  0.8686207296677504  0.9112116556382451  1.0000
  H   H262      1.0  0.39528169888038567  0.8301742138296717  0.8984651333831493  1.0000
  H   H263      1.0  0.4269871718340558  0.7773775621524021  0.9342758111024145  1.0000
  H   H264      1.0  0.4766760300534368  0.7675777515321157  0.9201006056179507  1.0000
  H   H265      1.0  0.4270228971504499  0.7721487591472458  0.9043461753489171  1.0000
  H   H266      1.0  0.4664857485929778  0.8172845236423396  0.8805022710953108  1.0000
  H   H267      1.0  0.5144571490475796  0.813316343033303  0.8976624968509063  1.0000
  H   H268      1.0  0.49015726393422043  0.8555134655216206  0.893736483574617  1.0000
  N   N2        1.0  0.19592476493434682  0.5427059947189857  0.9638623486843269  1.0000
  C   C389      1.0  0.21749486468744036  0.5457356539442878  0.9416906927745865  1.0000
  C   C390      1.0  0.2291115095128915  0.538211364096128  0.9816274406513161  1.0000
  C   C391      1.0  0.1661555094306913  0.5119688469357329  0.9637634002434202  1.0000
  C   C392      1.0  0.1708803615913149  0.5748699310399051  0.9683158224138037  1.0000
  H   H269      1.0  0.1935348544237648  0.5495507964933439  0.9278713278798046  1.0000
  H   H270      1.0  0.23619890460647772  0.5217032204685403  0.9375667754304667  1.0000
  H   H271      1.0  0.24075162319074592  0.5683355623058106  0.9412755914811871  1.0000
  H   H272      1.0  0.21419397315143673  0.5360312731214039  0.9986355419951068  1.0000
  H   H273      1.0  0.24839057969264522  0.514036993351269  0.9787849549615008  1.0000
  H   H274      1.0  0.2524082708157214  0.5608373260798692  0.9820154328511509  1.0000
  H   H275      1.0  0.14874973207169975  0.50918168651674  0.980089028621845  1.0000
  H   H276      1.0  0.18395520794301126  0.4872075070587695  0.9604781913727143  1.0000
  H   H277      1.0  0.1411582921619642  0.514556024561013  0.9503703687455604  1.0000
  H   H278      1.0  0.15376203819690246  0.5735484279062469  0.9847973021895151  1.0000
  H   H279      1.0  0.14548680139897321  0.5790115463454836  0.9551869438984942  1.0000
  H   H280      1.0  0.19228522167302742  0.5986882509684837  0.9684719806544819  1.0000
  N   N3        1.0  0.15322414800796083  0.810403304184454  0.9589428796118912  1.0000
  C   C393      1.0  0.18253033972308402  0.8414732622688383  0.9596545950898877  1.0000
  C   C394      1.0  0.13826344315694364  0.8020272909884206  0.981989308607279  1.0000
  C   C395      1.0  0.17682106378222295  0.7800115169206178  0.9496476359096611  1.0000
  C   C396      1.0  0.11513987577652096  0.8180675848028788  0.9445790852028414  1.0000
  H   H281      1.0  0.16592311441595328  0.8648966200022071  0.9666474521513337  1.0000
  H   H282      1.0  0.19454028929640874  0.8486919253449319  0.9425557626546366  1.0000
  H   H283      1.0  0.211716486204114  0.8365998232420293  0.9703018140568958  1.0000
  H   H284      1.0  0.11614632155703954  0.7787284412082341  0.9819764517482236  1.0000
  H   H285      1.0  0.16590898119061998  0.7957972911460254  0.9933927784068047  1.0000
  H   H286      1.0  0.12004995008763124  0.8241957916611347  0.9895704053567421  1.0000
  H   H287      1.0  0.15571991493168594  0.7559934313888235  0.9490448327631064  1.0000
  H   H288      1.0  0.205791835035298  0.7735657531178595  0.960104748844629  1.0000
  H   H289      1.0  0.18861285204648928  0.7853238176731635  0.932238399538643  1.0000
  H   H290      1.0  0.09238004693001067  0.7951093300308537  0.9436478519435864  1.0000
  H   H291      1.0  0.1250929081844223  0.8248659229795899  0.9270768025122421  1.0000
  H   H292      1.0  0.09621678655046573  0.8405738200023127  0.9513213438906863  1.0000
  N   N4        1.0  0.9839879545303623  0.42834512540482744  0.3670495243045111  1.0000
  C   C397      1.0  0.9620379229403422  0.4391210560687902  0.3880266769940324  1.0000
  C   C398      1.0  0.9707011554418168  0.4516634492507401  0.3483888501714375  1.0000
  C   C399      1.0  0.9716296918730348  0.39162719906218896  0.36160697707173856  1.0000
  C   C400      1.0  0.03161643208617515  0.4309674692995538  0.3702845629592881  1.0000
  H   H293      1.0  0.972351980194483  0.42254772918569  0.40250279774807896  1.0000
  H   H294      1.0  0.9260047888485193  0.43686584128443645  0.3865305083232553  1.0000
  H   H295      1.0  0.9703145962231067  0.46679580563432554  0.39252701079918545  1.0000
  H   H296      1.0  0.9864366768419571  0.4441629175459438  0.33224608516592335  1.0000
  H   H297      1.0  0.9349045152905398  0.4505172671473403  0.3455200598792878  1.0000
  H   H298      1.0  0.9799255202258085  0.4795336514466599  0.35185997999587754  1.0000
  H   H299      1.0  0.9870579178239838  0.3828016821384946  0.3456550407668327  1.0000
  H   H300      1.0  0.9357603467355384  0.3885344262027931  0.3595868366898732  1.0000
  H   H301      1.0  0.9817920843352582  0.3732634262379245  0.3752008310986237  1.0000
  H   H302      1.0  0.04287631194017739  0.4131104050328512  0.38393671435604804  1.0000
  H   H303      1.0  0.04182209698285977  0.458007073276475  0.37533690449429213  1.0000
  H   H304      1.0  0.04950001122157866  0.42439980723352694  0.3545841955080659  1.0000
  N   N5        1.0  0.037165008537367816  0.41585440999305323  0.20992309976187046  1.0000
  C   C401      1.0  0.004342795327074044  0.39576347024993047  0.1968050273013126  1.0000
  C   C402      1.0  0.06599340580434054  0.3912133987718885  0.22189529929179225  1.0000
  C   C403      1.0  0.01496524257499532  0.4384293119977043  0.22648219798610006  1.0000
  C   C404      1.0  0.06340465995513613  0.43805712288157117  0.1945236972675494  1.0000
  H   H305      1.0  0.982039143651921  0.4135244162480542  0.18754566389022378  1.0000
  H   H306      1.0  0.9838755797502742  0.37881979406429167  0.20794780104876395  1.0000
  H   H307      1.0  0.019854729557322814  0.3781156475307347  0.1842943688457506  1.0000
  H   H308      1.0  0.04720395383640242  0.3735739412547123  0.23334328194869075  1.0000
  H   H309      1.0  0.08372128504773402  0.37406839416109927  0.20991842817145195  1.0000
  H   H310      1.0  0.09074949163289148  0.405507977793189  0.23227380603461412  1.0000
  H   H311      1.0  0.9947454372689397  0.45866041046093886  0.2180676218418152  1.0000
  H   H312      1.0  0.038705066283035716  0.45248702790406914  0.23752929460517874  1.0000
  H   H313      1.0  0.9930765561330441  0.4227855240968454  0.23758547700367486  1.0000
  H   H314      1.0  0.0885855560485589  0.4533833311575152  0.2039133781711353  1.0000
  H   H315      1.0  0.042881088778378595  0.4573516046353209  0.18542178196192344  1.0000
  H   H316      1.0  0.08054546812052467  0.42194818823624336  0.18174000939720958  1.0000
  N   N6        1.0  0.4922613695498592  0.34256067788005373  0.24677282181962473  1.0000
  C   C405      1.0  0.5344464022734261  0.3263443064635022  0.25228219789409784  1.0000
  C   C406      1.0  0.493150978961311  0.35572276150497745  0.22332048481170025  1.0000
  C   C407      1.0  0.4843712424990608  0.37217319589352094  0.2623282170214823  1.0000
  C   C408      1.0  0.4570591617880065  0.3159958419790709  0.24914082023738918  1.0000
  H   H317      1.0  0.5343269463723356  0.31466693167450965  0.2695415027371391  1.0000
  H   H318      1.0  0.5616081358953777  0.3459057085134341  0.2515182789248237  1.0000
  H   H319      1.0  0.5422766355580831  0.3048720595485246  0.24027968153304413  1.0000
  H   H320      1.0  0.4619363872751191  0.36836789222319016  0.21866648902307181  1.0000
  H   H321      1.0  0.5195060432069677  0.37563289999719096  0.22079957889507038  1.0000
  H   H322      1.0  0.4983134410241696  0.3340332139866285  0.21103661605805174  1.0000
  H   H323      1.0  0.45279255053348366  0.38501876168207455  0.2586886980697266  1.0000
  H   H324      1.0  0.5100379990832314  0.3929504970956564  0.26077705373934973  1.0000
  H   H325      1.0  0.48378066925287955  0.3632369185779695  0.280197854826533  1.0000
  H   H326      1.0  0.42472783783483814  0.3271938352990066  0.2450086614752126  1.0000
  H   H327      1.0  0.455465003461189  0.3052481432509931  0.2665884505581988  1.0000
  H   H328      1.0  0.461994215265533  0.29336609128481367  0.2375901131341306  1.0000
  N   N7        1.0  0.9125174558019596  0.8342989854598127  0.84679927481174  1.0000
  C   C409      1.0  0.9298047008281666  0.8677104235765559  0.8561154965255211  1.0000
  C   C410      1.0  0.8991936608485509  0.8108070829514841  0.8654634481383026  1.0000
  C   C411      1.0  0.9464661801686816  0.8171016584603805  0.8332103189333846  1.0000
  C   C412      1.0  0.8744010198314339  0.8416043530669365  0.8324028910334063  1.0000
  H   H329      1.0  0.9047383170704988  0.8815117277207416  0.8662375425372008  1.0000
  H   H330      1.0  0.9404891587254236  0.8859361388663624  0.8424635346251282  1.0000
  H   H331      1.0  0.9581081696232787  0.8632214759464006  0.8674264170869116  1.0000
  H   H332      1.0  0.8728411129692211  0.8227022754825912  0.8756887599127371  1.0000
  H   H333      1.0  0.8866598375535886  0.785126910197008  0.8590201204950222  1.0000
  H   H334      1.0  0.9268192182048026  0.8054506834031165  0.8770615947048336  1.0000
  H   H335      1.0  0.9761071623428794  0.811694105924719  0.8433654900513365  1.0000
  H   H336      1.0  0.9562923129020771  0.8336438906132351  0.818521334179741  1.0000
  H   H337      1.0  0.9345667869961205  0.791561075566523  0.8262271151155902  1.0000
  H   H338      1.0  0.8604208360304129  0.8169585237520816  0.825092041064137  1.0000
  H   H339      1.0  0.883361758681337  0.8589333582242762  0.8179728683176439  1.0000
  H   H340      1.0  0.8482139464720995  0.85475509804224  0.8420979847429542  1.0000
  N   N8        1.0  0.04261077223196552  0.4886628218437238  0.7540986871776998  1.0000
  C   C413      1.0  0.030361957140940365  0.4953071035326249  0.7778073218581171  1.0000
  C   C414      1.0  0.08982677412921003  0.4948106646104686  0.7513584632897585  1.0000
  C   C415      1.0  0.01859514039523713  0.5127383199829801  0.7391666561884294  1.0000
  C   C416      1.0  0.03176228374394219  0.4518711584239778  0.7480368245041799  1.0000
  H   H341      1.0  0.04798629266507182  0.47765113744560866  0.789585843481253  1.0000
  H   H342      1.0  0.9948737924938578  0.4911578977941498  0.7805220678220859  1.0000
  H   H343      1.0  0.03840050098639192  0.5228304270299011  0.7829572902376624  1.0000
  H   H344      1.0  0.10060184959509799  0.4894849794223219  0.7338389562009745  1.0000
  H   H345      1.0  0.09914067477596666  0.5224725078006158  0.7553694303456941  1.0000
  H   H346      1.0  0.10898711090087243  0.47744540745029845  0.7626474518489891  1.0000
  H   H347      1.0  0.029233087191590013  0.5102041737452419  0.7213726309836399  1.0000
  H   H348      1.0  0.023629795136249854  0.5406407841430022  0.7442582429968216  1.0000
  H   H349      1.0  0.9830641966657236  0.5069037854820932  0.7394234586377091  1.0000
  H   H350      1.0  0.04963265631148506  0.43290650658039004  0.7588014578788549  1.0000
  H   H351      1.0  0.040235697043832674  0.4461777873139179  0.7301586586739278  1.0000
  H   H352      1.0  0.9963536898489861  0.4461756875692539  0.749898739585977  1.0000
  N   N9        1.0  0.3758601718491084  0.8673359494142423  0.09211387953433348  1.0000
  C   C417      1.0  0.3712538998050144  0.8751366194066196  0.06781671476242335  1.0000
  C   C418      1.0  0.3554720904535748  0.8328727400014976  0.09723616493384236  1.0000
  C   C419      1.0  0.35425609716834605  0.8949631201320949  0.10538395254281505  1.0000
  C   C420      1.0  0.4225224809476724  0.8664287995165476  0.09807870712049195  1.0000
  H   H353      1.0  0.3863021286652526  0.9010330561153445  0.06353349645361916  1.0000
  H   H354      1.0  0.3364938600989957  0.8761699875363046  0.06265256961215515  1.0000
  H   H355      1.0  0.3874659345340101  0.8550340775696889  0.05722369584442366  1.0000
  H   H356      1.0  0.3587297859589764  0.826314587487388  0.11548945431762697  1.0000
  H   H357      1.0  0.3201571622463155  0.8326830171279733  0.09312586620411212  1.0000
  H   H358      1.0  0.3709113050112529  0.811361566717947  0.08751183550809727  1.0000
  H   H359      1.0  0.31925385245133936  0.8971600809662278  0.10093446890244222  1.0000
  H   H360      1.0  0.3696034143809936  0.9211247015589966  0.10247006234193738  1.0000
  H   H361      1.0  0.35632637919401067  0.8896519086405763  0.12378523349319984  1.0000
  H   H362      1.0  0.43899052297909275  0.8920353332098875  0.09436388193107192  1.0000
  H   H363      1.0  0.43985441507592826  0.8458125360308217  0.08844001567632098  1.0000
  H   H364      1.0  0.42719253746000535  0.8607329282776305  0.11635965070353148  1.0000
  N   N10       1.0  0.7806415297389621  0.15943920233282516  0.25465656212796  1.0000
  C   C421      1.0  0.7624078059182403  0.1466729031529217  0.2762429656309718  1.0000
  C   C422      1.0  0.7487055020257363  0.15302158349001016  0.23643978781299707  1.0000
  C   C423      1.0  0.8212195067465121  0.14063522439249482  0.2496420386606678  1.0000
  C   C424      1.0  0.7904102933986645  0.1974823133453536  0.25617561838981956  1.0000
  H   H365      1.0  0.7850888950074679  0.15168940898249814  0.2905679890507359  1.0000
  H   H366      1.0  0.7553990845297088  0.11790305035330166  0.2757555464536534  1.0000
  H   H367      1.0  0.7314636221496444  0.16009559061073872  0.28039419871102444  1.0000
  H   H368      1.0  0.7615145819727361  0.16216896308450823  0.21992178989187186  1.0000
  H   H369      1.0  0.7406871226801006  0.12452994042645577  0.23471822858398786  1.0000
  H   H370      1.0  0.7178334949848495  0.16722489374960617  0.2395879047312213  1.0000
  H   H371      1.0  0.8367760409532183  0.15084784059883372  0.23399653771581203  1.0000
  H   H372      1.0  0.8149610389491357  0.11212296465622576  0.24706334160933321  1.0000
  H   H373      1.0  0.8453163104535503  0.14360637558444753  0.2635405734974795  1.0000
  H   H374      1.0  0.8042349046268944  0.2077646764445125  0.24013356094979715  1.0000
  H   H375      1.0  0.8138218054791675  0.20340411487226506  0.2700154250080525  1.0000
  H   H376      1.0  0.7607111661886814  0.2128163792600328  0.2595127213008217  1.0000
  N   N11       1.0  0.054456557622873936  0.6546517614124454  0.8879122271065064  1.0000
  C   C425      1.0  0.06669855361002176  0.6221173691368337  0.8998208738632452  1.0000
  C   C426      1.0  0.05137858426686415  0.6475779104336918  0.8634510965510643  1.0000
  C   C427      1.0  0.08777485271469533  0.6821941090105503  0.8921088433783104  1.0000
  C   C428      1.0  0.011971087052312201  0.6667362250230847  0.8963018414254001  1.0000
  H   H377      1.0  0.06815189933373889  0.6261724616739185  0.9184159139575254  1.0000
  H   H378      1.0  0.09933515695707507  0.6130587347796316  0.8944032281356551  1.0000
  H   H379      1.0  0.043063518558658975  0.6003813670364637  0.8963577305216704  1.0000
  H   H380      1.0  0.04291875769832254  0.6716571758100769  0.8538370029660819  1.0000
  H   H381      1.0  0.08261480587294767  0.6376186835918319  0.8566301556199128  1.0000
  H   H382      1.0  0.02593804196851179  0.627358992158833  0.8596384962179313  1.0000
  H   H383      1.0  0.09112720120525732  0.6878638405421649  0.9104398580475634  1.0000
  H   H384      1.0  0.07931200150349695  0.7072122352559458  0.8835420178448508  1.0000
  H   H385      1.0  0.12029784100737728  0.6740613007876987  0.8858861793607536  1.0000
  H   H386      1.0  0.0015505880943440513  0.6910088780282686  0.8874141564825893  1.0000
  H   H387      1.0  0.013349550851369464  0.6727965378835021  0.9146769454867074  1.0000
  H   H388      1.0  0.9861847118318355  0.6463440966748069  0.8937141268882873  1.0000
  N   N12       1.0  0.41861468586287004  0.07816134374879313  0.004727055914221401  1.0000
  C   C429      1.0  0.4390920444690462  0.0882775528895717  0.026371684940935003  1.0000
  C   C430      1.0  0.3944352890009383  0.044635464722196705  0.0076112119029168035  1.0000
  C   C431      1.0  0.452638285967268  0.07367606023927328  0.9874410853321816  1.0000
  C   C432      1.0  0.38838797922613383  0.10593717694137268  0.9974722588194295  1.0000
  H   H389      1.0  0.41426216104117847  0.09196516902974276  0.03978204896235815  1.0000
  H   H390      1.0  0.45787261607277846  0.11337972786177992  0.024779668951339096  1.0000
  H   H391      1.0  0.46175214721061236  0.06765818628939249  0.032421777663809825  1.0000
  H   H392      1.0  0.36939760664916543  0.046513702691677865  0.021066030596477825  1.0000
  H   H393      1.0  0.3773118849688233  0.03681604265707206  0.9918201264744718  1.0000
  H   H394      1.0  0.4166035419163061  0.02279766628805735  0.012175118048403544  1.0000
  H   H395      1.0  0.4382188534117189  0.06512946876311443  0.9711098103012079  1.0000
  H   H396      1.0  0.4763589365620288  0.05328296053035318  0.9925450318613209  1.0000
  H   H397      1.0  0.4707341037317766  0.09871942221117185  0.9842944121229795  1.0000
  H   H398      1.0  0.4056236993676106  0.13155095042205406  0.9947612727146146  1.0000
  H   H399      1.0  0.36235269205017673  0.11016141052615618  0.01014391729187758  1.0000
  H   H400      1.0  0.372026855371618  0.09889051099381607  0.9813039558931693  1.0000
  N   N13       1.0  0.12516454872460225  0.6425788323841558  0.24681611933984132  1.0000
  C   C433      1.0  0.16926126307879974  0.646415791738881  0.2565060311939613  1.0000
  C   C434      1.0  0.09268978088899393  0.6516981375926544  0.26411904539131903  1.0000
  C   C435      1.0  0.11820849375579878  0.6058198780241811  0.2393942124886647  1.0000
  C   C436      1.0  0.12063226890598688  0.6664629352801823  0.22729630406648918  1.0000
  H   H401      1.0  0.1946623329177295  0.6398591996821538  0.24390399079216368  1.0000
  H   H402      1.0  0.17375317684925573  0.628780787377332  0.27128206659697607  1.0000
  H   H403      1.0  0.17565816974652004  0.6738277085651779  0.2622491285553944  1.0000
  H   H404      1.0  0.059024110012759534  0.6492109831541152  0.2574137645291285  1.0000
  H   H405      1.0  0.09492906183649996  0.6341786659842221  0.2790959978685373  1.0000
  H   H406      1.0  0.09727621549122634  0.6792574791534457  0.2700228642020119  1.0000
  H   H407      1.0  0.14174043305002804  0.5982531505932895  0.22607539167928428  1.0000
  H   H408      1.0  0.08504475245482102  0.6016199619431752  0.23233915692389479  1.0000
  H   H409      1.0  0.1220425096862201  0.5869224280158295  0.2535606935428557  1.0000
  H   H410      1.0  0.08771793393140581  0.6642589788118437  0.2195311986190091  1.0000
  H   H411      1.0  0.14476656879696082  0.6604947019484371  0.21391618385866626  1.0000
  H   H412      1.0  0.12559957909316966  0.6944715480881837  0.2322433184253838  1.0000
  N   N14       1.0  0.3651534684796257  0.6661165174771239  0.7050570908406095  1.0000
  C   C437      1.0  0.40654800963630716  0.6470696247571733  0.7029345454900866  1.0000
  C   C438      1.0  0.343011506817164  0.655244604616311  0.7260800707760187  1.0000
  C   C439      1.0  0.3368939661383684  0.6577785747391416  0.6855477403947702  1.0000
  C   C440      1.0  0.3741000730814115  0.704370150771882  0.70564931514304  1.0000
  H   H413      1.0  0.42403128474113805  0.6544866187005351  0.6872006708222028  1.0000
  H   H414      1.0  0.4009032243099388  0.6180935256807508  0.7024685030558115  1.0000
  H   H415      1.0  0.4285586953456937  0.6526803369912746  0.717435167788389  1.0000
  H   H416      1.0  0.3361419245228397  0.6264526307094551  0.7262526236446031  1.0000
  H   H417      1.0  0.36299409954891204  0.6614768823630826  0.7412334486245405  1.0000
  H   H418      1.0  0.31134046700243845  0.6686656250631301  0.7280877095012941  1.0000
  H   H419      1.0  0.3051255152186359  0.671370897744918  0.6868168209064727  1.0000
  H   H420      1.0  0.3298774918429728  0.6290297272076684  0.6844281922295672  1.0000
  H   H421      1.0  0.3521986438952217  0.6660600358970638  0.6693929627097612  1.0000
  H   H422      1.0  0.34350608830236945  0.7194040937944007  0.7070106959145577  1.0000
  H   H423      1.0  0.39075991552897626  0.7135560303513745  0.6900397914447726  1.0000
  H   H424      1.0  0.39487629584250195  0.7118257226052005  0.7203029759812989  1.0000
  N   N15       1.0  0.8872264657554011  0.30427743598505486  0.8914112176235923  1.0000
  C   C441      1.0  0.8594202538793128  0.30763504533418706  0.9116035652845843  1.0000
  C   C442      1.0  0.862238014234656  0.3142949055182998  0.8711280982832755  1.0000
  C   C443      1.0  0.9015125321708046  0.26746857471491564  0.8892234438597453  1.0000
  C   C444      1.0  0.9257564736428685  0.32765181727818543  0.89366963148499  1.0000
  H   H425      1.0  0.8772743546377281  0.3007013352965277  0.9272878462521007  1.0000
  H   H426      1.0  0.8303161851324493  0.2898927746827145  0.9106633008031056  1.0000
  H   H427      1.0  0.8474523284619999  0.33491295922033504  0.9136596187511136  1.0000
  H   H428      1.0  0.8818307222118847  0.31138596251205086  0.855449802117111  1.0000
  H   H429      1.0  0.8324826878671496  0.2976187284030495  0.8691950626338427  1.0000
  H   H430      1.0  0.8516204496905926  0.3421170805060031  0.8720017070226077  1.0000
  H   H431      1.0  0.8732217051176973  0.24915098441665495  0.8874725429282733  1.0000
  H   H432      1.0  0.920395319058786  0.258999523384949  0.904264812727732  1.0000
  H   H433      1.0  0.9224460126481269  0.26392048201581647  0.8741165438894987  1.0000
  H   H434      1.0  0.9470511181387055  0.32622892226612005  0.8785468200081182  1.0000
  H   H435      1.0  0.945812802923559  0.32046951811008134  0.9085866977592769  1.0000
  H   H436      1.0  0.9162846597730545  0.3556474600460432  0.8957245906660479  1.0000
  N   N16       1.0  0.7044381484146963  0.39333464130276447  0.6417306736457611  1.0000
  C   C445      1.0  0.6659764132599972  0.415554019929761  0.6453401660619216  1.0000
  C   C446      1.0  0.723632066873565  0.3839760874352275  0.6637696941458354  1.0000
  C   C447      1.0  0.7369424948097232  0.4129110803956626  0.6281677986890786  1.0000
  C   C448      1.0  0.6911447593855484  0.3609477274085149  0.6296408300851262  1.0000
  H   H437      1.0  0.6504002703792202  0.42284550060176046  0.6290634493670844  1.0000
  H   H438      1.0  0.674695618196314  0.44037637939643953  0.6542699753140944  1.0000
  H   H439      1.0  0.640811983870511  0.40169070131361506  0.6556092099722269  1.0000
  H   H440      1.0  0.7529533107500026  0.36735176560543886  0.6617676925952034  1.0000
  H   H441      1.0  0.734093022663673  0.4077824409543114  0.6733359904461307  1.0000
  H   H442      1.0  0.7000692946555899  0.3691684175741919  0.6745140138998493  1.0000
  H   H443      1.0  0.7669014192286032  0.3973211228229625  0.6254376019977725  1.0000
  H   H444      1.0  0.7472142325740627  0.43783693741067675  0.6365668268467024  1.0000
  H   H445      1.0  0.723906107396706  0.42001429058330647  0.6112758816386785  1.0000
  H   H446      1.0  0.7193290955900006  0.34355808085713185  0.6265221698494038  1.0000
  H   H447      1.0  0.6762638907390083  0.36702459357238804  0.612960725773142  1.0000
  H   H448      1.0  0.6665434348138431  0.3455474404210514  0.6393785433889602  1.0000
  N   N17       1.0  0.46067247349539314  0.9434747651926984  0.5107171093330756  1.0000
  C   C449      1.0  0.4638831578474451  0.9084544218603856  0.5000742688095264  1.0000
  C   C450      1.0  0.4147218712323221  0.9504017948034048  0.5162569732259803  1.0000
  C   C451      1.0  0.4770704350723869  0.9706917120587644  0.49497429378396696  1.0000
  C   C452      1.0  0.4869548920516138  0.9443047628183102  0.5316008777867091  1.0000
  H   H449      1.0  0.4980083867308594  0.9023229791998695  0.4954970723349182  1.0000
  H   H450      1.0  0.4441119453305951  0.9068152154892211  0.4843663926496488  1.0000
  H   H451      1.0  0.4519922479546323  0.8872989604951501  0.5115834784453587  1.0000
  H   H452      1.0  0.41087366360860617  0.9766871589693213  0.5241829761993193  1.0000
  H   H453      1.0  0.3938696418648171  0.9496611590749972  0.5009110842282173  1.0000
  H   H454      1.0  0.40155600862006663  0.9304424384891741  0.5282638799706556  1.0000
  H   H455      1.0  0.47441642651112204  0.9975566487121115  0.5022331027405789  1.0000
  H   H456      1.0  0.45826957671893026  0.9705763426556294  0.4789795985461092  1.0000
  H   H457      1.0  0.5117456124267518  0.9664744635719508  0.49049262862469734  1.0000
  H   H458      1.0  0.48506749173163954  0.9703051748541148  0.5401149160897171  1.0000
  H   H459      1.0  0.5217816165643756  0.9389955468537795  0.5280871919525303  1.0000
  H   H460      1.0  0.47540454061913506  0.9241189043439656  0.5438876759812302  1.0000
  N   N18       1.0  0.8656014360557813  0.025915085054683207  0.32995663373589046  1.0000
  C   C453      1.0  0.9031551896539103  0.03034084237978285  0.3453258248877403  1.0000
  C   C454      1.0  0.8256830263447733  0.01897932461881613  0.343179490572339  1.0000
  C   C455      1.0  0.8734726363734922  0.9960177934344099  0.31465681565961884  1.0000
  C   C456      1.0  0.8600966261481682  0.05834663646893623  0.3165773168854452  1.0000
  H   H461      1.0  0.9074350224524433  0.006886498272184127  0.35627789497904777  1.0000
  H   H462      1.0  0.8990590495934119  0.053424373554156857  0.3565764611841125  1.0000
  H   H463      1.0  0.9338966091932963  0.034732285968030796  0.3358222389014907  1.0000
  H   H464      1.0  0.7971244240738038  0.014091923062746092  0.3320015598390194  1.0000
  H   H465      1.0  0.8291567760015826  0.9956454483537143  0.3542987770191553  1.0000
  H   H466      1.0  0.8174148742192001  0.041853626430963686  0.35399870675472794  1.0000
  H   H467      1.0  0.9033194608997333  0.00024084456406003873  0.3043495041807506  1.0000
  H   H468      1.0  0.8461010242135732  0.9921838331878907  0.30261858989709983  1.0000
  H   H469      1.0  0.87733974468491  0.9709739058502701  0.32409387289723174  1.0000
  H   H470      1.0  0.8540362436066826  0.08143809917252076  0.32764708537053316  1.0000
  H   H471      1.0  0.8317558254313262  0.05599941215257842  0.30501264994697724  1.0000
  H   H472      1.0  0.8893765089229473  0.06433653223212388  0.30622955697484  1.0000
  N   N19       1.0  0.36084080559228  0.3159949839794295  0.9449706860589364  1.0000
  C   C457      1.0  0.33296271865392896  0.2924496959968438  0.9587057783612701  1.0000
  C   C458      1.0  0.4016462428977885  0.32385577990514014  0.9573092903210542  1.0000
  C   C459      1.0  0.33759759371524484  0.349050448689128  0.9404606333130112  1.0000
  C   C460      1.0  0.37113551942212636  0.2985005928300336  0.9234197356639374  1.0000
  H   H473      1.0  0.3010300136424978  0.2872675133902905  0.9504014871552224  1.0000
  H   H474      1.0  0.32594686335931017  0.30420029857763936  0.975495423325986  1.0000
  H   H475      1.0  0.34875480464009906  0.26663933773111553  0.9615807373130174  1.0000
  H   H476      1.0  0.42106763550331683  0.29969258656049513  0.9598759579718921  1.0000
  H   H477      1.0  0.4225513599222847  0.3429944993128198  0.9480080523482427  1.0000
  H   H478      1.0  0.3951690082374862  0.33511947891207633  0.9742962042917932  1.0000
  H   H479      1.0  0.3295857583574356  0.3627863487983371  0.9564111415751327  1.0000
  H   H480      1.0  0.3062124470384104  0.34410835598561995  0.9315315299028818  1.0000
  H   H481      1.0  0.35736766158285105  0.3675255508532267  0.930020831917027  1.0000
  H   H482      1.0  0.39231801949170336  0.3154441571443893  0.9126552368484313  1.0000
  H   H483      1.0  0.34105720897173886  0.2921593260864361  0.9136903614088786  1.0000
  H   H484      1.0  0.38859269070435515  0.2733540508870351  0.9263297354626411  1.0000
  N   N20       1.0  0.7539171629125216  0.23797854045817854  0.04135663893586438  1.0000
  C   C461      1.0  0.7579417487291272  0.20433057338284435  0.0536145062645037  1.0000
  C   C462      1.0  0.7863112803426108  0.2394134535055243  0.023049624702769167  1.0000
  C   C463      1.0  0.7618921857335069  0.26759308383297886  0.05702218808748105  1.0000
  C   C464      1.0  0.7097695290901057  0.24046705040568328  0.03162769660116416  1.0000
  H   H485      1.0  0.7910384852623273  0.20145917311900224  0.06094861613256386  1.0000
  H   H486      1.0  0.752439764378824  0.18145598558441386  0.042186116039553134  1.0000
  H   H487      1.0  0.7340825051768148  0.20227407201362582  0.06763357767784117  1.0000
  H   H488      1.0  0.7835985993450763  0.26393926646341126  0.012911896624286046  1.0000
  H   H489      1.0  0.8199893945708046  0.2385154518904827  0.02979089261888368  1.0000
  H   H490      1.0  0.7822459554247853  0.21676878204039504  0.01137875544662581  1.0000
  H   H491      1.0  0.7951215544701656  0.2664182432799455  0.06452294228675282  1.0000
  H   H492      1.0  0.7381922711852467  0.26737098608697357  0.07117172217158041  1.0000
  H   H493      1.0  0.759299948650794  0.29333911047441774  0.048216526443009  1.0000
  H   H494      1.0  0.6843690575437126  0.24036160718288907  0.044949520376290186  1.0000
  H   H495      1.0  0.7025327764677223  0.2179320816227646  0.020166005387084462  1.0000
  H   H496      1.0  0.7060639065523946  0.2649217755393161  0.021504851398828295  1.0000
  N   N21       1.0  0.7518167968954548  0.09337822430987662  0.43618602415422764  1.0000
  C   C465      1.0  0.780166452762162  0.12252398556529058  0.4284188155442431  1.0000
  C   C466      1.0  0.7722839311906892  0.05951280538053165  0.43070841923003095  1.0000
  C   C467      1.0  0.7091486481671606  0.09550165512249774  0.42477004273158836  1.0000
  C   C468      1.0  0.7458223791952137  0.09603607969816037  0.46082830022056953  1.0000
  H   H497      1.0  0.7848655820140373  0.12157026697531577  0.4098402427113405  1.0000
  H   H498      1.0  0.8129749946270839  0.12144045049194709  0.4363635023098131  1.0000
  H   H499      1.0  0.7659882628041346  0.14855040670422817  0.432490228618049  1.0000
  H   H500      1.0  0.8043500162907619  0.05687224397737551  0.4392567730558684  1.0000
  H   H501      1.0  0.751695067492012  0.03693552923026533  0.4361879177027013  1.0000
  H   H502      1.0  0.7777144227212464  0.056778930046181494  0.412251608735872  1.0000
  H   H503      1.0  0.6865996925129404  0.07426109507428227  0.430594438810492  1.0000
  H   H504      1.0  0.7125324194457984  0.09287272142787938  0.4061564250680752  1.0000
  H   H505      1.0  0.6933197537665022  0.12118015450564538  0.4280465572356973  1.0000
  H   H506      1.0  0.7240589584355914  0.07471007520365958  0.4672083998416146  1.0000
  H   H507      1.0  0.7311857864729395  0.1215778087017666  0.4655395259086536  1.0000
  H   H508      1.0  0.7774140615241283  0.09379128636423378  0.4699272160561609  1.0000
  N   N22       1.0  0.3008525454626807  0.6400226066539166  0.3510632043630942  1.0000
  C   C469      1.0  0.3294477486388512  0.6112663395173058  0.3582903162251859  1.0000
  C   C470      1.0  0.274651554218045  0.6520748579211711  0.3703720814687961  1.0000
  C   C471      1.0  0.2716269508937783  0.6270826903511949  0.33300505137909103  1.0000
  C   C472      1.0  0.32785984421033143  0.66950414588697  0.34260722632177243  1.0000
  H   H509      1.0  0.34785739220346595  0.6000977079694129  0.3438971050450027  1.0000
  H   H510      1.0  0.3102811101311021  0.5894797361541939  0.3658546054542414  1.0000
  H   H511      1.0  0.35381091226184325  0.6203429607773606  0.3709282791243687  1.0000
  H   H512      1.0  0.25326049562942926  0.6742427830414965  0.36548410453697905  1.0000
  H   H513      1.0  0.25345213941077427  0.630502434296784  0.37696109196367544  1.0000
  H   H514      1.0  0.29585260716050754  0.6610205178626838  0.38454855603314814  1.0000
  H   H515      1.0  0.2905652338531826  0.6171859521353462  0.3183822181536557  1.0000
  H   H516      1.0  0.24982292818684212  0.648173143833852  0.32688998111841644  1.0000
  H   H517      1.0  0.2508493899764305  0.6047874922219756  0.3390080337311511  1.0000
  H   H518      1.0  0.30751824014270424  0.6914279782342401  0.3364871751393532  1.0000
  H   H519      1.0  0.34873913368724524  0.6610052581684804  0.32841228631965247  1.0000
  H   H520      1.0  0.3499337616435756  0.6799879073741426  0.35596100439212686  1.0000
  N   N23       1.0  0.7548887471648548  0.4646732539008566  0.7469934041894323  1.0000
  C   C473      1.0  0.794506220606481  0.4459568429215284  0.7540219545520521  1.0000
  C   C474      1.0  0.7252051612508827  0.46767260559114204  0.7664355270852574  1.0000
  C   C475      1.0  0.7328660950130902  0.4447551689012912  0.7287835247177962  1.0000
  C   C476      1.0  0.7669715722716994  0.5001444000224194  0.7387135584210773  1.0000
  H   H521      1.0  0.8172090590541456  0.44266798647620315  0.7396374317529425  1.0000
  H   H522      1.0  0.7865926310383929  0.4190843994822869  0.7604280902143805  1.0000
  H   H523      1.0  0.8123621182851855  0.4603345653759036  0.7675558572877333  1.0000
  H   H524      1.0  0.7406477929396694  0.4825221190439672  0.7805422796641123  1.0000
  H   H525      1.0  0.6946849760473741  0.48129157357029645  0.7616833183781357  1.0000
  H   H526      1.0  0.7154665355228558  0.4412397218548737  0.7729034504210185  1.0000
  H   H527      1.0  0.7270306991689827  0.41680408330365726  0.7337077153573125  1.0000
  H   H528      1.0  0.7527844904144534  0.444454965619766  0.7132024628918482  1.0000
  H   H529      1.0  0.7007629905139031  0.45614455692871847  0.7244575406351443  1.0000
  H   H530      1.0  0.7379868805227182  0.514915703141221  0.732955541926442  1.0000
  H   H531      1.0  0.7897191522516981  0.49873310214206623  0.7241608052324746  1.0000
  H   H532      1.0  0.7836029475628098  0.5160948737286111  0.7519675969636002  1.0000
  N   N24       1.0  0.8167301338841416  0.35367458230657867  0.4932666920016201  1.0000
  C   C477      1.0  0.8441424434086632  0.36643158443426654  0.5121529124484447  1.0000
  C   C478      1.0  0.7879208454086346  0.3821743028696873  0.48566284805380766  1.0000
  C   C479      1.0  0.7899393509022778  0.32335461721037173  0.5007777851661568  1.0000
  C   C480      1.0  0.8448821806970918  0.3427776415370004  0.47440787623778835  1.0000
  H   H533      1.0  0.8661019074302044  0.3455764191729064  0.5185119337377806  1.0000
  H   H534      1.0  0.8240984201761405  0.37548341243036815  0.5265877364721211  1.0000
  H   H535      1.0  0.8653362786444267  0.3889193157070904  0.506889032098062  1.0000
  H   H536      1.0  0.7689261438295091  0.3742599512819563  0.47043304558219096  1.0000
  H   H537      1.0  0.7641483451728398  0.38944823962671543  0.4989329996847125  1.0000
  H   H538      1.0  0.8068381251181562  0.4062779541631655  0.48117567276233736  1.0000
  H   H539      1.0  0.7686627587388127  0.31337945074966395  0.48691474723559214  1.0000
  H   H540      1.0  0.7681325400240667  0.3306586146018604  0.5149450804141213  1.0000
  H   H541      1.0  0.8105048728393947  0.30121016399262684  0.5065232231722593  1.0000
  H   H542      1.0  0.8253634978775208  0.33269619894059993  0.4599050240396207  1.0000
  H   H543      1.0  0.8675544137905264  0.32165923636488086  0.479565128421274  1.0000
  H   H544      1.0  0.864925267250786  0.365223661530484  0.46807202080991483  1.0000
  N   N25       1.0  0.3441094670255554  0.10825831258960465  0.21754909065979755  1.0000
  C   C481      1.0  0.3236775856115594  0.14118574114217308  0.20992806704918895  1.0000
  C   C482      1.0  0.31209620038169766  0.08674359078162149  0.23019430481687922  1.0000
  C   C483      1.0  0.3814145879614803  0.11683062434086819  0.23236175420845148  1.0000
  C   C484      1.0  0.35940477020206746  0.08836716109910651  0.1977319237676754  1.0000
  H   H545      1.0  0.2949495636351176  0.13586854003998874  0.1989851768376633  1.0000
  H   H546      1.0  0.3470313002956207  0.1578416672989123  0.20017212712203436  1.0000
  H   H547      1.0  0.31286531392371325  0.15739366900023344  0.2244764302989653  1.0000
  H   H548      1.0  0.3266822052664801  0.06175573854516655  0.23621834108156683  1.0000
  H   H549      1.0  0.3000013620796301  0.1010005518535841  0.24527307065231918  1.0000
  H   H550      1.0  0.2835900410514289  0.07949139004088855  0.2195229860235588  1.0000
  H   H551      1.0  0.3966079746575596  0.09278707777069473  0.23923127422061408  1.0000
  H   H552      1.0  0.3715354654091517  0.13329337654913806  0.2469649045082005  1.0000
  H   H553      1.0  0.4069129903746281  0.13181746547045728  0.22308356397510526  1.0000
  H   H554      1.0  0.38365695489527263  0.10383968753060163  0.18781826454191747  1.0000
  H   H555      1.0  0.33206475202856295  0.08113573643116759  0.18625839973380684  1.0000
  H   H556      1.0  0.3752409689959503  0.06349198857311725  0.20284600125165814  1.0000
  N   N26       1.0  0.964899501136971  0.1786755130500786  0.1271646252830861  1.0000
  C   C485      1.0  0.9783387448671711  0.15288683216345852  0.10996512361447054  1.0000
  C   C486      1.0  0.991760090260345  0.17458613446016288  0.14766255251051028  1.0000
  C   C487      1.0  0.9186454224855093  0.17252987149445323  0.13284270274277965  1.0000
  C   C488      1.0  0.9707875463405014  0.2146645272549337  0.11816157582315082  1.0000
  H   H557      1.0  0.9586438708734003  0.15544218818939834  0.09423774078657488  1.0000
  H   H558      1.0  0.9740654824552234  0.12543822084964815  0.1161751666714798  1.0000
  H   H559      1.0  0.013074340663996598  0.1566723739361984  0.10523058048125175  1.0000
  H   H560      1.0  0.9826322965803306  0.19396738229462684  0.16083969325555322  1.0000
  H   H561      1.0  0.9872647959287212  0.14802209019045356  0.15529315181468592  1.0000
  H   H562      1.0  0.02694969682984194  0.1784535125449543  0.14403700488081048  1.0000
  H   H563      1.0  0.9065585980985206  0.19275008782006833  0.14478662413976787  1.0000
  H   H564      1.0  0.9134611798921793  0.1464511136755976  0.14101857472665874  1.0000
  H   H565      1.0  0.8977573671823421  0.17315432596111607  0.11757244313755696  1.0000
  H   H566      1.0  0.958702461799354  0.23486442685617442  0.1301528526218219  1.0000
  H   H567      1.0  0.9527551963159733  0.21807366745882487  0.10208589017489376  1.0000
  H   H568      1.0  0.005563603339058476  0.22080950051428597  0.11466368270056913  1.0000
  N   N27       1.0  0.448811927281808  0.003690296136347637  0.8432094859507395  1.0000
  C   C489      1.0  0.461048778691451  0.9944608490177469  0.8198529028309016  1.0000
  C   C490      1.0  0.4530735954184127  0.04214759209743435  0.8463554586081972  1.0000
  C   C491      1.0  0.47773754369741966  0.9855394277645695  0.8592794580952677  1.0000
  C   C492      1.0  0.40327960240801086  0.9926437934579497  0.8473824669410623  1.0000
  H   H569      1.0  0.45818779740329796  0.9656510449437842  0.8168103616521786  1.0000
  H   H570      1.0  0.4952704462298409  0.002357247260848405  0.8161439099278754  1.0000
  H   H571      1.0  0.4400259534233585  0.0077958961618986855  0.8072317519227034  1.0000
  H   H572      1.0  0.442915847581711  0.05021287556131249  0.863564624465428  1.0000
  H   H573      1.0  0.4873056936095537  0.05126056497658493  0.8440439568566187  1.0000
  H   H574      1.0  0.4327182552326755  0.05671377348318929  0.8340435928802806  1.0000
  H   H575      1.0  0.5123771873743216  0.9934565413337298  0.8568167579432716  1.0000
  H   H576      1.0  0.47568175138943564  0.956465972892654  0.857326186050284  1.0000
  H   H577      1.0  0.46911826040871707  0.9915577669360414  0.8770691972473684  1.0000
  H   H578      1.0  0.393020983340662  0.999179013536637  0.8648856025339311  1.0000
  H   H579      1.0  0.39888723899283673  0.9637519428382662  0.8451577859704026  1.0000
  H   H580      1.0  0.3805129612932031  0.005856689190167241  0.8355698531061462  1.0000
  N   N28       1.0  0.9406118708086013  0.5405902031387538  0.5545009954483336  1.0000
  C   C493      1.0  0.9759083940766937  0.555111585361488  0.5402650875340884  1.0000
  C   C494      1.0  0.95726069396824  0.5109819709259134  0.5680252468968797  1.0000
  C   C495      1.0  0.9047045039711642  0.5279344985275107  0.5399394978051353  1.0000
  C   C496      1.0  0.9244001467274752  0.5682386059125005  0.569717085094562  1.0000
  H   H581      1.0  0.9888766137941539  0.5347515452216716  0.5287015270915786  1.0000
  H   H582      1.0  0.0035273125410000272  0.5652204899896834  0.5506236748851097  1.0000
  H   H583      1.0  0.9641982253639326  0.5771259965564537  0.5295232355326941  1.0000
  H   H584      1.0  0.9847008610438365  0.519346877864667  0.5791146594280461  1.0000
  H   H585      1.0  0.9314270249167659  0.4996183119963061  0.5790629804350453  1.0000
  H   H586      1.0  0.9691377975619682  0.4892966409000041  0.5570784531156362  1.0000
  H   H587      1.0  0.8767997862993581  0.5179446235153717  0.5500914442003079  1.0000
  H   H588      1.0  0.9155271048897579  0.5061335389109655  0.5288902052579147  1.0000
  H   H589      1.0  0.8923816865120715  0.5491966815522843  0.5287906555280789  1.0000
  H   H590      1.0  0.9506620503091425  0.5784461628224267  0.5809641063680248  1.0000
  H   H591      1.0  0.8977526031242811  0.557957691110919  0.5807109198437362  1.0000
  H   H592      1.0  0.9113028850915552  0.5908467349668524  0.5600130809486594  1.0000
  N   N29       1.0  0.764674222773987  0.9475314032168314  0.6320589053677595  1.0000
  C   C497      1.0  0.7248144821333246  0.9301393280013756  0.6407005563662176  1.0000
  C   C498      1.0  0.8029341543639448  0.9334457221138427  0.6439788238703578  1.0000
  C   C499      1.0  0.7620416074343459  0.9858157325337065  0.6360304498872009  1.0000
  C   C500      1.0  0.7689344045631272  0.940731769899392  0.607628440288953  1.0000
  H   H593      1.0  0.6952514020327417  0.9400253671604606  0.6320533322596313  1.0000
  H   H594      1.0  0.7206855575262484  0.9350687360851332  0.6591101637164323  1.0000
  H   H595      1.0  0.7258410972139084  0.9011518748804969  0.6383082967530502  1.0000
  H   H596      1.0  0.8002299611023087  0.9373763964991727  0.6624905052066257  1.0000
  H   H597      1.0  0.8066278948439555  0.9047792700465878  0.6409824027609294  1.0000
  H   H598      1.0  0.8335732394301212  0.9466190548878773  0.6383888204571205  1.0000
  H   H599      1.0  0.7915988877262996  0.9998411924509937  0.6297703026007052  1.0000
  H   H600      1.0  0.7588612172986298  0.9918258590664638  0.6543444422585771  1.0000
  H   H601      1.0  0.7335476238997948  0.9973642052942661  0.6273004199494435  1.0000
  H   H602      1.0  0.7700104465741894  0.9120817429559156  0.6039576145668243  1.0000
  H   H603      1.0  0.7994229546390821  0.9526031753946967  0.6008016079641404  1.0000
  H   H604      1.0  0.7414733368761091  0.9520699106662978  0.5979156238411933  1.0000
  N   N30       1.0  0.8208875595398472  0.31166807579053396  0.2902831678826918  1.0000
  C   C501      1.0  0.827725763704082  0.34940010010816036  0.2953064800554431  1.0000
  C   C502      1.0  0.8329175042985282  0.290532029594955  0.3102266907177988  1.0000
  C   C503      1.0  0.848270197213777  0.30157573859756037  0.2709576913659857  1.0000
  C   C504      1.0  0.7746711909028839  0.3051298899584491  0.28453098191565745  1.0000
  H   H605      1.0  0.8624142861362881  0.3553824253023947  0.29938555700401615  1.0000
  H   H606      1.0  0.8077698826617769  0.35781315008521  0.30993295672834514  1.0000
  H   H607      1.0  0.8187872814401777  0.36613530662008836  0.2806500423269818  1.0000
  H   H608      1.0  0.8116893410114546  0.29629425374202606  0.3249307794517929  1.0000
  H   H609      1.0  0.8297078640315695  0.26188291724604  0.3067501143488873  1.0000
  H   H610      1.0  0.8671624862609986  0.29571170054327384  0.3155051308201001  1.0000
  H   H611      1.0  0.8396741631442264  0.3167335493924585  0.2555464897332796  1.0000
  H   H612      1.0  0.8437105519315519  0.27328609962737227  0.2667495519377601  1.0000
  H   H613      1.0  0.8834537011796985  0.30615515070467464  0.27451283174482144  1.0000
  H   H614      1.0  0.7688518575224365  0.2773137084838355  0.2794513417832664  1.0000
  H   H615      1.0  0.7641453299990401  0.32158139092827465  0.2700269047370953  1.0000
  H   H616      1.0  0.7528898950479094  0.3105625341238236  0.29904571676552116  1.0000
  N   N31       1.0  0.042096057965865796  0.9240826663683339  0.6823812186328396  1.0000
  C   C505      1.0  0.05629980003014845  0.9394831486772587  0.7041041409274928  1.0000
  C   C506      1.0  0.0707705557289331  0.8946359647633673  0.6764140562111054  1.0000
  C   C507      1.0  0.04437034045905941  0.9512602024578126  0.6645860720378476  1.0000
  C   C508      1.0  0.9968738953879792  0.9109244562304241  0.6844337205643837  1.0000
  H   H617      1.0  0.03591146878504148  0.9622622458413121  0.7089441212521703  1.0000
  H   H618      1.0  0.0907995795121328  0.9486718379706897  0.7034820214515526  1.0000
  H   H619      1.0  0.05366293712064962  0.9200167113950148  0.7180457963644634  1.0000
  H   H620      1.0  0.06168260237711087  0.8829765277220027  0.6598564659160183  1.0000
  H   H621      1.0  0.10545139109254653  0.9033605902338313  0.6755174883091323  1.0000
  H   H622      1.0  0.0688708502481088  0.8733303258638099  0.6892375482724933  1.0000
  H   H623      1.0  0.032970145592210454  0.9407890155412771  0.6480354198579666  1.0000
  H   H624      1.0  0.07814329871950254  0.9615531527350644  0.6624476509411221  1.0000
  H   H625      1.0  0.023286341251857134  0.9739637802668049  0.6686435365009069  1.0000
  H   H626      1.0  0.9939070011578387  0.8901975033953455  0.697614389067739  1.0000
  H   H627      1.0  0.9845153522893744  0.8999491444450649  0.6682182161372882  1.0000
  H   H628      1.0  0.9747036349812276  0.9323466826101827  0.6893985397105232  1.0000
  N   N32       1.0  0.9378023537312126  0.48565992788890394  0.9749330785784454  1.0000
  C   C509      1.0  0.9331232320390114  0.5051410179345202  0.9535478094833717  1.0000
  C   C510      1.0  0.9346704598019592  0.510505596892644  0.9940068080822799  1.0000
  C   C511      1.0  0.9805875077370254  0.46843290725721104  0.9755182933956413  1.0000
  C   C512      1.0  0.903032515677439  0.458594265044436  0.9765105046882739  1.0000
  H   H629      1.0  0.9591631233665472  0.525525092026125  0.9517345340314098  1.0000
  H   H630      1.0  0.9014061407365418  0.5188217255483848  0.9525604648292538  1.0000
  H   H631      1.0  0.9350168679187999  0.48716811260084164  0.9387558481866348  1.0000
  H   H632      1.0  0.9028386439994858  0.5241323463479757  0.9940526220522808  1.0000
  H   H633      1.0  0.9382921488768307  0.4968423231940299  0.01047357041604502  1.0000
  H   H634      1.0  0.9605876771380609  0.5312775830754066  0.993036309422868  1.0000
  H   H635      1.0  0.9848798486182295  0.4527083290555695  0.9911494554627771  1.0000
  H   H636      1.0  0.007634465054912942  0.48809386741461286  0.974762090869832  1.0000
  H   H637      1.0  0.9845058128334182  0.45031427802253293  0.9609706283343348  1.0000
  H   H638      1.0  0.9055734061442661  0.44318640952149113  0.9923990716680575  1.0000
  H   H639      1.0  0.9049207851331682  0.4395879647189077  0.962223643184566  1.0000
  H   H640      1.0  0.8702074597759305  0.4705704998204554  0.9759901824167996  1.0000
  N   N33       1.0  0.7306408375508675  0.1949028146308418  0.7261554570161972  1.0000
  C   C513      1.0  0.7248739440989819  0.17712010710541204  0.7481307402827925  1.0000
  C   C514      1.0  0.7019414937096937  0.17804307128000652  0.7092030166421474  1.0000
  C   C515      1.0  0.7763972778482436  0.19198636175835415  0.7189276261076994  1.0000
  C   C516      1.0  0.7193258053587097  0.23239159890595618  0.7283654478536995  1.0000
  H   H641      1.0  0.7337071217582519  0.14886953824160143  0.7471347628824334  1.0000
  H   H642      1.0  0.6905094988099779  0.17837323154463558  0.7539648043152462  1.0000
  H   H643      1.0  0.7454321837880551  0.18951050576915796  0.761436266919928  1.0000
  H   H644      1.0  0.7043532588911613  0.19142472478674022  0.6925758619094367  1.0000
  H   H645      1.0  0.7104824326839344  0.14996597686800106  0.7066291349762176  1.0000
  H   H646      1.0  0.6672711125530153  0.1784602984164647  0.7146059661675319  1.0000
  H   H647      1.0  0.7859699869170389  0.16395056469958114  0.7171971341549095  1.0000
  H   H648      1.0  0.7989334171451652  0.20456165626686262  0.731324340484679  1.0000
  H   H649      1.0  0.7820343243745718  0.2049443020033328  0.7023546884455989  1.0000
  H   H650      1.0  0.7400276114409634  0.24588937253250553  0.7412327585797364  1.0000
  H   H651      1.0  0.6849064769679066  0.23538781524290808  0.7337284001697036  1.0000
  H   H652      1.0  0.7235844824221236  0.24679717591693273  0.7121904939322512  1.0000
  N   N34       1.0  0.37832950702679746  0.3762895844790623  0.11183785581718242  1.0000
  C   C517      1.0  0.34312128455492524  0.3615611573857173  0.09758449238568123  1.0000
  C   C518      1.0  0.41000519005141933  0.34847541029128665  0.11695252483206464  1.0000
  C   C519      1.0  0.3596096575940856  0.3897973419680342  0.1330015377070788  1.0000
  C   C520      1.0  0.400570785562735  0.4053821737398245  0.09981344192234287  1.0000
  H   H653      1.0  0.31847123541675515  0.38176605306029004  0.09355019416097621  1.0000
  H   H654      1.0  0.3257562986817474  0.33953744194073804  0.10618699213478067  1.0000
  H   H655      1.0  0.3559942200971857  0.351353758845641  0.08134769680304643  1.0000
  H   H656      1.0  0.39450224139344614  0.32628641287108046  0.12632968282148127  1.0000
  H   H657      1.0  0.4245097335020628  0.3376959107605762  0.10122992839574518  1.0000
  H   H658      1.0  0.4370466418948906  0.35865789465417625  0.12772070062658325  1.0000
  H   H659      1.0  0.33503503789873856  0.41036235151083905  0.1296579856214326  1.0000
  H   H660      1.0  0.385141921664874  0.4017434046488149  0.1439814451630932  1.0000
  H   H661      1.0  0.34334200549809296  0.36846021646971855  0.14282097166104246  1.0000
  H   H662      1.0  0.4282844158144271  0.41619041329441636  0.10982470048944659  1.0000
  H   H663      1.0  0.3780231322971993  0.42749282677079137  0.09653224707953756  1.0000
  H   H664      1.0  0.4137251956811377  0.39648150068920124  0.0832919612220806  1.0000
  N   N35       1.0  0.029425527166176302  0.7277595777942514  0.09888612461306305  1.0000
  C   C521      1.0  0.9837714049720697  0.7237541699298243  0.09138773423351365  1.0000
  C   C522      1.0  0.05867972389197451  0.721462061472269  0.07958073397576859  1.0000
  C   C523      1.0  0.03831461274958414  0.7021711151999656  0.11704504751528871  1.0000
  C   C524      1.0  0.036803683152917044  0.7637943465959341  0.10751007860273022  1.0000
  H   H665      1.0  0.9606583257663862  0.7287828721774943  0.10541087918403073  1.0000
  H   H666      1.0  0.9768830285227624  0.6968266649126111  0.08487045209958888  1.0000
  H   H667      1.0  0.976024900123582  0.7424864479762777  0.07756509632258934  1.0000
  H   H668      1.0  0.0935036680434802  0.7241874521914433  0.08447361583660551  1.0000
  H   H669      1.0  0.05379421701917231  0.6946813270549423  0.07237703336017143  1.0000
  H   H670      1.0  0.052847093172436965  0.7405703643150628  0.06568223826540853  1.0000
  H   H671      1.0  0.07234985356091372  0.7046425228871014  0.12330641558628085  1.0000
  H   H672      1.0  0.03319397806322555  0.6746368666078206  0.11119403074524145  1.0000
  H   H673      1.0  0.016554062482240228  0.7062067746098692  0.1318273081825208  1.0000
  H   H674      1.0  0.07099897669857747  0.7679362340881833  0.1131596195314522  1.0000
  H   H675      1.0  0.015497603153052708  0.7694059694177492  0.12219489317310715  1.0000
  H   H676      1.0  0.029918622124357253  0.7838262661675852  0.09433983902152487  1.0000
  N   N36       1.0  0.2503712373942352  0.5478867110889335  0.8461684943360491  1.0000
  C   C525      1.0  0.21240899883706213  0.570177167920697  0.8413405469437927  1.0000
  C   C526      1.0  0.28979178233142955  0.5703092793130768  0.8482080698636069  1.0000
  C   C527      1.0  0.25613594148110175  0.5225701990773555  0.8275448956837821  1.0000
  C   C528      1.0  0.24319095579665143  0.5284101839620299  0.8674606087454377  1.0000
  H   H677      1.0  0.1818090418269215  0.5543769733336095  0.840808031146979  1.0000
  H   H678      1.0  0.215840302094887  0.5839488901256218  0.8248483327498944  1.0000
  H   H679      1.0  0.2082927671142682  0.59085997655081  0.8543479786947582  1.0000
  H   H680      1.0  0.31912385712173974  0.5544288379245361  0.8518848813382697  1.0000
  H   H681      1.0  0.29580359913736415  0.5856595113742427  0.8325075996456327  1.0000
  H   H682      1.0  0.28674473451786137  0.5896356414833196  0.862146658186727  1.0000
  H   H683      1.0  0.28487760258989336  0.5056570740206471  0.8303813498814485  1.0000
  H   H684      1.0  0.2606530268433514  0.5362285662718682  0.8110796527401674  1.0000
  H   H685      1.0  0.2272389199987609  0.5049084060274152  0.8257075538672172  1.0000
  H   H686      1.0  0.2714817262515908  0.51170605819024  0.8718050372870362  1.0000
  H   H687      1.0  0.21392051895297393  0.5109154380502497  0.8664802982288806  1.0000
  H   H688      1.0  0.23845266642270235  0.5464957225849728  0.8819145628001352  1.0000
  N   N37       1.0  0.047323337790523334  0.5705486570506072  0.4090012970057389  1.0000
  C   C529      1.0  0.08015767876523894  0.5666401237521727  0.42702890220184453  1.0000
  C   C530      1.0  0.06763822326379731  0.5876227914717087  0.3891886557917674  1.0000
  C   C531      1.0  0.01126580000071864  0.5924721968124926  0.4170769889283088  1.0000
  C   C532      1.0  0.029990880433959255  0.5354862266303603  0.4027884362151254  1.0000
  H   H689      1.0  0.06602518661321977  0.5534954209833282  0.44214050745680505  1.0000
  H   H690      1.0  0.09368707615401563  0.5925620346024035  0.4324201602908575  1.0000
  H   H691      1.0  0.10792452031087342  0.5503301580096335  0.421383636363786  1.0000
  H   H692      1.0  0.044359741485433535  0.5896488339296727  0.37486611084334737  1.0000
  H   H693      1.0  0.0796402483782126  0.6146311429586819  0.3932458977017697  1.0000
  H   H694      1.0  0.0958737682876727  0.5725360243442263  0.3830243925871633  1.0000
  H   H695      1.0  0.9953982923109502  0.5807264284612521  0.43219554725908516  1.0000
  H   H696      1.0  0.9857701457495607  0.5955635421874067  0.4039232186045117  1.0000
  H   H697      1.0  0.02302920960816546  0.6192329365760862  0.42173186257295686  1.0000
  H   H698      1.0  0.012804229564354452  0.5228601660492898  0.4172093437347714  1.0000
  H   H699      1.0  0.056444710580693565  0.5174543316283909  0.39780118914498125  1.0000
  H   H700      1.0  0.006832052187293991  0.5370265951976083  0.38841394226898457  1.0000
  N   N38       1.0  0.8166340046750011  0.13706553568838187  0.9077482132940835  1.0000
  C   C533      1.0  0.7741355578186566  0.1483724644721902  0.916573139357015  1.0000
  C   C534      1.0  0.8511044084837589  0.1614148624977645  0.915833558604001  1.0000
  C   C535      1.0  0.8156038194656764  0.13727137418089597  0.8828210183806368  1.0000
  C   C536      1.0  0.8256549708364681  0.10113154928513768  0.9158316557395827  1.0000
  H   H701      1.0  0.7736375126264141  0.1476070439525745  0.9353041115398322  1.0000
  H   H702      1.0  0.7472856020417586  0.13109039537710943  0.9103216599398517  1.0000
  H   H703      1.0  0.7667719119321466  0.17581270780854275  0.9114005116368495  1.0000
  H   H704      1.0  0.8529373744267932  0.1617973000352162  0.93458917887037  1.0000
  H   H705      1.0  0.8837577198240751  0.15350610486053728  0.9096656407205201  1.0000
  H   H706      1.0  0.8452371671822718  0.18882434288477112  0.9100926958394325  1.0000
  H   H707      1.0  0.8473859359786988  0.1292844761918437  0.8755920110304002  1.0000
  H   H708      1.0  0.8082323265657345  0.16387696044221856  0.8761158921135664  1.0000
  H   H709      1.0  0.7904977197832362  0.11864804249829053  0.8761495308279796  1.0000
  H   H710      1.0  0.8564833217534441  0.09107591649694902  0.9086345786492452  1.0000
  H   H711      1.0  0.7994143024200239  0.08229568443165358  0.9109087926229962  1.0000
  H   H712      1.0  0.8285882732658099  0.10024019419235941  0.9345390658838698  1.0000
  N   N39       1.0  0.7952673971703589  0.8432135608188633  0.45393406266138514  1.0000
  C   C537      1.0  0.7609463254356329  0.8623279664538255  0.46610975076737343  1.0000
  C   C538      1.0  0.7759123095200835  0.8122704048747617  0.44246056896917463  1.0000
  C   C539      1.0  0.8287884746800052  0.8315358563893835  0.4700973107844663  1.0000
  C   C540      1.0  0.8154366049094459  0.8667357602051359  0.43699111745794417  1.0000
  H   H713      1.0  0.7447115901540448  0.8454472442158683  0.4789646785218288  1.0000
  H   H714      1.0  0.7355306571122155  0.8721503086650307  0.4543540561598068  1.0000
  H   H715      1.0  0.774472116262216  0.8858280612289452  0.47493999367099315  1.0000
  H   H716      1.0  0.8010289614412993  0.797242290645746  0.43312420712305105  1.0000
  H   H717      1.0  0.7602953504869193  0.7939401045668981  0.45472400825411063  1.0000
  H   H718      1.0  0.7506445943595537  0.820242258842803  0.4300605066438338  1.0000
  H   H719      1.0  0.814680428379823  0.8143133438691721  0.4834280056861295  1.0000
  H   H720      1.0  0.8448508751442584  0.8542991497257347  0.4787018340513455  1.0000
  H   H721      1.0  0.8547945743771461  0.8164720480613135  0.46150479566138025  1.0000
  H   H722      1.0  0.8401067881902569  0.8528080609691102  0.4267809424192636  1.0000
  H   H723      1.0  0.8318681277362967  0.8896935292892747  0.4451342717526558  1.0000
  H   H724      1.0  0.7907592111750226  0.8774808022949234  0.425164657829745  1.0000
  N   N40       1.0  0.5651556179964957  0.3184676937635257  0.8154851100088965  1.0000
  C   C541      1.0  0.5188762061786658  0.318359889538542  0.8087303113733096  1.0000
  C   C542      1.0  0.5685896765919545  0.32190174843545805  0.8402482639084883  1.0000
  C   C543      1.0  0.5878425237075079  0.34843898358848785  0.8046175418198559  1.0000
  C   C544      1.0  0.585272981996643  0.2852152747169858  0.8082626608042135  1.0000
  H   H725      1.0  0.5153498464412981  0.3164965884562608  0.7900694043196795  1.0000
  H   H726      1.0  0.5024862734292761  0.34290714527103705  0.8140829300519674  1.0000
  H   H727      1.0  0.500878870651649  0.2956594428225182  0.8162441301498838  1.0000
  H   H728      1.0  0.603129106165471  0.32343707693463075  0.8458401368531656  1.0000
  H   H729      1.0  0.5524644703868619  0.3460795060682708  0.846416720393251  1.0000
  H   H730      1.0  0.5532093323717716  0.2990612645018971  0.849038958568344  1.0000
  H   H731      1.0  0.5843650546676791  0.34735736299381176  0.7859674621519472  1.0000
  H   H732      1.0  0.6232876919504836  0.3485596458528346  0.8084737970489855  1.0000
  H   H733      1.0  0.5745122370660962  0.3740697494057596  0.8101732303388144  1.0000
  H   H734      1.0  0.6203556619708916  0.2844000155729618  0.8128769096115326  1.0000
  H   H735      1.0  0.5831424195491924  0.2817432331506717  0.7896664266121348  1.0000
  H   H736      1.0  0.5689439901962472  0.26192361416072213  0.8160176193399844  1.0000
  N   N41       1.0  0.570294123618775  0.1480140819447746  0.3448770117028168  1.0000
  C   C545      1.0  0.5873461489259213  0.14278889200202172  0.3218714591360819  1.0000
  C   C546      1.0  0.6068394097664377  0.15567504845061797  0.3604309092888484  1.0000
  C   C547      1.0  0.546951473773032  0.11582734692247376  0.3522318441306394  1.0000
  C   C548      1.0  0.5398675087068273  0.17779939441435255  0.344940350604666  1.0000
  H   H737      1.0  0.5606715917341175  0.1361093408953269  0.30983875372796166  1.0000
  H   H738      1.0  0.6110535746535527  0.12089343455787316  0.321348314097626  1.0000
  H   H739      1.0  0.6041528816511457  0.16695584564359534  0.3155573329476253  1.0000
  H   H740      1.0  0.5951876498371608  0.16003430515936956  0.3779529631914263  1.0000
  H   H741      1.0  0.6303133586167622  0.13370527391068698  0.36093468792067407  1.0000
  H   H742      1.0  0.6250894360772066  0.17982678041981925  0.35528374437832133  1.0000
  H   H743      1.0  0.5187888324767541  0.10968221766401243  0.3410257255120305  1.0000
  H   H744      1.0  0.5341821960146929  0.11880282033433565  0.36964023852948075  1.0000
  H   H745      1.0  0.5683913698001232  0.09253271818818964  0.35208975727125935  1.0000
  H   H746      1.0  0.5127697368879125  0.17365198481063704  0.33273677569835525  1.0000
  H   H747      1.0  0.5565401416535127  0.2028135493757397  0.3403265528022965  1.0000
  H   H748      1.0  0.5252919197471234  0.18172779852063448  0.3619101748302123  1.0000
  N   N42       1.0  0.1308043024570446  0.350052836673634  0.016174858618900334  1.0000
  C   C549      1.0  0.0898858340282538  0.3499644763558106  0.02919974300601913  1.0000
  C   C550      1.0  0.1343065542271762  0.38296628383327785  0.003010355771718931  1.0000
  C   C551      1.0  0.13090012138997062  0.3195671197516231  0.0007050149151006657  1.0000
  C   C552      1.0  0.16818658748117807  0.34774220362221847  0.03177451389593955  1.0000
  H   H749      1.0  0.08529438816291224  0.3249041732352387  0.03864051367292154  1.0000
  H   H750      1.0  0.06115339633006367  0.3527620193328028  0.017915311766093067  1.0000
  H   H751      1.0  0.08932602627179431  0.37190798019415044  0.041593711921113385  1.0000
  H   H752      1.0  0.1651056706703425  0.3840903857920397  0.9932453252594926  1.0000
  H   H753      1.0  0.10707768045431365  0.38529382531348416  0.9907354252297855  1.0000
  H   H754      1.0  0.1340303450956356  0.40647775941756475  0.014161678466007244  1.0000
  H   H755      1.0  0.1035110711571592  0.3205915020599948  0.9884990513191504  1.0000
  H   H756      1.0  0.12763543498634225  0.2942830915870139  0.010010087891247688  1.0000
  H   H757      1.0  0.16139345155686227  0.31858011851371776  0.9906968581365491  1.0000
  H   H758      1.0  0.16976883932748393  0.37061267108302337  0.043504500978713834  1.0000
  H   H759      1.0  0.19940692731112764  0.34728221875122484  0.02234714008506411  1.0000
  H   H760      1.0  0.16647975564186326  0.32346493645737506  0.042208029896312116  1.0000
  N   N43       1.0  0.2483970951508261  0.8246368552543695  0.6017689385349307  1.0000
  C   C553      1.0  0.2932893636678013  0.8292646201464003  0.6103346968265383  1.0000
  C   C554      1.0  0.2270325579621059  0.8591842733865693  0.6004253605540032  1.0000
  C   C555      1.0  0.2237268988152896  0.8012974349732942  0.6171731600148939  1.0000
  C   C556      1.0  0.24958070921557834  0.8088228461698098  0.5790337328861793  1.0000
  H   H761      1.0  0.2939157512107512  0.8433448887510474  0.6267934381654489  1.0000
  H   H762      1.0  0.31370648683432495  0.8447221479165724  0.5983893192038537  1.0000
  H   H763      1.0  0.30947575664907456  0.8035811514895779  0.6129896545619784  1.0000
  H   H764      1.0  0.24418662536273888  0.8770268121696393  0.5884692472080576  1.0000
  H   H765      1.0  0.19275503919981413  0.8566173569069666  0.5946196045926359  1.0000
  H   H766      1.0  0.22703110269955262  0.872802528025268  0.6170026827618055  1.0000
  H   H767      1.0  0.18977523345925965  0.7969452524857521  0.6112546441755827  1.0000
  H   H768      1.0  0.22217670201740117  0.8125713317120915  0.6344457048629495  1.0000
  H   H769      1.0  0.2394144382368312  0.7751920633053739  0.6188641724238892  1.0000
  H   H770      1.0  0.2667679635117127  0.7832477100980881  0.5791358101972234  1.0000
  H   H771      1.0  0.26675325186679116  0.826489927861305  0.5669017266143346  1.0000
  H   H772      1.0  0.21629867209578207  0.8043015873081999  0.57214360967986  1.0000
  N   N44       1.0  0.6013740403879535  0.05241743611223645  0.9448467730927296  1.0000
  C   C557      1.0  0.6267564261636857  0.08325481147976266  0.9368899311502541  1.0000
  C   C558      1.0  0.6283114774296642  0.03144290678769335  0.9603671458422878  1.0000
  C   C559      1.0  0.5882350066927894  0.0305335503160975  0.9253336672048057  1.0000
  C   C560      1.0  0.5621718664196103  0.06436025894007129  0.9568432289836458  1.0000
  H   H773      1.0  0.656587718377185  0.07503121406193633  0.9277781092931665  1.0000
  H   H774      1.0  0.6370793613703938  0.10049986031260266  0.9511847824379122  1.0000
  H   H775      1.0  0.6072894778411416  0.09963320662765356  0.9251516344120083  1.0000
  H   H776      1.0  0.6577497377554742  0.021326535285412618  0.95178407197657  1.0000
  H   H777      1.0  0.6395059208361032  0.04717390390732814  0.9751335719108196  1.0000
  H   H778      1.0  0.6101337201967068  0.008064888217880428  0.9668757879420401  1.0000
  H   H779      1.0  0.5677911306118206  0.007669016789008776  0.9306728941360957  1.0000
  H   H780      1.0  0.6170272570205796  0.01988058944066884  0.9164033674320082  1.0000
  H   H781      1.0  0.5690672914995901  0.04583321925210803  0.9128670695877941  1.0000
  H   H782      1.0  0.5409122965159844  0.0799941463923039  0.9455679356275901  1.0000
  H   H783      1.0  0.5709545912460148  0.08126521710778387  0.9715233121916494  1.0000
  H   H784      1.0  0.5424860358276667  0.04162086514683527  0.9630873721903885  1.0000
  N   N45       1.0  0.5443232549902924  0.9686465980011467  0.2843351794384467  1.0000
  C   C561      1.0  0.5251180951725783  0.9852804261215447  0.30447138323265993  1.0000
  C   C562      1.0  0.5766901817362486  0.9929158303029075  0.2741750037389767  1.0000
  C   C563      1.0  0.5096173107048019  0.9607602882376388  0.2677483580197214  1.0000
  C   C564      1.0  0.5658095823958924  0.9356097242599981  0.2908943118008525  1.0000
  H   H785      1.0  0.5502326480120584  0.9916478114299621  0.317396946611108  1.0000
  H   H786      1.0  0.5005023758134394  0.9678276479613602  0.31263174542166833  1.0000
  H   H787      1.0  0.5089332115390949  0.010410847547160262  0.30014237243443276  1.0000
  H   H788      1.0  0.5919839386748664  0.9811381382599152  0.2590071947741503  1.0000
  H   H789      1.0  0.5615602545884499  0.018108457382125964  0.2690334120561537  1.0000
  H   H790      1.0  0.6033262809629406  0.999409105551478  0.28625634560768976  1.0000
  H   H791      1.0  0.4926383347582557  0.984986338471805  0.26244616614694405  1.0000
  H   H792      1.0  0.48468259072930087  0.9424173696263781  0.27480255265281506  1.0000
  H   H793      1.0  0.5228921662860664  0.9485065069566261  0.25224456429889314  1.0000
  H   H794      1.0  0.5425325941995015  0.9167730145633743  0.2988572595372587  1.0000
  H   H795      1.0  0.5927117133905345  0.9404872543905033  0.30306475247833115  1.0000
  H   H796      1.0  0.5804262025252812  0.9223007655860593  0.2760687229559592  1.0000
  N   N46       1.0  0.9845043138308572  0.7278728634918467  0.3085397443743398  1.0000
  C   C565      1.0  0.9712624357391496  0.697741244568898  0.32282176361183584  1.0000
  C   C566      1.0  0.0033762850852081527  0.7560122471391721  0.32285282099216356  1.0000
  C   C567      1.0  0.9461630479459542  0.7414233829296513  0.2963861781255864  1.0000
  C   C568      1.0  0.017345293962459207  0.7162120704416673  0.2920918697694534  1.0000
  H   H797      1.0  0.9465095387277704  0.7054703307194319  0.3354888335085085  1.0000
  H   H798      1.0  0.9995581496567894  0.6868608927579537  0.33215874240430376  1.0000
  H   H799      1.0  0.9570322733593128  0.6759332000691661  0.31250795088048683  1.0000
  H   H800      1.0  0.032696724134594124  0.7467654324431842  0.3320655552982543  1.0000
  H   H801      1.0  0.013381110728044376  0.779262599304428  0.31261298652530967  1.0000
  H   H802      1.0  0.9797079222486992  0.7650803500719047  0.33572907564837523  1.0000
  H   H803      1.0  0.9305164936374153  0.7206508968675458  0.2858256549413492  1.0000
  H   H804      1.0  0.9551256911253431  0.7635893479733241  0.2849317738406602  1.0000
  H   H805      1.0  0.9210759067017291  0.7512102329388054  0.30824459268992593  1.0000
  H   H806      1.0  0.02751489634497628  0.7380702774771777  0.28069413894047196  1.0000
  H   H807      1.0  0.00431627501476628  0.6944767346828766  0.28136094484713675  1.0000
  H   H808      1.0  0.04691779055783951  0.7063662316372663  0.3008119435852704  1.0000
  N   N47       1.0  0.33182207649451306  0.5918431190263428  0.18569481553849412  1.0000
  C   C569      1.0  0.365058345732083  0.5670256194825843  0.17770218628715198  1.0000
  C   C570      1.0  0.33415844050781  0.5943587202426677  0.2104929685297178  1.0000
  C   C571      1.0  0.2880763453376112  0.5790781081441767  0.17900417404778557  1.0000
  C   C572      1.0  0.3400347849028083  0.6269136729625827  0.17571580672055986  1.0000
  H   H809      1.0  0.3985450911468426  0.5763707331603333  0.18188879861169532  1.0000
  H   H810      1.0  0.3631358533081682  0.5632135307205938  0.15910633919815717  1.0000
  H   H811      1.0  0.3606319637373262  0.540617946959908  0.18554252892493198  1.0000
  H   H812      1.0  0.367131049138334  0.6030458218391108  0.21610904032901052  1.0000
  H   H813      1.0  0.3103545346907285  0.6135429301959994  0.2171513338912066  1.0000
  H   H814      1.0  0.32695471828614625  0.5685245131143729  0.21857035935378522  1.0000
  H   H815      1.0  0.28059331910718355  0.5528563781819203  0.18652669898877172  1.0000
  H   H816      1.0  0.28542695594184464  0.57590836000504  0.16038363158077415  1.0000
  H   H817      1.0  0.2623478702260465  0.5975296838558947  0.1845272096653401  1.0000
  H   H818      1.0  0.33884950553672644  0.62588658963832  0.1569752384473987  1.0000
  H   H819      1.0  0.3725181037260425  0.637593686130061  0.18072785414449496  1.0000
  H   H820      1.0  0.3153710637475885  0.6462370094282555  0.1813635117219502  1.0000
  N   N48       1.0  0.7691449969583254  0.030284079690297894  0.7837622547418325  1.0000
  C   C573      1.0  0.7879278278644428  0.02941752055241076  0.8067295764653768  1.0000
  C   C574      1.0  0.7683083852706564  0.9944347044674314  0.7741106298622681  1.0000
  C   C575      1.0  0.7960965419661497  0.053501097226229755  0.7693848013453741  1.0000
  C   C576      1.0  0.7244146596817083  0.04391851298215821  0.784745709379332  1.0000
  H   H821      1.0  0.7678288171422178  0.013008290300163594  0.818378727182582  1.0000
  H   H822      1.0  0.7903979687373613  0.05628881088535609  0.8141576102594973  1.0000
  H   H823      1.0  0.8213891315922484  0.018575334563345702  0.8066378957515573  1.0000
  H   H824      1.0  0.7544002692715293  0.9942907978400796  0.7567430245910658  1.0000
  H   H825      1.0  0.8016301015040085  0.9834524741469131  0.7728942422542056  1.0000
  H   H826      1.0  0.7482972622671824  0.9760930292566888  0.7845257261910629  1.0000
  H   H827      1.0  0.7831932450952178  0.05495411724336274  0.7519220349409618  1.0000
  H   H828      1.0  0.8299331181192678  0.04374537449836935  0.7681839193731747  1.0000
  H   H829      1.0  0.7977042253103774  0.08081131870912084  0.7761389360293635  1.0000
  H   H830      1.0  0.7239390864430049  0.07108784744213192  0.7916913045447767  1.0000
  H   H831      1.0  0.7031208959581712  0.027000311041412983  0.7954695795878816  1.0000
  H   H832      1.0  0.7093717655465017  0.044884799710171785  0.7677064944673484  1.0000
  N   N49       1.0  0.17789182934830197  0.7768243922193468  0.782963474127298  1.0000
  C   C577      1.0  0.14572150242990864  0.7515461232807757  0.7737089705222743  1.0000
  C   C578      1.0  0.19331161288191848  0.8004711109046843  0.7648002803834483  1.0000
  C   C579      1.0  0.21491773119481367  0.7573393721098443  0.7924960292577737  1.0000
  C   C580      1.0  0.15730258271645223  0.7978720317511999  0.8008636004483685  1.0000
  H   H833      1.0  0.11623814989542125  0.7651354890491826  0.7675766391012289  1.0000
  H   H834      1.0  0.13526670177041886  0.7320787528352002  0.7866238158883972  1.0000
  H   H835      1.0  0.15917712400426215  0.7365102334710341  0.7592358431576596  1.0000
  H   H836      1.0  0.2062999983757138  0.785460723102093  0.7502671269954705  1.0000
  H   H837      1.0  0.16645390525322262  0.8167832421638405  0.7581480970889463  1.0000
  H   H838      1.0  0.21937893593253113  0.8187625840120383  0.7707580280145298  1.0000
  H   H839      1.0  0.20437844142611333  0.7398784243673748  0.8065596001343865  1.0000
  H   H840      1.0  0.2406042728890003  0.7754004215825824  0.799105595033153  1.0000
  H   H841      1.0  0.2299519496828872  0.7400762183860125  0.7796444033850896  1.0000
  H   H842      1.0  0.12918115802708133  0.8128748644527167  0.7941826347237215  1.0000
  H   H843      1.0  0.18072919150936523  0.8170887577626555  0.8083566459250956  1.0000
  H   H844      1.0  0.14470535941734297  0.7808348574519722  0.814683658318363  1.0000
  N   N50       1.0  0.8835019967144856  0.8921005093737597  0.18086443592480803  1.0000
  C   C581      1.0  0.9085017745825973  0.9184032762223919  0.16769266192735297  1.0000
  C   C582      1.0  0.8553431789859673  0.8712471550618323  0.16555161611541308  1.0000
  C   C583      1.0  0.856502326149348  0.9101860462421604  0.19777791692723098  1.0000
  C   C584      1.0  0.9139534198621914  0.8684203396781898  0.19244344173675756  1.0000
  H   H845      1.0  0.9304937630669142  0.9342692051222142  0.17875220727581592  1.0000
  H   H846      1.0  0.886639186078007  0.9368751257424944  0.15874668496555977  1.0000
  H   H847      1.0  0.9293029872019085  0.9055420380288312  0.15479360242488124  1.0000
  H   H848      1.0  0.8363636159677743  0.8509194263673787  0.17497785395847426  1.0000
  H   H849      1.0  0.831761939249662  0.8881977313569928  0.15652354181979053  1.0000
  H   H850      1.0  0.8749451189433072  0.8573433799688368  0.15259025198888407  1.0000
  H   H851      1.0  0.8378770372127591  0.8910404432321863  0.20832926717128247  1.0000
  H   H852      1.0  0.8326745464446733  0.9280176111812108  0.18968880520922382  1.0000
  H   H853      1.0  0.8768530208192169  0.9264195352209773  0.2094566005640469  1.0000
  H   H854      1.0  0.8964435459760617  0.8481379838721057  0.20262994922018865  1.0000
  H   H855      1.0  0.9359497942947472  0.8832593508727289  0.20401676461716944  1.0000
  H   H856      1.0  0.9347774488574185  0.854400052276849  0.1801666796896805  1.0000
  N   N51       1.0  0.600718625558481  0.16202448547977683  0.8530905168558448  1.0000
  C   C585      1.0  0.5715821511970717  0.18965163366556356  0.8614988456847243  1.0000
  C   C586      1.0  0.628376712319153  0.176502302710002  0.8348539855286978  1.0000
  C   C587      1.0  0.5739993543318676  0.1324323322945081  0.8444579004629014  1.0000
  C   C588      1.0  0.6287315615328297  0.14944967135272566  0.8716023306171223  1.0000
  H   H857      1.0  0.5903429057322974  0.21221289232238408  0.8685028212282101  1.0000
  H   H858      1.0  0.549944455288625  0.17951677036486605  0.8751207763889606  1.0000
  H   H859      1.0  0.5504064654840182  0.19986955975078124  0.8477845495597175  1.0000
  H   H860      1.0  0.648643522910444  0.1990797089317599  0.8408734082904248  1.0000
  H   H861      1.0  0.6508843142081668  0.15637649648191423  0.8281400607901382  1.0000
  H   H862      1.0  0.6085461093089147  0.18611293683360755  0.8204541813915348  1.0000
  H   H863      1.0  0.5530404385677729  0.14082447477567742  0.8301831546132589  1.0000
  H   H864      1.0  0.5521574406243726  0.1214615908310667  0.8577030210336785  1.0000
  H   H865      1.0  0.5945686987434942  0.11050485961092889  0.838644528236312  1.0000
  H   H866      1.0  0.6515262862632192  0.12893689389245755  0.8656065275109275  1.0000
  H   H867      1.0  0.6089338964710722  0.13749589701633902  0.8853500086614499  1.0000
  H   H868      1.0  0.6485311384178303  0.1713805913765832  0.8789461149562128  1.0000
  N   N52       1.0  0.6156072408207021  0.07132650211629699  0.19702287670582977  1.0000
  C   C589      1.0  0.6421601323736552  0.05410327859314612  0.1795955755597402  1.0000
  C   C590      1.0  0.5947750298733477  0.044302757196932996  0.21144811804185507  1.0000
  C   C591      1.0  0.5818130677115455  0.09252831598305056  0.1859249135436023  1.0000
  C   C592      1.0  0.6436690045983507  0.09435792619632144  0.21106064213738487  1.0000
  H   H869      1.0  0.6597690890410459  0.07374622477120263  0.16898392795697698  1.0000
  H   H870      1.0  0.6216371467702535  0.037464516551332316  0.16823759153793189  1.0000
  H   H871      1.0  0.6672214786751945  0.03698001245658156  0.1873125548012411  1.0000
  H   H872      1.0  0.6193298806268731  0.02654086581594517  0.21900696554570584  1.0000
  H   H873      1.0  0.5766895990028963  0.05647847747967649  0.22557039864395834  1.0000
  H   H874      1.0  0.5715696645783035  0.02755359780471589  0.20162909327590098  1.0000
  H   H875      1.0  0.5614154691773693  0.10624578045216126  0.1985062817226775  1.0000
  H   H876      1.0  0.5599333460184719  0.0758915629200092  0.17527147337317414  1.0000
  H   H877      1.0  0.596582957086646  0.11318347004913609  0.1749286511535466  1.0000
  H   H878      1.0  0.6243548815825342  0.10925107772587528  0.22361965091366076  1.0000
  H   H879      1.0  0.6616605921122096  0.11398666618257836  0.20057864911665882  1.0000
  H   H880      1.0  0.6682237452964278  0.07891986953485186  0.22043428804791154  1.0000
  N   N53       1.0  0.21107491521069832  0.7008923874419838  0.48339738491576495  1.0000
  C   C593      1.0  0.18642692264423721  0.6693682347273198  0.4908543874530496  1.0000
  C   C594      1.0  0.25594986192386115  0.6908753765081396  0.4775904592010897  1.0000
  C   C595      1.0  0.21240338105600554  0.7271552067642266  0.5017692236162099  1.0000
  C   C596      1.0  0.18959076785643658  0.7161121405502648  0.46340655965230143  1.0000
  H   H881      1.0  0.15229922866458923  0.675918658725923  0.4953266136750397  1.0000
  H   H882      1.0  0.20177481846730072  0.6569860067923077  0.5058395300142055  1.0000
  H   H883      1.0  0.1845651289389083  0.6491253821615313  0.4772893457759443  1.0000
  H   H884      1.0  0.2756639232432563  0.7139969401411462  0.47198709184820226  1.0000
  H   H885      1.0  0.2730190982588665  0.6794563987540703  0.49241323518973834  1.0000
  H   H886      1.0  0.25663223289656467  0.6709051307635163  0.46387469849024265  1.0000
  H   H887      1.0  0.2303581726015489  0.7514507772296367  0.4965981271096874  1.0000
  H   H888      1.0  0.2291894958772993  0.7167619328168413  0.5169795805588854  1.0000
  H   H889      1.0  0.17914040490707683  0.7351062350686598  0.5068491505812064  1.0000
  H   H890      1.0  0.20691681207862667  0.7402190534274812  0.45741995586278866  1.0000
  H   H891      1.0  0.1553963047346174  0.7234164354785771  0.46718422075161276  1.0000
  H   H892      1.0  0.18826121410914065  0.6969563578356079  0.4492280910483386  1.0000
  N   N54       1.0  0.30854016593688893  0.8025576043596746  0.398254510181497  1.0000
  C   C597      1.0  0.2657553573747648  0.7865880468817822  0.4036595547190217  1.0000
  C   C598      1.0  0.31664269760101565  0.7995332301306116  0.3737621652193325  1.0000
  C   C599      1.0  0.34299338745319086  0.7841142081748887  0.4108409119338143  1.0000
  C   C600      1.0  0.3087463205570646  0.8400732350686687  0.40479815321076235  1.0000
  H   H893      1.0  0.23899530595285137  0.7999857294595444  0.3944826386792275  1.0000
  H   H894      1.0  0.25842877243607315  0.7886059846075093  0.4219826818485929  1.0000
  H   H895      1.0  0.2642927056448477  0.7582952205229134  0.39894684209887354  1.0000
  H   H896      1.0  0.34876736672120123  0.8111918123877695  0.36908763678370193  1.0000
  H   H897      1.0  0.3163870217328053  0.7715940042488931  0.3681331144507995  1.0000
  H   H898      1.0  0.2913370258887304  0.8132867163804439  0.3637406075292593  1.0000
  H   H899      1.0  0.375663529432748  0.7959907102778006  0.4074885377338817  1.0000
  H   H900      1.0  0.3442541198819056  0.7557901634675456  0.4062593604636839  1.0000
  H   H901      1.0  0.33784205336136963  0.7858735525154065  0.4293939848582969  1.0000
  H   H902      1.0  0.34052387941952766  0.8530720566147918  0.4008836802707099  1.0000
  H   H903      1.0  0.3036209658209707  0.8432483561390957  0.42326880439398057  1.0000
  H   H904      1.0  0.2827643252502692  0.8548435880925851  0.3959642875750347  1.0000
  N   N55       1.0  0.6120526077350285  0.1574671995122079  0.4883450529240584  1.0000
  C   C601      1.0  0.648203201411966  0.1407385074839931  0.5005975441223124  1.0000
  C   C602      1.0  0.570536231819403  0.14030781078213234  0.4948061880937419  1.0000
  C   C603      1.0  0.6186332875150647  0.15353203907658192  0.46378861545248595  1.0000
  C   C604      1.0  0.6107997394772509  0.19521461012697122  0.49423067113980035  1.0000
  H   H905      1.0  0.6501327136506374  0.11220989683779524  0.49655318617824246  1.0000
  H   H906      1.0  0.6439557528042706  0.1430250160978646  0.519169438133046  1.0000
  H   H907      1.0  0.6799932736472583  0.15317633496548688  0.4961999310522579  1.0000
  H   H908      1.0  0.5427190693697885  0.15183209765910813  0.4855258531745629  1.0000
  H   H909      1.0  0.570650210811113  0.11164414292625506  0.4909582948767371  1.0000
  H   H910      1.0  0.56380944385689  0.14342685684472808  0.5131123806174276  1.0000
  H   H911      1.0  0.5919238350491562  0.16596481904563815  0.45403643063074434  1.0000
  H   H912      1.0  0.6192848008117589  0.12534774696126233  0.45877766830074  1.0000
  H   H913      1.0  0.6496320775458204  0.16613731174907054  0.4582046189375155  1.0000
  H   H914      1.0  0.5843738070400164  0.20877072411270528  0.48505534112782156  1.0000
  H   H915      1.0  0.6417893446718372  0.20899576392077512  0.4898853848154588  1.0000
  H   H916      1.0  0.6046573960620727  0.19924913073128583  0.5125335390645575  1.0000
  N   N56       1.0  0.2843238557068831  0.8432281334498152  0.226128451149806  1.0000
  C   C605      1.0  0.27181854432680347  0.877970772187065  0.2172038690975161  1.0000
  C   C606      1.0  0.3310354641154619  0.8439305979384403  0.23208715989561685  1.0000
  C   C607      1.0  0.27608691748997455  0.8161043291235799  0.20873977609111205  1.0000
  C   C608      1.0  0.2582561450847056  0.834993043200918  0.24640656845871398  1.0000
  H   H917      1.0  0.23666419593479815  0.8783741303918573  0.21262209574532812  1.0000
  H   H918      1.0  0.29079990931442545  0.8848662604123367  0.2017948085928883  1.0000
  H   H919      1.0  0.27785217820585484  0.8991870772408768  0.22979486823748937  1.0000
  H   H920      1.0  0.34219472368661685  0.8177867818393467  0.23807887574515982  1.0000
  H   H921      1.0  0.3514760089889148  0.8513218782376905  0.2173387247778221  1.0000
  H   H922      1.0  0.3382355598295618  0.8633515102085124  0.24564557910941884  1.0000
  H   H923      1.0  0.24099217279569077  0.8146375580881904  0.20408827339376792  1.0000
  H   H924      1.0  0.28556510805592983  0.7895215949229004  0.2147352153709884  1.0000
  H   H925      1.0  0.29481833952300474  0.8218214298439123  0.19309019165729738  1.0000
  H   H926      1.0  0.26378837747767003  0.8547534150778809  0.2599619437833856  1.0000
  H   H927      1.0  0.2665262924604529  0.8087613170678225  0.25342813939134834  1.0000
  H   H928      1.0  0.22279040732910488  0.8345518243796143  0.24250517272405858  1.0000
  N   N57       1.0  0.3210053377033952  0.46400825586440403  0.30150516026697766  1.0000
  C   C609      1.0  0.34206946192642074  0.4413218711532694  0.28464745187392515  1.0000
  C   C610      1.0  0.28028424598680723  0.4469865848705757  0.3093424994528347  1.0000
  C   C611      1.0  0.31083928975803454  0.4982436142310077  0.2911030922977255  1.0000
  C   C612      1.0  0.35091932798590514  0.4694739846563204  0.32076667236448375  1.0000
  H   H929      1.0  0.3488182286409288  0.4147848320985241  0.29159367606998615  1.0000
  H   H930      1.0  0.3734154923394869  0.4529703260252118  0.27880585022827825  1.0000
  H   H931      1.0  0.3210776106854517  0.4376398094121512  0.2695616768703099  1.0000
  H   H932      1.0  0.2573272599412925  0.4422108159062526  0.295073873754718  1.0000
  H   H933      1.0  0.28660262134866066  0.42115617232275315  0.3174164132770979  1.0000
  H   H934      1.0  0.2632972737338194  0.46362406117242466  0.32192836661138013  1.0000
  H   H935      1.0  0.29505658306773613  0.5161448374010651  0.3033515905484731  1.0000
  H   H936      1.0  0.2884856672336555  0.49500859565283767  0.2764435567571145  1.0000
  H   H937      1.0  0.3407880300701835  0.5118109413731552  0.2850988058142358  1.0000
  H   H938      1.0  0.38168744846488944  0.4827088438236717  0.31538772873223336  1.0000
  H   H939      1.0  0.35946421458031286  0.44416211088622015  0.32894643337135976  1.0000
  H   H940      1.0  0.3362216037422845  0.486357766947667  0.3339193717979496  1.0000
  N   N58       1.0  0.06736619788815391  0.8918651782276106  0.4622430991133998  1.0000
  C   C613      1.0  0.11204682094484798  0.9061923680654792  0.4599988759601868  1.0000
  C   C614      1.0  0.06315797032239101  0.873495485838994  0.4841086662892395  1.0000
  C   C615      1.0  0.05839109906367402  0.8668192898873273  0.4436901554324487  1.0000
  C   C616      1.0  0.035948813193136704  0.9209600362474502  0.46121634675773077  1.0000
  H   H941      1.0  0.11669347533923724  0.9198409097160233  0.44356716345234865  1.0000
  H   H942      1.0  0.13658710861276982  0.8849836887217114  0.4609782871734993  1.0000
  H   H943      1.0  0.11975268411450177  0.9253936724988867  0.4736447860190701  1.0000
  H   H944      1.0  0.03020058933280279  0.8616563790805326  0.4862118990230618  1.0000
  H   H945      1.0  0.08694411595305308  0.8518574867098229  0.4856631992911084  1.0000
  H   H946      1.0  0.06855594303115398  0.8917747530938757  0.4985254439667079  1.0000
  H   H947      1.0  0.025012449508705847  0.8553690364580396  0.44490995483780743  1.0000
  H   H948      1.0  0.08143710812088913  0.8445335685153289  0.4439173280986923  1.0000
  H   H949      1.0  0.06133696661401445  0.8796970794070172  0.4269146800644214  1.0000
  H   H950      1.0  0.001873941327153795  0.9110394071564782  0.4624721195433172  1.0000
  H   H951      1.0  0.03871410520798647  0.9358694561943269  0.44513521850880705  1.0000
  H   H952      1.0  0.04094203001929109  0.9399299807833922  0.4753154151198781  1.0000
  N   N59       1.0  0.440121246490964  0.16657226948857523  0.7112578722015804  1.0000
  C   C617      1.0  0.47772343720356863  0.14807022570802256  0.7015746260651302  1.0000
  C   C618      1.0  0.3997351520256118  0.14678643317040965  0.7058895751853136  1.0000
  C   C619      1.0  0.4379637683046813  0.20235176032840585  0.7015998686322544  1.0000
  C   C620      1.0  0.4451774347901498  0.16902317413559753  0.7359940321098459  1.0000
  H   H953      1.0  0.4800432863876266  0.1207898224517783  0.7083130704014748  1.0000
  H   H954      1.0  0.5088549486705206  0.1620466304815906  0.7055402122992377  1.0000
  H   H955      1.0  0.47515914940483284  0.14599415159990436  0.6829140343972847  1.0000
  H   H956      1.0  0.37064299085087143  0.15985841448471544  0.7129949875319301  1.0000
  H   H957      1.0  0.3949094888802568  0.14421229668647081  0.6873652598542946  1.0000
  H   H958      1.0  0.4005605405990989  0.11962682059308558  0.7129878727458043  1.0000
  H   H959      1.0  0.4103761292859038  0.21736788807931506  0.7087229043529667  1.0000
  H   H960      1.0  0.4339557571062162  0.20161041025350873  0.6829592299910487  1.0000
  H   H961      1.0  0.4682431858528802  0.21774642236715117  0.7051892839338275  1.0000
  H   H962      1.0  0.4176405373525915  0.18314487204312263  0.7438691811433369  1.0000
  H   H963      1.0  0.47557266175894847  0.18341288352454424  0.7406526407476578  1.0000
  H   H964      1.0  0.446586592536945  0.14247000249417968  0.7438705653116353  1.0000
  N   N60       1.0  0.04593660272766221  0.6414770163835933  0.7068970028805376  1.0000
  C   C621      1.0  0.09003799917785328  0.6564548865741038  0.7104188812842138  1.0000
  C   C622      1.0  0.04279134094819592  0.606443254338468  0.7175952368418623  1.0000
  C   C623      1.0  0.03711641419934698  0.638431840367045  0.6824873102242817  1.0000
  C   C624      1.0  0.013506785986861392  0.6647504089115969  0.7171705757591876  1.0000
  H   H965      1.0  0.09366738237883211  0.6826999264850298  0.7022860256840361  1.0000
  H   H966      1.0  0.11542420969316193  0.6392634876384413  0.7031194784084285  1.0000
  H   H967      1.0  0.09743129204353962  0.6600834025417759  0.7286666911244694  1.0000
  H   H968      1.0  0.009822511626585095  0.594532333837599  0.7152588258412459  1.0000
  H   H969      1.0  0.06689365674341818  0.5880870853013619  0.7103587009946243  1.0000
  H   H970      1.0  0.048910810894414736  0.6081670096770034  0.7360919372729344  1.0000
  H   H971      1.0  0.004774921704295388  0.6259759607640495  0.6792193633617022  1.0000
  H   H972      1.0  0.06204779450112886  0.6222309310470319  0.6739991167392988  1.0000
  H   H973      1.0  0.03766436552995756  0.6646958998687198  0.6742099559234129  1.0000
  H   H974      1.0  0.9797617275147573  0.6547492392498957  0.7143938126521103  1.0000
  H   H975      1.0  0.015756235859861745  0.6918814848804162  0.7101722993692552  1.0000
  H   H976      1.0  0.018482341886342905  0.6666000130065707  0.7356740467769678  1.0000
  N   N61       1.0  0.6025546675464521  0.42196698151193895  0.4434809786510045  1.0000
  C   C625      1.0  0.6479163219239581  0.42787359839699757  0.4360374905394825  1.0000
  C   C626      1.0  0.6008516148765904  0.42292613304449644  0.46835902432125814  1.0000
  C   C627      1.0  0.587085035039595  0.38723788323220104  0.4353819904424175  1.0000
  C   C628      1.0  0.5743600009964579  0.4497187397881765  0.4342387103019129  1.0000
  H   H977      1.0  0.6697574422979973  0.40706572265650026  0.4427064664878538  1.0000
  H   H978      1.0  0.6609301776100569  0.4536431063233306  0.4420658805941493  1.0000
  H   H979      1.0  0.6505590618957413  0.4274776257597012  0.417335434566213  1.0000
  H   H980      1.0  0.6223964564650167  0.4028481324849994  0.47594632166977313  1.0000
  H   H981      1.0  0.6111965956982967  0.449000408533179  0.4751179006082062  1.0000
  H   H982      1.0  0.5673899355831638  0.41763126523070176  0.4746200375357547  1.0000
  H   H983      1.0  0.6071969485642841  0.36559249788213694  0.442375989209832  1.0000
  H   H984      1.0  0.5886032441447074  0.3853596480910218  0.4166887185931749  1.0000
  H   H985      1.0  0.5527301254255165  0.3820804210847302  0.4404250025760347  1.0000
  H   H986      1.0  0.5743152494784515  0.44958958254232656  0.41548111388427744  1.0000
  H   H987      1.0  0.5851593402526506  0.47631575054148273  0.43992313867525124  1.0000
  H   H988      1.0  0.540004198900613  0.4460843982606678  0.43984906894770376  1.0000
  N   N62       1.0  0.31644918704495023  0.4256937915706226  0.4804892579507857  1.0000
  C   C629      1.0  0.35728798368327913  0.4318695636104459  0.49313955841650314  1.0000
  C   C630      1.0  0.28365509279931805  0.45147979825916007  0.48764413778925636  1.0000
  C   C631      1.0  0.30011364010198266  0.3896711749735487  0.4849779604381234  1.0000
  C   C632      1.0  0.32476901767096966  0.4298218479396778  0.4561109527320718  1.0000
  H   H989      1.0  0.38308755801089145  0.4133205137424476  0.4878365009863994  1.0000
  H   H990      1.0  0.35254736028777156  0.42848958428384104  0.511600746229336  1.0000
  H   H991      1.0  0.37016508164261214  0.4590005598104707  0.49033731354021076  1.0000
  H   H992      1.0  0.27645832997679926  0.44934856180782357  0.5059594791765308  1.0000
  H   H993      1.0  0.29487579403698005  0.47896977394829926  0.48431706642559014  1.0000
  H   H994      1.0  0.25240864661082013  0.4477616358258095  0.4783467652918519  1.0000
  H   H995      1.0  0.29338028075159495  0.3856207990702454  0.5032306267425851  1.0000
  H   H996      1.0  0.324228247744985  0.3696243965952573  0.4797644205318867  1.0000
  H   H997      1.0  0.26937733097997546  0.38414457271481245  0.47559734904258505  1.0000
  H   H998      1.0  0.33774931418266574  0.45654603511616587  0.4521942975979886  1.0000
  H   H999      1.0  0.294566638025176  0.42594135382107645  0.4460049715044611  1.0000
  H   H1000     1.0  0.3491576541561727  0.4106728408677327  0.449961979206452  1.0000
  N   N63       1.0  0.4108265443630724  0.44908593672656116  0.653783128014604  1.0000
  C   C633      1.0  0.4466559413094013  0.4726411801822814  0.6611818954438147  1.0000
  C   C634      1.0  0.42903078526255445  0.4188195408950931  0.6414989176899704  1.0000
  C   C635      1.0  0.3813497231866495  0.4685928163543181  0.6387182512048488  1.0000
  C   C636      1.0  0.3862895879569437  0.4364672548617318  0.6736923357334205  1.0000
  H   H1001     1.0  0.46801062503942825  0.4594897128686305  0.6737194924989929  1.0000
  H   H1002     1.0  0.43412325211147895  0.49691487555773045  0.6691176113354242  1.0000
  H   H1003     1.0  0.4677489571466899  0.48073498080405885  0.6468004390028945  1.0000
  H   H1004     1.0  0.44791259873289846  0.4274596320216608  0.6264254438254008  1.0000
  H   H1005     1.0  0.45197801249485486  0.40388665634874926  0.6522324752682724  1.0000
  H   H1006     1.0  0.4031333354311561  0.40019235309074525  0.6357789825604411  1.0000
  H   H1007     1.0  0.35401362395866615  0.4515538008685618  0.6327232043832393  1.0000
  H   H1008     1.0  0.39892402832120166  0.4787778713579871  0.6236292302148908  1.0000
  H   H1009     1.0  0.3668809497991058  0.4915288130767095  0.6475405099547595  1.0000
  H   H1010     1.0  0.35971139343502695  0.41784450501563325  0.6688690676282549  1.0000
  H   H1011     1.0  0.37121444509386403  0.4586373682584277  0.6829891274781028  1.0000
  H   H1012     1.0  0.4077060124485361  0.42264129979241905  0.6858886724694306  1.0000
  N   N64       1.0  0.8704575231913074  0.8871653857976993  0.0012483689761588757  1.0000
  C   C637      1.0  0.8559382932013587  0.8704574242862372  0.9799925806859676  1.0000
  C   C638      1.0  0.9183772337370176  0.8905042637626165  0.0013393979280402757  1.0000
  C   C639      1.0  0.8563515736412151  0.8652704620415136  0.020561262908018962  1.0000
  C   C640      1.0  0.8512728014990993  0.922508379632517  0.002993295035086385  1.0000
  H   H1013     1.0  0.8199648379218702  0.8670154229339522  0.979426647057743  1.0000
  H   H1014     1.0  0.8706447222426699  0.8441333418471425  0.977677880010635  1.0000
  H   H1015     1.0  0.865312652287391  0.8867090591651025  0.965153671335832  1.0000
  H   H1016     1.0  0.9305464811071003  0.9032454416793596  0.01703752108474066  1.0000
  H   H1017     1.0  0.9340042592614554  0.8643642281035846  4.95962121411786e-05  1.0000
  H   H1018     1.0  0.9302424376571846  0.906604655989456  0.9868619299941945  1.0000
  H   H1019     1.0  0.8671342642821867  0.8768721354821711  0.03689256395889484  1.0000
  H   H1020     1.0  0.8701853154912647  0.8383498251539472  0.01964950653914954  1.0000
  H   H1021     1.0  0.8203270212524414  0.8622863642941386  0.021090246366814114  1.0000
  H   H1022     1.0  0.8150977552198438  0.9212558827075487  0.002608683611351248  1.0000
  H   H1023     1.0  0.861752633229873  0.939629155360965  0.9886996236755647  1.0000
  H   H1024     1.0  0.8613348497307017  0.9361142025434941  0.018791252990009166  1.0000
