data_image0
_chemical_formula_structural       FeS2FeS2FeSFeS3FeS2FeS2FeSFeS3FeS2FeS2FeSFeS3FeS2FeS2FeSFeS3FeS2FeS2FeSFeS3FeS2FeS2FeSFeS3FeS2FeS2FeSFeS3FeS2FeS2FeSFeS3FeS2FeS2FeSFeS3FeS2FeS2FeSFeS3FeS2FeS2FeSFeS3FeS2FeS2FeSFeS3FeS2FeS2FeSFeS3FeS2FeS2FeSFeS3FeS2FeS2FeSFeS3FeS2FeS2FeSFeS3FeS2FeS2FeSFeS3FeS2FeS2FeSFeS3FeS2FeS2FeSFeS3FeS2FeS2FeSFeS3FeS2FeS2FeSFeS3FeS2FeS2FeSFeS3FeS2FeS2FeSFeS3FeS2FeS2FeSFeS3C6H4C6H4C6H4C6H4C6H4C6H4C6H4C6H4C6H4C6H4C6H4C6H4C6H4C6H4C6H4C6H4C6H4C6H4C6H4C6H4C6H4C6H4C6H4C6H4C6H4C6H4C6H4C6H4C6H4C6H4C6H4C6H4C6H4C6H4C6H4C6H4C6H4C6H4C6H4C6H4C6H4C6H4C6H4C6H4C6H4C6H4C6H4C6H4NC4H12NC4H12NC4H12NC4H12NC4H12NC4H12NC4H12NC4H12NC4H12NC4H12NC4H12NC4H12NC4H12NC4H12NC4H12NC4H12NC4H12NC4H12NC4H12NC4H12NC4H12NC4H12NC4H12NC4H12NC4H12NC4H12NC4H12NC4H12NC4H12NC4H12NC4H12NC4H12NC4H12NC4H12NC4H12NC4H12NC4H12NC4H12NC4H12NC4H12NC4H12NC4H12NC4H12NC4H12NC4H12NC4H12NC4H12NC4H12
_chemical_formula_sum              "Fe96 S192 C480 H768 N48"
_cell_length_a       59.36171350169428
_cell_length_b       31.756747993497175
_cell_length_c       29.459916968635508
_cell_angle_alpha    89.26892219729099
_cell_angle_beta     90.11371408916062
_cell_angle_gamma    88.41316077013396

_space_group_name_H-M_alt    "P 1"
_space_group_IT_number       1

loop_
  _space_group_symop_operation_xyz
  'x, y, z'

loop_
  _atom_site_type_symbol
  _atom_site_label
  _atom_site_symmetry_multiplicity
  _atom_site_fract_x
  _atom_site_fract_y
  _atom_site_fract_z
  _atom_site_occupancy
  Fe  Fe1       1.0  0.8975217516968427  0.49604630906136465  0.9806012831523332  1.0000
  S   S1        1.0  0.8889624403873848  0.5491430708100747  0.9319151336588531  1.0000
  S   S2        1.0  0.8846339156972718  0.4953266867401581  0.05220501300316793  1.0000
  Fe  Fe2       1.0  0.9232218157745027  0.44568281468742205  0.9106866371206177  1.0000
  S   S3        1.0  0.9173069908286763  0.49405403881692067  0.8557289193690717  1.0000
  S   S4        1.0  0.9388739293076815  0.3824641923073246  0.8953442806783425  1.0000
  Fe  Fe3       1.0  0.9249539290940622  0.5408278181626206  0.9095017850017051  1.0000
  S   S5        1.0  0.9454649686159026  0.5982742990374481  0.8962090869950853  1.0000
  Fe  Fe4       1.0  0.8819908748842403  0.4979992867031458  0.8824900385774015  1.0000
  S   S6        1.0  0.8542949927216267  0.4962579112867024  0.8304695096491641  1.0000
  S   S7        1.0  0.9341620391494715  0.4920330629605663  0.9626714587041242  1.0000
  S   S8        1.0  0.8872405476989974  0.44554640343517504  0.9330562258952878  1.0000
  Fe  Fe5       1.0  0.955528717228991  0.1294455492355085  0.08923023909656047  1.0000
  S   S9        1.0  0.9402868014005676  0.17917627150571874  0.1344344800462598  1.0000
  S   S10       1.0  0.9825355540394144  0.08271524701734824  0.11119386359945693  1.0000
  Fe  Fe6       1.0  0.9304733310143795  0.16053747390466336  0.005496834686442131  1.0000
  S   S11       1.0  0.9130915400807387  0.2127585824196547  0.04305043639298001  1.0000
  S   S12       1.0  0.9232920791930059  0.15009371948686878  0.9315804190313657  1.0000
  Fe  Fe7       1.0  0.9465789227800517  0.22244893784834516  0.07521030016227925  1.0000
  S   S13       1.0  0.9584510108158527  0.28857139025892525  0.08078860493342366  1.0000
  Fe  Fe8       1.0  0.908171406668453  0.16488084382443663  0.0980671052669615  1.0000
  S   S14       1.0  0.8726518419886246  0.16616596122053964  0.12369518398368595  1.0000
  S   S15       1.0  0.9645874793845606  0.17406972164755277  0.0331182492671207  1.0000
  S   S16       1.0  0.9227413388731075  0.11127823562245655  0.0578659239770567  1.0000
  Fe  Fe9       1.0  0.28041326073302864  0.5087403392112531  0.013664439566054565  1.0000
  S   S17       1.0  0.2651904922345795  0.5042185017881174  0.944353220266387  1.0000
  S   S18       1.0  0.30153628778670155  0.45605557638672506  0.04353505156003035  1.0000
  Fe  Fe10      1.0  0.2642521820449492  0.5981580603166377  0.026228120290622492  1.0000
  S   S19       1.0  0.2479750555043942  0.602800055025382  0.9578371254430146  1.0000
  S   S20       1.0  0.2669408269028885  0.6525537940467018  0.07317812205568042  1.0000
  Fe  Fe11      1.0  0.23539494058481875  0.538539122930214  0.9743393367126753  1.0000
  S   S21       1.0  0.2009794339914936  0.518031250128936  0.953185090988867  1.0000
  Fe  Fe12      1.0  0.27886258512879347  0.5683639659521728  0.9331869449792612  1.0000
  S   S22       1.0  0.2933038559197294  0.5846016025219035  0.8651217410724018  1.0000
  S   S23       1.0  0.24916875540053995  0.5362792422973309  0.0453538813117742  1.0000
  S   S24       1.0  0.29662556450034444  0.5703029881811283  0.00020281213987871638  1.0000
  Fe  Fe13      1.0  0.24353907690578555  0.2508899127665682  0.025681698602531222  1.0000
  S   S25       1.0  0.23532405568772574  0.2573548816791594  0.9516830053136917  1.0000
  S   S26       1.0  0.23620712866237178  0.3055887993640588  0.07143386875741431  1.0000
  Fe  Fe14      1.0  0.25382101157963227  0.15766386103300697  0.019633510487017114  1.0000
  S   S27       1.0  0.2459980973120469  0.1556980596683323  0.9451232624129784  1.0000
  S   S28       1.0  0.263549912501387  0.09777839575061277  0.05713140329640454  1.0000
  Fe  Fe15      1.0  0.265676288309933  0.21505784729315325  0.9412940790806215  1.0000
  S   S29       1.0  0.28695842542687827  0.22409753748342293  0.8788506391446715  1.0000
  Fe  Fe16      1.0  0.21650879946225499  0.19802734443413128  0.96178637260713  1.0000
  S   S30       1.0  0.18144032228949733  0.19562871485391173  0.9334331949179929  1.0000
  S   S31       1.0  0.2759210374704217  0.21386373841291492  0.014895641524224734  1.0000
  S   S32       1.0  0.22228009570878438  0.1945060856031549  0.03665018490483862  1.0000
  Fe  Fe17      1.0  0.0670857786704373  0.6112925135642912  0.826660143497259  1.0000
  S   S33       1.0  0.10269161608302513  0.6034802803307011  0.801300169194199  1.0000
  S   S34       1.0  0.04681996880578465  0.555088713482758  0.8458906517228292  1.0000
  Fe  Fe18      1.0  0.066261538091692  0.7060912614350368  0.8150951965415605  1.0000
  S   S35       1.0  0.10159069563647731  0.70674962329147  0.7887152644039931  1.0000
  S   S36       1.0  0.044814059427737966  0.7642480348257211  0.8275936673524472  1.0000
  Fe  Fe19      1.0  0.09167203102225874  0.6510506972480229  0.7483523507433535  1.0000
  S   S37       1.0  0.10030443825527136  0.6463596044612779  0.674479947990873  1.0000
  Fe  Fe20      1.0  0.1094557225690951  0.6597196976951417  0.8442183986546649  1.0000
  S   S38       1.0  0.13998483977477674  0.6732043849006144  0.886703125978768  1.0000
  S   S39       1.0  0.05546076026815783  0.6541656250656886  0.7698699737804312  1.0000
  S   S40       1.0  0.07477568280333946  0.6634490854062137  0.8742879083405717  1.0000
  Fe  Fe21      1.0  0.0821456913227332  0.07101160813566842  0.8516152292147541  1.0000
  S   S41       1.0  0.11327888472878998  0.03056766249831222  0.8607615301666585  1.0000
  S   S42       1.0  0.08084750235255367  0.1268468612855307  0.8042745870303775  1.0000
  Fe  Fe22      1.0  0.05384693574811683  0.01333253441111415  0.9094455689158032  1.0000
  S   S43       1.0  0.08251236320968033  0.9669634914300794  0.922680787047312  1.0000
  S   S44       1.0  0.01767453173626876  0.0038708510911893423  0.9279691702033368  1.0000
  Fe  Fe23      1.0  0.10251946060244611  0.025227407958047676  0.9332191502446344  1.0000
  S   S45       1.0  0.130784516359713  0.029591800442791083  0.9835640895078173  1.0000
  Fe  Fe24      1.0  0.09047511703810106  0.9769059922861321  0.8489521058412682  1.0000
  S   S46       1.0  0.10023360244029933  0.9280976670605017  0.7977842657497318  1.0000
  S   S47       1.0  0.07310838304077438  0.07113902331999111  0.9255309743819835  1.0000
  S   S48       1.0  0.060104705286881055  0.01774124122059595  0.8345798115491335  1.0000
  Fe  Fe25      1.0  0.6818445785251853  0.5574234861959994  0.8091128797615036  1.0000
  S   S49       1.0  0.6861282883831977  0.5415466391708986  0.735425803639857  1.0000
  S   S50       1.0  0.647587302114106  0.580298644312114  0.832152312334959  1.0000
  Fe  Fe26      1.0  0.7286128868678822  0.5223570111518258  0.8351979155830396  1.0000
  S   S51       1.0  0.7364156815352317  0.5040227346783718  0.7638762559930878  1.0000
  S   S52       1.0  0.7528578004043965  0.5088164776861603  0.8932333176695316  1.0000
  Fe  Fe27      1.0  0.7207652913261148  0.5667877490881582  0.7447492160554987  1.0000
  S   S53       1.0  0.7407197772389932  0.6067697523491442  0.6967842029062427  1.0000
  Fe  Fe28      1.0  0.7013259992662215  0.48057085196789995  0.761735132260741  1.0000
  S   S54       1.0  0.6929911076583449  0.4155421636541405  0.7388876944927033  1.0000
  S   S55       1.0  0.715469806110872  0.5874131113080248  0.8166936348727405  1.0000
  S   S56       1.0  0.6944169419543841  0.49448199630035766  0.8347291625151143  1.0000
  Fe  Fe29      1.0  0.7889938795010135  0.17498870441952202  0.8154683251547794  1.0000
  S   S57       1.0  0.7896049958094998  0.19583529378082803  0.8878190845067914  1.0000
  S   S58       1.0  0.7928071785233576  0.1070185016930632  0.7961992512122879  1.0000
  Fe  Fe30      1.0  0.7837059552874076  0.26334516592883833  0.778050348287028  1.0000
  S   S59       1.0  0.7830823222615956  0.2924471336155766  0.8467024463085572  1.0000
  S   S60       1.0  0.7817056628971947  0.30415383071802166  0.7158084709541513  1.0000
  Fe  Fe31      1.0  0.8115977890019472  0.2470924451961708  0.862234953427992  1.0000
  S   S61       1.0  0.8404280352044032  0.2737451658633484  0.9004913809902496  1.0000
  Fe  Fe32      1.0  0.7610168439858047  0.23920393231156337  0.8662966897369332  1.0000
  S   S62       1.0  0.7324034058635716  0.24814831298215947  0.9151108707521451  1.0000
  S   S63       1.0  0.8141568607877967  0.22207006178440675  0.7917754677354125  1.0000
  S   S64       1.0  0.7586547931127449  0.21454457506229885  0.7956028055621225  1.0000
  Fe  Fe33      1.0  0.5531427467380339  0.6955249141334305  0.9624072030690345  1.0000
  S   S65       1.0  0.575592915435971  0.6750629224328941  0.02017401573079436  1.0000
  S   S66       1.0  0.5403306197753235  0.642860373288883  0.9201125953111955  1.0000
  Fe  Fe34      1.0  0.5597217500643689  0.7876849929672071  0.9803949045839915  1.0000
  S   S67       1.0  0.583094166717711  0.775135226565293  0.039185853830632  1.0000
  S   S68       1.0  0.5487319354081076  0.8538897479752838  0.9619956207915643  1.0000
  Fe  Fe35      1.0  0.5983400103689362  0.724939065304883  0.9951127512713909  1.0000
  S   S69       1.0  0.6355136942382877  0.7104320182241713  0.9903571836165402  1.0000
  Fe  Fe36      1.0  0.5582294581030701  0.7263751007571765  0.0590949164745973  1.0000
  S   S70       1.0  0.5495606283364607  0.7178341894054429  0.1328325685425069  1.0000
  S   S71       1.0  0.5773157219868895  0.7419972668604733  0.9339630364094129  1.0000
  S   S72       1.0  0.5334379907882726  0.7425423923388861  0.003688937461394648  1.0000
  Fe  Fe37      1.0  0.6244481006027155  0.1306915632946013  0.9052560739129494  1.0000
  S   S73       1.0  0.5968317073393884  0.08841404168160527  0.8832187133359208  1.0000
  S   S74       1.0  0.6416661959479414  0.16794239566312696  0.8507471735896274  1.0000
  Fe  Fe38      1.0  0.6240580124315016  0.09738894574611301  0.0024546385786625713  1.0000
  S   S75       1.0  0.597277042261107  0.05145348419081164  0.9874854675406878  1.0000
  S   S76       1.0  0.6397325050109984  0.1028320505787148  0.07149529023468748  1.0000
  Fe  Fe39      1.0  0.6161705954977941  0.03913971770801283  0.9233490062401726  1.0000
  S   S77       1.0  0.6254870471397337  0.9743984154828637  0.8988490019366382  1.0000
  Fe  Fe40      1.0  0.5808196702238362  0.1057466169521244  0.9496938132990842  1.0000
  S   S78       1.0  0.5441806228793784  0.11723268041046886  0.9655220830343884  1.0000
  S   S79       1.0  0.6446874301022015  0.08025053387882974  0.9416212703943775  1.0000
  S   S80       1.0  0.6066583662853783  0.15281957494540466  0.968238814236983  1.0000
  Fe  Fe41      1.0  0.4126394239353844  0.5523776329465059  0.7934354513570798  1.0000
  S   S81       1.0  0.4118066961025979  0.5220571406328876  0.7255019241148216  1.0000
  S   S82       1.0  0.3959552713991075  0.5273550195869084  0.8560167375553195  1.0000
  Fe  Fe42      1.0  0.44230716684451105  0.6223300002389353  0.7621406540368905  1.0000
  S   S83       1.0  0.44392108486019116  0.5996786587515203  0.6903104294172595  1.0000
  S   S84       1.0  0.45782049665300223  0.6809689119914585  0.7891351299192594  1.0000
  Fe  Fe43      1.0  0.40706939516368157  0.5878012888927313  0.698250674825945  1.0000
  S   S85       1.0  0.3819184985457816  0.5917991787997126  0.641506396953399  1.0000
  Fe  Fe44      1.0  0.44853017328037315  0.5356448830798116  0.7222585348431592  1.0000
  S   S86       1.0  0.47302574460127034  0.49001890077954685  0.6905543185717858  1.0000
  S   S87       1.0  0.4047186109638884  0.6173881878439536  0.7666885946513657  1.0000
  S   S88       1.0  0.45006440527848807  0.5588394301978222  0.793489236568976  1.0000
  Fe  Fe45      1.0  0.41034984269781233  0.2682171214107479  0.8413358150926284  1.0000
  S   S89       1.0  0.40018785135356605  0.24498621534323647  0.7729498265152095  1.0000
  S   S90       1.0  0.3859069950269815  0.2915550547680435  0.8945002318032229  1.0000
  Fe  Fe46      1.0  0.46028156963837713  0.251085794244415  0.8248327194006109  1.0000
  S   S91       1.0  0.45423917718024787  0.225453513626207  0.7555520364984697  1.0000
  S   S92       1.0  0.49638880399106555  0.26034038194869175  0.8455063061308894  1.0000
  Fe  Fe47      1.0  0.42982413263071684  0.27973545370281905  0.7469965487859874  1.0000
  S   S93       1.0  0.4297629244788056  0.3116225178034168  0.6787661703222384  1.0000
  Fe  Fe48      1.0  0.42530971738539947  0.1926389018022575  0.7873545682044035  1.0000
  S   S94       1.0  0.4185903103852381  0.1255812258541674  0.7699994295257289  1.0000
  S   S95       1.0  0.4378456498819419  0.3085424303648683  0.813967164132407  1.0000
  S   S96       1.0  0.43345422025012437  0.2129646033156464  0.8580630220673664  1.0000
  Fe  Fe49      1.0  0.9334007417364675  0.6314570044536533  0.22957298943894966  1.0000
  S   S97       1.0  0.9079497867627634  0.6061030078139201  0.2779619338154411  1.0000
  S   S98       1.0  0.9515219021803974  0.5896302864312067  0.17990293705054403  1.0000
  Fe  Fe50      1.0  0.9310764509123396  0.7187208992919877  0.26934359950933884  1.0000
  S   S99       1.0  0.9059626560038309  0.7009744380047334  0.32233974663890674  1.0000
  S   S100      1.0  0.9437807770518682  0.7845980561113818  0.2658411979425456  1.0000
  Fe  Fe51      1.0  0.9267198319562674  0.6415928886681377  0.33038129070075334  1.0000
  S   S101      1.0  0.9339385206698975  0.6138414320184132  0.39942239676513297  1.0000
  Fe  Fe52      1.0  0.8892757482853613  0.6673434537273243  0.26561400212757036  1.0000
  S   S102      1.0  0.8517853787297186  0.6672167633704376  0.25622120783773433  1.0000
  S   S103      1.0  0.9538361188737183  0.6623891366510438  0.28315111960501826  1.0000
  S   S104      1.0  0.9128374240725446  0.6895979767439513  0.2113756734912034  1.0000
  Fe  Fe53      1.0  0.87743691098065  0.06401580847092991  0.35404393725400024  1.0000
  S   S105      1.0  0.9051978072116412  0.07707919377010075  0.40305424421791425  1.0000
  S   S106      1.0  0.8531935371607071  0.1130148112417888  0.3264056144796184  1.0000
  Fe  Fe54      1.0  0.8834229280231994  0.9691895641319027  0.3627564153749841  1.0000
  S   S107      1.0  0.9116296083356195  0.9729598911763827  0.4129488650954989  1.0000
  S   S108      1.0  0.8683133904328474  0.9081926859030678  0.3426540894203365  1.0000
  Fe  Fe55      1.0  0.8907963248587772  0.024771996880017966  0.44425825450298895  1.0000
  S   S109      1.0  0.8835992149649564  0.02972059436315133  0.5184757272804167  1.0000
  Fe  Fe56      1.0  0.9238203066070617  0.02477979430884103  0.3673941738170953  1.0000
  S   S110      1.0  0.960242687042386  0.03244836348326574  0.3494320011251901  1.0000
  S   S111      1.0  0.8613623397506955  0.016050824226661264  0.3984009142176093  1.0000
  S   S112      1.0  0.8972774674993027  0.016433859089027614  0.31383356595406875  1.0000
  Fe  Fe57      1.0  0.2408308515247858  0.6813359119327428  0.3785452089187482  1.0000
  S   S113      1.0  0.2521988876494593  0.6225376245285273  0.41605799677946087  1.0000
  S   S114      1.0  0.24793418425394168  0.7448302005376084  0.40719257200388875  1.0000
  Fe  Fe58      1.0  0.2208077020907594  0.633536025474349  0.3012973645367477  1.0000
  S   S115      1.0  0.23090617205430503  0.5707306228409513  0.3312790506729507  1.0000
  S   S116      1.0  0.20027789105217148  0.6341459966098717  0.23738167764063595  1.0000
  Fe  Fe59      1.0  0.2183955492522105  0.5981531131708462  0.3965074585357146  1.0000
  S   S117      1.0  0.19730874501342324  0.5560624932133804  0.4404915370554556  1.0000
  Fe  Fe60      1.0  0.2635993622553369  0.6006000641699709  0.34755657665227047  1.0000
  S   S118      1.0  0.29732210516555796  0.5680702038536023  0.3377333066587681  1.0000
  S   S119      1.0  0.2059164518417597  0.6592212964868579  0.36521225221173204  1.0000
  S   S120      1.0  0.2547445286839145  0.6610800813606577  0.3115025396378485  1.0000
  Fe  Fe61      1.0  0.19441339990093195  0.9768181911350707  0.3378142683766321  1.0000
  S   S121      1.0  0.2074834828747171  0.9811358967148047  0.26677348467401596  1.0000
  S   S122      1.0  0.15998622781151983  0.9541654282543668  0.3539333269121028  1.0000
  Fe  Fe62      1.0  0.23884600383179774  0.00020555800008636993  0.38029386334319026  1.0000
  S   S123      1.0  0.255922757258942  0.0059822932050579425  0.3128246079588772  1.0000
  S   S124      1.0  0.2569722231724983  0.014399715899378496  0.4448079682885217  1.0000
  Fe  Fe63      1.0  0.22405681700707578  0.03947644435567299  0.2909518591522735  1.0000
  S   S125      1.0  0.2248963353202659  0.10216995690220809  0.2553675478779274  1.0000
  Fe  Fe64      1.0  0.2379427486695842  0.947194505054811  0.29611307337230547  1.0000
  S   S126      1.0  0.2534513117640617  0.8910306359740996  0.2619506169172809  1.0000
  S   S127      1.0  0.208197955411499  0.038275433547781734  0.35989029463859856  1.0000
  S   S128      1.0  0.2234381192470894  0.9385045099190866  0.3655626482881894  1.0000
  Fe  Fe65      1.0  0.0913919630387976  0.09232781074856411  0.5592018607653227  1.0000
  S   S129      1.0  0.09221634272130515  0.14997619930364925  0.5146857829795087  1.0000
  S   S130      1.0  0.11705163727396196  0.07311339294364361  0.611654202073232  1.0000
  Fe  Fe66      1.0  0.049652722663247495  0.05981158862269554  0.5154352456570315  1.0000
  S   S131      1.0  0.04654058125250882  0.11405569562166464  0.466435631216806  1.0000
  S   S132      1.0  0.023388128134530728  0.011061784037839308  0.5214009955028377  1.0000
  Fe  Fe67      1.0  0.08382114073005395  0.10582074734227002  0.45880569959925377  1.0000
  S   S133      1.0  0.10051014672916425  0.11598963487846624  0.39146217333544725  1.0000
  Fe  Fe68      1.0  0.054847585669864474  0.15341905414016777  0.5261714774622518  1.0000
  S   S134      1.0  0.03292229608225261  0.2115936997826533  0.531951665109108  1.0000
  S   S135      1.0  0.08634941143249764  0.047401405344715375  0.5024701104446508  1.0000
  S   S136      1.0  0.05473791626227276  0.09982915796710652  0.5762429702627567  1.0000
  Fe  Fe69      1.0  0.0718695933857374  0.42582300079944  0.46702648383929213  1.0000
  S   S137      1.0  0.036197343549442484  0.4328703281516595  0.4910358749529414  1.0000
  S   S138      1.0  0.0920342128910121  0.3652841413451779  0.47523572188542273  1.0000
  Fe  Fe70      1.0  0.07368721895534924  0.5167458003361582  0.43490784251225995  1.0000
  S   S139      1.0  0.03823025372776989  0.5318902376621131  0.4565884146755222  1.0000
  S   S140      1.0  0.09289033916509006  0.5677322951199435  0.40002492199028766  1.0000
  Fe  Fe71      1.0  0.047290472189260635  0.49410512274061535  0.5191229709368933  1.0000
  S   S141      1.0  0.03800788964488766  0.5100638060478981  0.5906969718821646  1.0000
  Fe  Fe72      1.0  0.03064087928701964  0.4693992936010613  0.4263568464043191  1.0000
  S   S142      1.0  0.002021306501037934  0.46074648737987867  0.37804520462370256  1.0000
  S   S143      1.0  0.08359613748796223  0.48450092059340716  0.5003240944826873  1.0000
  S   S144      1.0  0.06547132514735376  0.4572093979188687  0.39951093348081845  1.0000
  Fe  Fe73      1.0  0.38868125960636757  0.08189425663596306  0.5267508572002207  1.0000
  S   S145      1.0  0.38291480793697485  0.10695873543743817  0.4560828034795283  1.0000
  S   S146      1.0  0.36918022699683684  0.11591669836286012  0.5806670173707214  1.0000
  Fe  Fe74      1.0  0.4221852059619621  0.014090315987846047  0.4951141199818034  1.0000
  S   S147      1.0  0.4194269184610183  0.034872726144196786  0.4225319908210319  1.0000
  S   S148      1.0  0.44289290706010653  0.9562488882436772  0.5143766472120376  1.0000
  Fe  Fe75      1.0  0.42045494669817707  0.10002549562810525  0.4503471919556836  1.0000
  S   S149      1.0  0.4399252286517533  0.15155485497596288  0.4173797192996454  1.0000
  Fe  Fe76      1.0  0.3824289292210503  0.03912542783466377  0.43660111122979034  1.0000
  S   S150      1.0  0.3591520468267381  0.007390737582977591  0.3887093674571954  1.0000
  S   S151      1.0  0.426368750661083  0.07919855309633861  0.5224665373960765  1.0000
  S   S152      1.0  0.38494803263881655  0.014548036317910906  0.5078477142810944  1.0000
  Fe  Fe77      1.0  0.4362978640346107  0.7641683171058422  0.3757594508603118  1.0000
  S   S153      1.0  0.43420437058406897  0.7068815477645232  0.3319295128029403  1.0000
  S   S154      1.0  0.4547339049984646  0.8229051068604807  0.35764588201938113  1.0000
  Fe  Fe78      1.0  0.4044509735917844  0.7308426003807608  0.446059074748637  1.0000
  S   S155      1.0  0.39942402453839426  0.6702664932104958  0.410209515153984  1.0000
  S   S156      1.0  0.38739103810182124  0.7496302501224116  0.5105833279094915  1.0000
  Fe  Fe79      1.0  0.436676438292328  0.6712787332564859  0.39816949043173966  1.0000
  S   S157      1.0  0.4557192478711007  0.6097525889990089  0.40584082212225575  1.0000
  Fe  Fe80      1.0  0.3971366927470489  0.7101208239433214  0.34708085868821764  1.0000
  S   S158      1.0  0.3695806540972711  0.7049996789913433  0.29504670994925813  1.0000
  S   S159      1.0  0.44206799373333944  0.7279658277613972  0.4408255049948571  1.0000
  S   S160      1.0  0.3989768180303937  0.7710183975375524  0.38413558595681807  1.0000
  Fe  Fe81      1.0  0.5627604258818872  0.46612571482185955  0.3415067912125028  1.0000
  S   S161      1.0  0.5477518190574191  0.5246733087390412  0.308995077446538  1.0000
  S   S162      1.0  0.5433057033474415  0.4123076120269963  0.3696631004473918  1.0000
  Fe  Fe82      1.0  0.6103970647554077  0.49670960212175785  0.3363752190633738  1.0000
  S   S163      1.0  0.5999246240812723  0.5586317063413763  0.30422268253597534  1.0000
  S   S164      1.0  0.6459031422022106  0.477386999338375  0.35493429625168255  1.0000
  Fe  Fe83      1.0  0.5715595837447568  0.5584911965842884  0.35419592577001  1.0000
  S   S165      1.0  0.5611713382271037  0.6179414401213695  0.3899952645692681  1.0000
  Fe  Fe84      1.0  0.5772457528582092  0.5196355779935553  0.2619480897355377  1.0000
  S   S166      1.0  0.5729971112912579  0.5295648315429647  0.1870558997499817  1.0000
  S   S167      1.0  0.5841922744710787  0.5003605389624329  0.39080031941084925  1.0000
  S   S168      1.0  0.5901326994655614  0.457548636497398  0.28993748697928223  1.0000
  Fe  Fe85      1.0  0.6094424307911637  0.16700440983090856  0.3436515308777933  1.0000
  S   S169      1.0  0.579235187573417  0.205639000224472  0.36471816605533314  1.0000
  S   S170      1.0  0.6423381096301066  0.18719316367212008  0.3733770020329073  1.0000
  Fe  Fe86      1.0  0.5815412532611309  0.10855338191040872  0.28677973660434525  1.0000
  S   S171      1.0  0.5489151264986106  0.14163497429357375  0.3036665565084121  1.0000
  S   S172      1.0  0.5793965654807407  0.054375623861219864  0.23917484595567753  1.0000
  Fe  Fe87      1.0  0.5682878236810625  0.2003350392467635  0.29204042236031375  1.0000
  S   S173      1.0  0.5561347058002327  0.25335134528174785  0.2465570688129423  1.0000
  Fe  Fe88      1.0  0.5629432911492961  0.14343751230228388  0.3743023237988198  1.0000
  S   S174      1.0  0.5450378508965658  0.12469091240544475  0.43800496601497724  1.0000
  S   S175      1.0  0.600080135339146  0.1673277008074709  0.2699206911956893  1.0000
  S   S176      1.0  0.5939261545550409  0.10466575079593662  0.35857186864875984  1.0000
  Fe  Fe89      1.0  0.715233188574572  0.6793232675247701  0.46193229577459033  1.0000
  S   S177      1.0  0.7313919576992067  0.6243123930020361  0.4265278533537579  1.0000
  S   S178      1.0  0.6904859343961705  0.6712514364225831  0.5186418473366556  1.0000
  Fe  Fe90      1.0  0.7359959107507966  0.7438120565369566  0.3990028239047206  1.0000
  S   S179      1.0  0.7532704334769235  0.6948556777988614  0.3570133539133892  1.0000
  S   S180      1.0  0.7390762734837047  0.8122041410317757  0.38091436548427204  1.0000
  Fe  Fe91      1.0  0.7212273024698466  0.659620279897332  0.3628713688628475  1.0000
  S   S181      1.0  0.704564084556277  0.6323342463550035  0.3018568674170398  1.0000
  Fe  Fe92      1.0  0.7619568239357252  0.6642637021200756  0.42402353354360783  1.0000
  S   S182      1.0  0.7977478343922173  0.6438866335844003  0.43819973308933763  1.0000
  S   S183      1.0  0.7028165164069753  0.7119925973940173  0.3986001634656069  1.0000
  S   S184      1.0  0.746825369741779  0.716140859646924  0.4660002019035376  1.0000
  Fe  Fe93      1.0  0.7310386978912645  0.03964288181844844  0.5992671676856823  1.0000
  S   S185      1.0  0.7281110880778697  0.08856408992100939  0.5436089509879699  1.0000
  S   S186      1.0  0.7145552581003204  0.05295716481691137  0.6665211038836956  1.0000
  Fe  Fe94      1.0  0.7602500977629122  0.9804342238722877  0.5430990113503329  1.0000
  S   S187      1.0  0.7603681032588161  0.024385157440664385  0.4831879365023909  1.0000
  S   S188      1.0  0.7785254782040263  0.9176043642128631  0.5409495777294042  1.0000
  Fe  Fe95      1.0  0.7650339429966261  0.0749783458504305  0.5341965439147216  1.0000
  S   S189      1.0  0.7896059791616172  0.12581371166695243  0.5196672336439907  1.0000
  Fe  Fe96      1.0  0.7235586172855041  0.03360503507458934  0.4978028876311555  1.0000
  S   S190      1.0  0.6990584953120622  0.027316083778295752  0.44038809973411897  1.0000
  S   S191      1.0  0.7684689788467539  0.030223119006059118  0.5931486583331446  1.0000
  S   S192      1.0  0.7229782765771712  0.985568418436047  0.5543258313556663  1.0000
  C   C1        1.0  0.7515316503326811  0.8417116687297311  0.423482384991485  1.0000
  C   C2        1.0  0.7453060334252631  0.8842382299988254  0.42771816071275337  1.0000
  C   C3        1.0  0.7537103672463583  0.9076570233818705  0.46362396133805694  1.0000
  C   C4        1.0  0.7688063639476833  0.8889036447165443  0.4947923845964938  1.0000
  C   C5        1.0  0.775514106077695  0.846582616274174  0.4898900613832363  1.0000
  C   C6        1.0  0.7668144270763254  0.8229503417648372  0.4543278714611671  1.0000
  H   H1        1.0  0.7334011442525323  0.8988308011801691  0.4040144699537764  1.0000
  H   H2        1.0  0.7480869748816047  0.9400015171552721  0.4674766773523463  1.0000
  H   H3        1.0  0.7868962159625889  0.8316681619217041  0.514322775745496  1.0000
  H   H4        1.0  0.771912176165636  0.7902559358984196  0.45095531384654125  1.0000
  C   C7        1.0  0.6596972222378683  0.14371099226836934  0.38880463045169616  1.0000
  C   C8        1.0  0.6769984547569177  0.14825870263687524  0.4206913378996074  1.0000
  C   C9        1.0  0.6896584461853241  0.11281495334586467  0.4360970407235615  1.0000
  C   C10       1.0  0.685031817365797  0.07288292413585575  0.41943767839642526  1.0000
  C   C11       1.0  0.6682608747296875  0.06869761929620388  0.3864554829622167  1.0000
  C   C12       1.0  0.6556079411616245  0.10401320062834846  0.37119051349878646  1.0000
  H   H5        1.0  0.680293033846021  0.17902859639478982  0.4341591238826153  1.0000
  H   H6        1.0  0.7027174581350155  0.11632421942298339  0.4612224141523275  1.0000
  H   H7        1.0  0.664828191162041  0.03793310955904361  0.37306597643629413  1.0000
  H   H8        1.0  0.642721983072912  0.10043991389883036  0.34566367573875545  1.0000
  C   C13       1.0  0.6641729626564201  0.5163505507819388  0.33615127956029806  1.0000
  C   C14       1.0  0.683495094990483  0.5247577182164777  0.3613453141073048  1.0000
  C   C15       1.0  0.69643737867295  0.5596666404719456  0.35011047280436636  1.0000
  C   C16       1.0  0.6901629736527684  0.5859849636309169  0.3135229916826203  1.0000
  C   C17       1.0  0.6715193631649626  0.5762102611054835  0.28692065628683433  1.0000
  C   C18       1.0  0.6585063562369173  0.5414905843161966  0.29830732367708823  1.0000
  H   H9        1.0  0.6880910394530039  0.5050735397257226  0.39034196533055376  1.0000
  H   H10       1.0  0.7112600366352945  0.5661040397107979  0.3697257559936787  1.0000
  H   H11       1.0  0.6668210590241678  0.5961175114535802  0.258179437859854  1.0000
  H   H12       1.0  0.6441065179894834  0.5341437753938385  0.27771850890778993  1.0000
  C   C19       1.0  0.5438243923027092  0.3688529391491334  0.333648121119675  1.0000
  C   C20       1.0  0.5489252029446192  0.3736467794166062  0.2875693922362135  1.0000
  C   C21       1.0  0.5514275680109706  0.3380640985752037  0.26010190622803925  1.0000
  C   C22       1.0  0.5492784399789594  0.29770662083758814  0.27896710235496985  1.0000
  C   C23       1.0  0.5435005687722662  0.29301616703592076  0.32470285596219817  1.0000
  C   C24       1.0  0.5405611157559755  0.3286021201582611  0.35191979127412837  1.0000
  H   H13       1.0  0.5509362982796369  0.4047571880986249  0.2730756718827866  1.0000
  H   H14       1.0  0.5557697327574682  0.34179322260484885  0.22465139908979037  1.0000
  H   H15       1.0  0.5412568751457734  0.2619637120605665  0.33912896014326327  1.0000
  H   H16       1.0  0.5363723001270377  0.3248810587231205  0.38745344148071675  1.0000
  C   C25       1.0  0.48513407918449314  0.612776200159716  0.40671499993381244  1.0000
  C   C26       1.0  0.4981613885091186  0.5755853896264937  0.40357691730500667  1.0000
  C   C27       1.0  0.5216632687867472  0.577123953865333  0.4010315352936033  1.0000
  C   C28       1.0  0.5322475573330004  0.6158793664594338  0.401434612034089  1.0000
  C   C29       1.0  0.5193052869527723  0.6530810838587151  0.40669714426990644  1.0000
  C   C30       1.0  0.49569502429543066  0.6515232595139228  0.4093232500970138  1.0000
  H   H17       1.0  0.49007208578366745  0.5454932526351782  0.40195822781800905  1.0000
  H   H18       1.0  0.5315614516773052  0.5481995051700416  0.39808186980976445  1.0000
  H   H19       1.0  0.5274525449197953  0.6831373156419442  0.40711413339192193  1.0000
  H   H20       1.0  0.4856950471368256  0.6803316959332304  0.4123310154275708  1.0000
  C   C31       1.0  0.4691348208300576  0.14625877466651027  0.4253674192482273  1.0000
  C   C32       1.0  0.4781177845786595  0.11898212743275627  0.45879844101231354  1.0000
  C   C33       1.0  0.5015111475662684  0.11386450429967421  0.4637599386764386  1.0000
  C   C34       1.0  0.5159762658853546  0.13524794245313398  0.4345962717079414  1.0000
  C   C35       1.0  0.5070553969411178  0.16265218216761287  0.40122947082870564  1.0000
  C   C36       1.0  0.48363092428564525  0.16853173079027614  0.3969996539558658  1.0000
  H   H21       1.0  0.46712391700186406  0.10145933867023471  0.48060961774983957  1.0000
  H   H22       1.0  0.5083749326863488  0.0924630738779193  0.4894605689871889  1.0000
  H   H23       1.0  0.5181680366076528  0.17946481139993045  0.3787586555263802  1.0000
  H   H24       1.0  0.4767409335623996  0.1897443917253408  0.3711282427808493  1.0000
  C   C37       1.0  0.44777647318704206  0.9198956889549477  0.47062249519154786  1.0000
  C   C38       1.0  0.44925781171419593  0.8768355327419979  0.48131662067075454  1.0000
  C   C39       1.0  0.4513147711993879  0.8469878439280447  0.44675719786815166  1.0000
  C   C40       1.0  0.4527277315144233  0.8600464012754918  0.4013544770906518  1.0000
  C   C41       1.0  0.45218673981706387  0.9031815801540076  0.3907190285747333  1.0000
  C   C42       1.0  0.44957465899575416  0.9330549242826145  0.42525307320982514  1.0000
  H   H25       1.0  0.44830425602460305  0.8664324255938879  0.5163815375888375  1.0000
  H   H26       1.0  0.4521495083041768  0.8138947096801197  0.45544945842737977  1.0000
  H   H27       1.0  0.4531801333675683  0.9133350643963768  0.35562161707502565  1.0000
  H   H28       1.0  0.4491579663116345  0.9661353830093881  0.41676273500711697  1.0000
  C   C43       1.0  0.04868360312545872  0.2565685277668336  0.5216318265362686  1.0000
  C   C44       1.0  0.038933979700968235  0.2905522832137337  0.49732727136571514  1.0000
  C   C45       1.0  0.05214481614354227  0.32436062234925395  0.48371906591389163  1.0000
  C   C46       1.0  0.07503775223426268  0.3246526694619588  0.4950636309279453  1.0000
  C   C47       1.0  0.08467494716172075  0.2910702031220791  0.5202436193651633  1.0000
  C   C48       1.0  0.07148293679877771  0.25710441192486655  0.5336656069595785  1.0000
  H   H29       1.0  0.021350621132403495  0.2901298393647572  0.4876534643425974  1.0000
  H   H30       1.0  0.044748490558671035  0.34945306978271423  0.4630671418113062  1.0000
  H   H31       1.0  0.10236378318202832  0.29121836130372003  0.5291627479314895  1.0000
  H   H32       1.0  0.07898913981891842  0.23128803976459056  0.5531623435660851  1.0000
  C   C49       1.0  0.28593961635418635  0.0079454258421785  0.43427026335777075  1.0000
  C   C50       1.0  0.29330559792773103  0.9820091921699876  0.3989659273713525  1.0000
  C   C51       1.0  0.3159810595485616  0.9811156900847406  0.3860221110170721  1.0000
  C   C52       1.0  0.33146821694693374  0.005630334083151833  0.4088458909374297  1.0000
  C   C53       1.0  0.3244483942023121  0.029739598005577017  0.4459309695152297  1.0000
  C   C54       1.0  0.3016187479490646  0.030996638819132283  0.45855995397550037  1.0000
  H   H33       1.0  0.2814632031790779  0.9627799943691717  0.38133640440002387  1.0000
  H   H34       1.0  0.3214321087483882  0.9618726329350966  0.3578114233753066  1.0000
  H   H35       1.0  0.3364034720730911  0.048587075392229284  0.4638871339575248  1.0000
  H   H36       1.0  0.29601709085543376  0.05092290876577388  0.4860951421015364  1.0000
  C   C55       1.0  0.1416220301974744  0.9979139772466559  0.35803021180193395  1.0000
  C   C56       1.0  0.12146109596417429  0.9945510000653792  0.38206576503130835  1.0000
  C   C57       1.0  0.10814096190532588  0.030685346133595193  0.3905414950414194  1.0000
  C   C58       1.0  0.11492180679989299  0.07004139686729882  0.3747261996192562  1.0000
  C   C59       1.0  0.13443371371472235  0.07303441356567664  0.3484993923793027  1.0000
  C   C60       1.0  0.14785202987042467  0.03695766542684309  0.3403298120653108  1.0000
  H   H37       1.0  0.11645886541172275  0.9642712076289088  0.3952810120446385  1.0000
  H   H38       1.0  0.09263280254695477  0.02805540243421256  0.4093308441827769  1.0000
  H   H39       1.0  0.13962911224833693  0.10341612627992647  0.33592797015726483  1.0000
  H   H40       1.0  0.16312482430990152  0.039499532883412014  0.32070764456218215  1.0000
  C   C61       1.0  0.31822734563561944  0.6034912317391594  0.32219920434839877  1.0000
  C   C62       1.0  0.33979320284474074  0.5993616266792847  0.3413441501918011  1.0000
  C   C63       1.0  0.35596467399290604  0.6297866718701638  0.3322358281513634  1.0000
  C   C64       1.0  0.3507040430002007  0.6639923988085676  0.30337260635591395  1.0000
  C   C65       1.0  0.32955659584322133  0.6667455809674251  0.28224557035355075  1.0000
  C   C66       1.0  0.3132988817945627  0.6367768155032906  0.29194203160008003  1.0000
  H   H41       1.0  0.3437977188371416  0.5733053353313002  0.36427795320521694  1.0000
  H   H42       1.0  0.3724839761178272  0.6265983371587087  0.3474363989868558  1.0000
  H   H43       1.0  0.32551193906056497  0.6928475805107889  0.25938869226719724  1.0000
  H   H44       1.0  0.2969794571526828  0.639495681731334  0.2759405806395521  1.0000
  C   C67       1.0  0.16835698265551954  0.5593968216457297  0.428682825779213  1.0000
  C   C68       1.0  0.15826941600331026  0.5969303821947409  0.4125020623241806  1.0000
  C   C69       1.0  0.13505994753033526  0.5992071871552191  0.4036235049188517  1.0000
  C   C70       1.0  0.12187255795871982  0.5639191074876371  0.4108272019100382  1.0000
  C   C71       1.0  0.1319078474017709  0.5262912487841226  0.42707942376957386  1.0000
  C   C72       1.0  0.15512901818170713  0.5241596859957655  0.4362834248415648  1.0000
  H   H45       1.0  0.16819866559484214  0.6245682992428692  0.4078869421965386  1.0000
  H   H46       1.0  0.12727935001307536  0.6284991713502448  0.3915770607511009  1.0000
  H   H47       1.0  0.12180082005682737  0.49883647974903084  0.43245317710784736  1.0000
  H   H48       1.0  0.16292381309905277  0.4949907783848926  0.4486588703155258  1.0000
  C   C73       1.0  0.2520296168522871  0.7840998391940588  0.3658795596686107  1.0000
  C   C74       1.0  0.24871810038296163  0.7760744344225469  0.3198225018732948  1.0000
  C   C75       1.0  0.25079013916544673  0.8084573724483145  0.28742448965553463  1.0000
  C   C76       1.0  0.25564211840864753  0.8491864927434651  0.301170382602672  1.0000
  C   C77       1.0  0.2599033120118006  0.8568548721173929  0.34700795705707754  1.0000
  C   C78       1.0  0.2581069098882376  0.8243368245155948  0.37934881275071436  1.0000
  H   H49       1.0  0.24367549597101626  0.7454746472093214  0.3090968724216148  1.0000
  H   H50       1.0  0.24757511440328667  0.8023962035984868  0.2519437425883887  1.0000
  H   H51       1.0  0.2643263628193189  0.8880355653235741  0.3576158055978181  1.0000
  H   H52       1.0  0.26085217733344357  0.830710800579218  0.41490276426806527  1.0000
  C   C79       1.0  0.8589448240671004  0.0609225495413086  0.5229240618534131  1.0000
  C   C80       1.0  0.8435670784117798  0.05309745724913073  0.5576854944107827  1.0000
  C   C81       1.0  0.8224620507741747  0.07400525397505953  0.5575589433012544  1.0000
  C   C82       1.0  0.8169824701256698  0.10372638377086618  0.5235466499096608  1.0000
  C   C83       1.0  0.8329553412306084  0.11347309951838547  0.49047463426873594  1.0000
  C   C84       1.0  0.8537048981724594  0.09138398077244925  0.4895423716067456  1.0000
  H   H53       1.0  0.8476335418044453  0.02991637918564516  0.583864185222544  1.0000
  H   H54       1.0  0.8105324122470251  0.06709640295909547  0.5839512853987934  1.0000
  H   H55       1.0  0.8290448121061145  0.13683140433080787  0.4644514635508421  1.0000
  H   H56       1.0  0.8655860368007625  0.09782552338510775  0.4627553179060409  1.0000
  C   C85       1.0  0.9780370859056526  0.023892004439866277  0.39658316381883696  1.0000
  C   C86       1.0  0.0011698495360115135  0.030643408270415007  0.39263448127308126  1.0000
  C   C87       1.0  0.015312449302685271  0.025762770616830633  0.4307285583218856  1.0000
  C   C88       1.0  0.00639905711074773  0.013376240665149417  0.47262015398409113  1.0000
  C   C89       1.0  0.9833969630921887  0.005726286830897154  0.4763151620157386  1.0000
  C   C90       1.0  0.9692073121385603  0.011587852546353306  0.438538246850183  1.0000
  H   H57       1.0  0.008122412258151357  0.04013391312956682  0.3602781505530175  1.0000
  H   H58       1.0  0.033145064537634994  0.03124027240417293  0.4275493958898643  1.0000
  H   H59       1.0  0.9764182444693138  0.9963520602889901  0.5086925586102395  1.0000
  H   H60       1.0  0.9514104642656078  0.006999495404827361  0.44221299209517845  1.0000
  C   C91       1.0  0.8371685137603116  0.6593677371115778  0.30706772113476494  1.0000
  C   C92       1.0  0.8153016426770577  0.644115815091486  0.3058779999515363  1.0000
  C   C93       1.0  0.8033082895802056  0.6382852405371077  0.3463144432042011  1.0000
  C   C94       1.0  0.8130282944241897  0.6484692559739086  0.38788919247469233  1.0000
  C   C95       1.0  0.8348335659274133  0.6638655898818769  0.38909136549442946  1.0000
  C   C96       1.0  0.8469222327325135  0.6691123003170522  0.34874740539910537  1.0000
  H   H61       1.0  0.8076699522813159  0.6364969658041061  0.27370032294347485  1.0000
  H   H62       1.0  0.7865518058300607  0.6257440270867346  0.3452865436838356  1.0000
  H   H63       1.0  0.842181862571249  0.6726135548069606  0.42115037565405394  1.0000
  H   H64       1.0  0.8635509907757648  0.6815981941501591  0.34999712788385406  1.0000
  C   C97       1.0  0.9806537627066192  0.49879690531296944  0.3863755248723527  1.0000
  C   C98       1.0  0.967488577503975  0.5125341652249332  0.3493690507720685  1.0000
  C   C99       1.0  0.9530010556309322  0.5477910625904687  0.35340268523264146  1.0000
  C   C100      1.0  0.9508639406697236  0.5681344969033778  0.3950432259843383  1.0000
  C   C101      1.0  0.9629723120418738  0.552796727450064  0.43284952045154634  1.0000
  C   C102      1.0  0.9781167412552818  0.5184038551188046  0.4283855681830654  1.0000
  H   H65       1.0  0.9693826389920549  0.49727269248070755  0.3168873642463003  1.0000
  H   H66       1.0  0.943821171480361  0.5595117187197649  0.3239982383020335  1.0000
  H   H67       1.0  0.9613319891926314  0.5684883836423485  0.4651196653139521  1.0000
  H   H68       1.0  0.9881324460174258  0.5075639753306771  0.45718896975581275  1.0000
  C   C103      1.0  0.9226402414258937  0.82015442630792  0.284250949890123  1.0000
  C   C104      1.0  0.9282927509533249  0.8602984022476826  0.2989665465998147  1.0000
  C   C105      1.0  0.9115810586806157  0.8877957581408294  0.31629998757411437  1.0000
  C   C106      1.0  0.889197254553238  0.8751634379083263  0.3187975172677866  1.0000
  C   C107      1.0  0.8834632011477793  0.835611741724826  0.30274510270240207  1.0000
  C   C108      1.0  0.9001324969169661  0.808197156172364  0.2853738106810816  1.0000
  H   H69       1.0  0.9456809826812285  0.8696146636452432  0.2981313723443878  1.0000
  H   H70       1.0  0.916127366681789  0.9183761376441979  0.32845102845053076  1.0000
  H   H71       1.0  0.866187196827155  0.8260677002812837  0.3038780835185553  1.0000
  H   H72       1.0  0.8955537450565026  0.77784489803456  0.27265232750718227  1.0000
  C   C109      1.0  0.4048344807933771  0.12242314569639348  0.7174194973349606  1.0000
  C   C110      1.0  0.38725887574370815  0.15091525699158384  0.7062114102211223  1.0000
  C   C111      1.0  0.37614524048881187  0.148131677902277  0.6644340430057024  1.0000
  C   C112      1.0  0.38285054391408996  0.11738394967569299  0.633298291835546  1.0000
  C   C113      1.0  0.40049020526952517  0.08891153146844766  0.6442504663947065  1.0000
  C   C114      1.0  0.4112918766689047  0.09112004099490134  0.686598206945841  1.0000
  H   H73       1.0  0.3818135469632857  0.17453257211643056  0.7300413663044802  1.0000
  H   H74       1.0  0.36241531729369525  0.17002024838389812  0.6560935492217352  1.0000
  H   H75       1.0  0.40559184364746537  0.06483016626906934  0.6204380748998384  1.0000
  H   H76       1.0  0.42480380367559856  0.0688566251142686  0.695271657072005  1.0000
  C   C115      1.0  0.38411140166402613  0.6358298049053578  0.6057157787616874  1.0000
  C   C116      1.0  0.37766143437796895  0.6325890245590252  0.5602328246573608  1.0000
  C   C117      1.0  0.37923945134571946  0.6672755373032508  0.5307604789579338  1.0000
  C   C118      1.0  0.386501234141504  0.7057521564887733  0.5470943051542955  1.0000
  C   C119      1.0  0.3929678925161218  0.7090697476032112  0.5926321754130407  1.0000
  C   C120      1.0  0.3921967301113013  0.6738089542703636  0.6218028474181873  1.0000
  H   H77       1.0  0.37147741457270667  0.6031363586573164  0.5477738695520542  1.0000
  H   H78       1.0  0.3742419832889785  0.6644055369103111  0.49573882595878765  1.0000
  H   H79       1.0  0.39872943057459276  0.738761690385731  0.6052793772764844  1.0000
  H   H80       1.0  0.3972406991036719  0.6763267976804869  0.6569683327933327  1.0000
  C   C121      1.0  0.46040603670167135  0.44104547175563796  0.6868682676887918  1.0000
  C   C122      1.0  0.445430293301897  0.4279288661246099  0.7205026666633677  1.0000
  C   C123      1.0  0.4358250133209075  0.38816686017076535  0.7179665380329227  1.0000
  C   C124      1.0  0.44088369678050043  0.36193456233800614  0.6813991106573666  1.0000
  C   C125      1.0  0.4556030994071846  0.375319472060582  0.6474634538999083  1.0000
  C   C126      1.0  0.46566561214366353  0.41457629867052803  0.6506100475265119  1.0000
  H   H81       1.0  0.44165121843479477  0.4480299836625989  0.7490062425022652  1.0000
  H   H82       1.0  0.42455229049297183  0.3777502513658633  0.7442611337834059  1.0000
  H   H83       1.0  0.4595643335217967  0.3550095712370694  0.6191973171873948  1.0000
  H   H84       1.0  0.47725090393000824  0.42468133829198385  0.62459863789406  1.0000
  C   C127      1.0  0.6234767001217394  0.08655196748529836  0.11791160004544543  1.0000
  C   C128      1.0  0.6308036658692778  0.09492784226063078  0.161963270172866  1.0000
  C   C129      1.0  0.6174860629850781  0.08427398775205908  0.19942177168440706  1.0000
  C   C130      1.0  0.5969528623591521  0.06465883728615252  0.1929373872603862  1.0000
  C   C131      1.0  0.589875983805557  0.05520671728766957  0.1490480364484277  1.0000
  C   C132      1.0  0.6029942601194422  0.06665158969983853  0.11159320713936327  1.0000
  H   H85       1.0  0.6466370701819273  0.11030787807187226  0.16712216097632973  1.0000
  H   H86       1.0  0.6232037098463126  0.09104102760685673  0.2333701926939265  1.0000
  H   H87       1.0  0.5738958821048563  0.04035419003583996  0.14399007779391543  1.0000
  H   H88       1.0  0.5970314039513344  0.060740887794949794  0.0779966039105422  1.0000
  C   C133      1.0  0.5310177556447072  0.1563517515587906  0.9312085127832193  1.0000
  C   C134      1.0  0.5074379719483003  0.15932196783328853  0.9291393302586897  1.0000
  C   C135      1.0  0.49664503766512524  0.1906580309064211  0.9021994183519689  1.0000
  C   C136      1.0  0.5094221952885509  0.21970229986930273  0.8780761872466681  1.0000
  C   C137      1.0  0.5330138297131046  0.2170402809908928  0.8806272702551242  1.0000
  C   C138      1.0  0.5438164841482892  0.18511579226243258  0.9067309535624958  1.0000
  H   H89       1.0  0.49750132104080863  0.1370918580337217  0.9480284073441085  1.0000
  H   H90       1.0  0.4784687550623824  0.19265706077877678  0.9006476187334419  1.0000
  H   H91       1.0  0.5429733510879955  0.23943772962748652  0.862052012486722  1.0000
  H   H92       1.0  0.5620223096759397  0.1829908240521014  0.9081703586546457  1.0000
  C   C139      1.0  0.5539092136887445  0.6650971047375589  0.14912195068614076  1.0000
  C   C140      1.0  0.5515270401135073  0.6330846860621812  0.1175168431339444  1.0000
  C   C141      1.0  0.5569797354157365  0.5912577989226231  0.12963376319711112  1.0000
  C   C142      1.0  0.5643201906772437  0.5812862126369484  0.17368163477898252  1.0000
  C   C143      1.0  0.5658186544821511  0.6130839642608051  0.20589215882489298  1.0000
  C   C144      1.0  0.5607711111123781  0.6550555751963822  0.1935017825153583  1.0000
  H   H93       1.0  0.5453919750331254  0.640480028485369  0.08371410855101957  1.0000
  H   H94       1.0  0.5555655361070199  0.5666136648936103  0.1048123586127807  1.0000
  H   H95       1.0  0.5714385670013047  0.6055383534808206  0.2399834661279206  1.0000
  H   H96       1.0  0.5627381834875426  0.6798466664721836  0.21794426085459853  1.0000
  C   C145      1.0  0.5181494829517448  0.6550568863654982  0.8824778994263174  1.0000
  C   C146      1.0  0.5076112367656628  0.6949873119064488  0.881389017665925  1.0000
  C   C147      1.0  0.48955365517855837  0.703339022150261  0.8513850823148511  1.0000
  C   C148      1.0  0.4820687012733224  0.6718169895367944  0.8225362883734898  1.0000
  C   C149      1.0  0.49326949466460057  0.6325386113208004  0.8224772829431447  1.0000
  C   C150      1.0  0.5111442904599856  0.6240682674046533  0.8526249750393887  1.0000
  H   H97       1.0  0.5131561265685542  0.7192219553487466  0.9040228624664558  1.0000
  H   H98       1.0  0.4811108287405139  0.7339952029236592  0.8511520740728974  1.0000
  H   H99       1.0  0.48819699362872787  0.6086324472656349  0.7991876563688198  1.0000
  H   H100      1.0  0.5194852262042001  0.5933277691276138  0.8529793370956782  1.0000
  C   C151      1.0  0.569664726939372  0.8858498006211216  0.9394059057668569  1.0000
  C   C152      1.0  0.5649463285749141  0.9289770881491739  0.9333271478863286  1.0000
  C   C153      1.0  0.5819892431153216  0.9560914617687937  0.9198830823630124  1.0000
  C   C154      1.0  0.6037085480923974  0.9399896033667154  0.9114713978579253  1.0000
  C   C155      1.0  0.6083236351118473  0.8966313961010199  0.9161881007054683  1.0000
  C   C156      1.0  0.5913408788393126  0.8695623457176195  0.930533842883554  1.0000
  H   H101      1.0  0.5481754472792355  0.9416210351057253  0.9400449552137579  1.0000
  H   H102      1.0  0.5782741901266757  0.9894961604028878  0.9160064251369369  1.0000
  H   H103      1.0  0.6251618998046646  0.8841403924297079  0.9099715221153094  1.0000
  H   H104      1.0  0.5950929463023673  0.8362820259169051  0.9353858113210627  1.0000
  C   C157      1.0  0.7699109107551884  0.08838489486537116  0.765151402498734  1.0000
  C   C158      1.0  0.7732738178781927  0.05423570195484406  0.7361725182409549  1.0000
  C   C159      1.0  0.755869433345255  0.04187250895614181  0.70740617410802  1.0000
  C   C160      1.0  0.735156434599044  0.06394220230008374  0.7071334830765448  1.0000
  C   C161      1.0  0.7313247901100699  0.09645375737220857  0.7380325900366537  1.0000
  C   C162      1.0  0.7486386226157656  0.10839838059001172  0.7672598153351323  1.0000
  H   H105      1.0  0.7895280377797566  0.03796851438422055  0.7351489059320107  1.0000
  H   H106      1.0  0.7585604380673013  0.015367547558469585  0.6852806461506775  1.0000
  H   H107      1.0  0.7152280527503553  0.11326487449739107  0.7384788436505877  1.0000
  H   H108      1.0  0.7454631374360743  0.13295412841411242  0.7914866408145731  1.0000
  C   C163      1.0  0.7073938678425155  0.22519908630598337  0.897018862106283  1.0000
  C   C164      1.0  0.6922811786040416  0.20970121661409954  0.9292115602290485  1.0000
  C   C165      1.0  0.6721218053049225  0.19167646322337123  0.9152230554766138  1.0000
  C   C166      1.0  0.6667692189066802  0.1902402056777761  0.8690374323386554  1.0000
  C   C167      1.0  0.6817319028974644  0.20626742932653253  0.8368701368122909  1.0000
  C   C168      1.0  0.7021094817897053  0.223390789949671  0.8508011749234545  1.0000
  H   H109      1.0  0.6962494661182318  0.21123170810334482  0.9650122933428823  1.0000
  H   H110      1.0  0.6606027689060341  0.17942901495095398  0.9402299158296132  1.0000
  H   H111      1.0  0.6775416059356385  0.20546449271872635  0.8011379898744612  1.0000
  H   H112      1.0  0.7133890283538546  0.23618896321547922  0.8258104565868977  1.0000
  C   C169      1.0  0.7263431468895963  0.6237481419555458  0.6474294637433677  1.0000
  C   C170      1.0  0.7027762709890149  0.6262323222012669  0.6458326620857378  1.0000
  C   C171      1.0  0.6917426675904335  0.6409338106644682  0.6062084127665969  1.0000
  C   C172      1.0  0.7042676634036583  0.6524788716112744  0.5679879795474402  1.0000
  C   C173      1.0  0.7277960142535858  0.6496255620183462  0.5695481346810689  1.0000
  C   C174      1.0  0.7388059002940917  0.6357806141504385  0.6093598961769394  1.0000
  H   H113      1.0  0.6930722508182351  0.617387660678276  0.6752799949546017  1.0000
  H   H114      1.0  0.673535488635482  0.643080546100236  0.605165216450263  1.0000
  H   H115      1.0  0.7375977879646154  0.6578610390156394  0.5400897921867418  1.0000
  H   H116      1.0  0.7570241912868694  0.6337152435702536  0.6103720242847585  1.0000
  C   C175      1.0  0.6462220878053566  0.6121724909980187  0.8802992521723175  1.0000
  C   C176      1.0  0.6641466899300507  0.6371692785503217  0.8931880653640655  1.0000
  C   C177      1.0  0.6611751535025544  0.6664910418365677  0.9282730056563487  1.0000
  C   C178      1.0  0.6401902133438055  0.6712428671140012  0.9496596489581672  1.0000
  C   C179      1.0  0.6226309602568446  0.6452145619213644  0.9375690361377645  1.0000
  C   C180      1.0  0.6258052725824753  0.6152628143305083  0.9036771235251723  1.0000
  H   H117      1.0  0.6799876759471183  0.6349167531174142  0.8752356451900478  1.0000
  H   H118      1.0  0.6748382281534292  0.6865289636394795  0.937603708267123  1.0000
  H   H119      1.0  0.6064581954011207  0.6482580824202613  0.9538987135595679  1.0000
  H   H120      1.0  0.6122604222932557  0.5947907688861918  0.8950602859828066  1.0000
  C   C181      1.0  0.7171562187327073  0.3842416124792442  0.7281554911287103  1.0000
  C   C182      1.0  0.7367787053905815  0.40213170992860087  0.7113260080701227  1.0000
  C   C183      1.0  0.7564550876181817  0.37716111463034246  0.7060417784028373  1.0000
  C   C184      1.0  0.7566612486474825  0.3345497787461612  0.7187307723197085  1.0000
  C   C185      1.0  0.7369735399386695  0.3165718256065142  0.7351198220781245  1.0000
  C   C186      1.0  0.7171262108373934  0.34118789482739836  0.7388602559684744  1.0000
  H   H121      1.0  0.7366936166148863  0.4350601874587805  0.7016614185256459  1.0000
  H   H122      1.0  0.771607420676317  0.3911168636404542  0.693082154149398  1.0000
  H   H123      1.0  0.7368962532371386  0.2835965055943699  0.7444087710931752  1.0000
  H   H124      1.0  0.7018583174171362  0.3270650505599635  0.7510180713641424  1.0000
  C   C187      1.0  0.10729578534962217  0.08907085465385924  0.6648824562550236  1.0000
  C   C188      1.0  0.11127177871293548  0.0628682301012038  0.7026090558214562  1.0000
  C   C189      1.0  0.10218284063471557  0.07361891599463721  0.7448112386663079  1.0000
  C   C190      1.0  0.09046615336602119  0.11200293705538122  0.7503246163321861  1.0000
  C   C191      1.0  0.08682786379036656  0.13869015299854603  0.7126783642021022  1.0000
  C   C192      1.0  0.09481205892257916  0.12678097257656454  0.6697096635885396  1.0000
  H   H125      1.0  0.1209164765424137  0.03369354904009936  0.6990150714919781  1.0000
  H   H126      1.0  0.10453758579685973  0.052241358654684156  0.7730689846412512  1.0000
  H   H127      1.0  0.07761818117542618  0.16831708160551306  0.7166000230517855  1.0000
  H   H128      1.0  0.09164187097626808  0.14714871958237674  0.6405162295645147  1.0000
  C   C193      1.0  0.08294654429491999  0.6088330003438291  0.6508465440543235  1.0000
  C   C194      1.0  0.07460695880236523  0.5766152607105405  0.6782560344501505  1.0000
  C   C195      1.0  0.06137537162242035  0.545613964461177  0.6591782493841564  1.0000
  C   C196      1.0  0.056055765101931776  0.5472102527890714  0.6129328542950953  1.0000
  C   C197      1.0  0.06449633738306405  0.5792485561041342  0.5853566934312825  1.0000
  C   C198      1.0  0.07797879853123015  0.6101136852001933  0.6043701258184574  1.0000
  H   H129      1.0  0.07867031499900823  0.5751303409710691  0.7140592320623013  1.0000
  H   H130      1.0  0.0554575791090004  0.5200952685404456  0.680165256813606  1.0000
  H   H131      1.0  0.06024708611760544  0.5807014674494687  0.5496149897028236  1.0000
  H   H132      1.0  0.08423397108076246  0.6353342866139084  0.5832716348404197  1.0000
  C   C199      1.0  0.058216143720425835  0.8113225646942341  0.8142603497100293  1.0000
  C   C200      1.0  0.0758280595544989  0.8119303358102975  0.7828324807960565  1.0000
  C   C201      1.0  0.08820683049238398  0.8484949470852158  0.7765775953214051  1.0000
  C   C202      1.0  0.08288628302926479  0.8845562394328295  0.8015726782934427  1.0000
  C   C203      1.0  0.06454195554981702  0.884720280204186  0.8312723762856409  1.0000
  C   C204      1.0  0.052194923264992976  0.848087389522772  0.8375642777480432  1.0000
  H   H133      1.0  0.08000936742464781  0.7841351049805989  0.7635406612804315  1.0000
  H   H134      1.0  0.10225531144851296  0.8484297577233828  0.7532212592918532  1.0000
  H   H135      1.0  0.06016957105187149  0.9126707161719834  0.8502983785818325  1.0000
  H   H136      1.0  0.038418371094968824  0.8478482221283303  0.8615869226407492  1.0000
  C   C205      1.0  0.2561897573961908  0.09970119526132928  0.1146204836985465  1.0000
  C   C206      1.0  0.25481520975460487  0.06222319366282392  0.1399701551613235  1.0000
  C   C207      1.0  0.24584845568616223  0.06282413500151174  0.18400775503082345  1.0000
  C   C208      1.0  0.23844769678706593  0.10100242697142851  0.20270303425799796  1.0000
  C   C209      1.0  0.2408495174479451  0.13864841952681695  0.17822617263895218  1.0000
  C   C210      1.0  0.24971992624785763  0.138018111677592  0.13421297315125758  1.0000
  H   H137      1.0  0.2598593717418473  0.03254371628269914  0.12484495465530365  1.0000
  H   H138      1.0  0.244107397061814  0.03364656656297549  0.20288892860907146  1.0000
  H   H139      1.0  0.2353112986196794  0.1682791453010636  0.1928167673875915  1.0000
  H   H140      1.0  0.2511147251069819  0.16712334390197583  0.11508274025391828  1.0000
  C   C211      1.0  0.31406820130650226  0.24424566075330845  0.8841570003027247  1.0000
  C   C212      1.0  0.3223485857516459  0.2579580459289713  0.9257647764372043  1.0000
  C   C213      1.0  0.3443562122572926  0.2730472782939087  0.9286202010905766  1.0000
  C   C214      1.0  0.35820124686881266  0.2737929072913804  0.8901055412592234  1.0000
  C   C215      1.0  0.34972167196463116  0.260771314722625  0.8484743125184263  1.0000
  C   C216      1.0  0.3277118643153792  0.24617844337485667  0.8454979755869485  1.0000
  H   H141      1.0  0.31183808141703606  0.25694830391369244  0.9556830564668692  1.0000
  H   H142      1.0  0.35075366242751693  0.28353826298841417  0.9608808291524088  1.0000
  H   H143      1.0  0.35992577030207434  0.26241700510518884  0.8183660657011768  1.0000
  H   H144      1.0  0.321239130382382  0.23612170747743472  0.8131296876387765  1.0000
  C   C217      1.0  0.16758520985574002  0.15024611481337002  0.9508977234327525  1.0000
  C   C218      1.0  0.14407972065633173  0.14950287943704357  0.9481942137924108  1.0000
  C   C219      1.0  0.1328081326942231  0.11236273605879468  0.9580783290428225  1.0000
  C   C220      1.0  0.14497727267565486  0.07598340514454005  0.9713979438616748  1.0000
  C   C221      1.0  0.16850425642417607  0.07670491698099569  0.9744693664753437  1.0000
  C   C222      1.0  0.17983835208190962  0.1139017498577625  0.9643100043757968  1.0000
  H   H145      1.0  0.13453659884447688  0.17765748216123606  0.9382036940581627  1.0000
  H   H146      1.0  0.11463886387867508  0.11207233099244096  0.9559420355275555  1.0000
  H   H147      1.0  0.17796689403869237  0.04826934482200618  0.9837730771070725  1.0000
  H   H148      1.0  0.19805542997624329  0.11418324768594375  0.9657470529271803  1.0000
  C   C223      1.0  0.24705919955013547  0.6506526323649943  0.116776867337536  1.0000
  C   C224      1.0  0.22814843776794255  0.6256076677999322  0.11294860224335057  1.0000
  C   C225      1.0  0.21334773378625455  0.6216071159529543  0.14968284671593418  1.0000
  C   C226      1.0  0.21766078311177098  0.6422115008622996  0.1903588895304603  1.0000
  C   C227      1.0  0.23624040908372956  0.668093974524087  0.19370187120656687  1.0000
  C   C228      1.0  0.2508674528767048  0.6725058785937789  0.15683550102453372  1.0000
  H   H149      1.0  0.22484912520565084  0.609535363334018  0.08162484381635403  1.0000
  H   H150      1.0  0.19881830681625565  0.6020033037714325  0.1467691373109468  1.0000
  H   H151      1.0  0.2391570618023182  0.6853517773513796  0.22436173004453797  1.0000
  H   H152      1.0  0.26531833609919564  0.6923819930369272  0.15959034309976916  1.0000
  C   C229      1.0  0.32168998870978943  0.567750435887005  0.862148571557658  1.0000
  C   C230      1.0  0.3342934346987776  0.5764557294144663  0.8232219608261431  1.0000
  C   C231      1.0  0.3571027830126877  0.563858509587211  0.8210415659376191  1.0000
  C   C232      1.0  0.36745505137468415  0.5431849016322291  0.8580947123741159  1.0000
  C   C233      1.0  0.3547631890353823  0.5337362006859909  0.8966621385778193  1.0000
  C   C234      1.0  0.331864005516177  0.5456190529055093  0.8984734702650475  1.0000
  H   H153      1.0  0.32644826382637687  0.5929987659890747  0.7947270865550065  1.0000
  H   H154      1.0  0.36652271274479037  0.5698933706235068  0.7904546031902695  1.0000
  H   H155      1.0  0.3625728238116306  0.5171074769436951  0.9251392100292741  1.0000
  H   H156      1.0  0.3221386610485798  0.5375589970839018  0.9280315722623104  1.0000
  C   C235      1.0  0.15566692648055225  0.6292857320303129  0.9073625142179936  1.0000
  C   C236      1.0  0.15064331394131827  0.5883290832387245  0.8945095611393545  1.0000
  C   C237      1.0  0.16423969307802425  0.554032140764546  0.9097186966487358  1.0000
  C   C238      1.0  0.1828323351578108  0.560623247357161  0.9378717254993751  1.0000
  C   C239      1.0  0.18749453361944798  0.6014777178878514  0.9515269438503594  1.0000
  C   C240      1.0  0.1740512926903082  0.6357339712023252  0.9360620497154674  1.0000
  H   H157      1.0  0.1363805247663123  0.5830477579324042  0.8726871134024071  1.0000
  H   H158      1.0  0.16045523540232204  0.5224735073251243  0.8992382441073508  1.0000
  H   H159      1.0  0.2012559334131204  0.606723180672395  0.974582937846352  1.0000
  H   H160      1.0  0.17786081962786798  0.6672867406489135  0.9465619813002972  1.0000
  C   C241      1.0  0.2845660250894692  0.41312995226458926  0.055103752098284664  1.0000
  C   C242      1.0  0.2641093329282554  0.41930848343888066  0.07776657489994787  1.0000
  C   C243      1.0  0.2500525971566102  0.38527757656263123  0.0853978396526458  1.0000
  C   C244      1.0  0.2559604194519103  0.3454454463138877  0.06865474234975211  1.0000
  C   C245      1.0  0.27655183042629866  0.3390987248182159  0.046407773161738275  1.0000
  C   C246      1.0  0.2910132384283994  0.37289210948610396  0.04019117452143939  1.0000
  H   H161      1.0  0.2592066997812396  0.45025346958622897  0.0897246869677113  1.0000
  H   H162      1.0  0.2342020419835796  0.3901213463587559  0.10289476749922977  1.0000
  H   H163      1.0  0.2811996882899325  0.3083643660819783  0.033458206283983216  1.0000
  H   H164      1.0  0.30687399573672497  0.3681095660798893  0.022682691227346785  1.0000
  C   C247      1.0  0.8682863525199405  0.1515819721785861  0.18042024668232792  1.0000
  C   C248      1.0  0.8470724696897548  0.15988137684868908  0.19937243086064105  1.0000
  C   C249      1.0  0.8427554476788771  0.14845992864050084  0.244441390671881  1.0000
  C   C250      1.0  0.8594959544782758  0.12790901712352873  0.2705096512657217  1.0000
  C   C251      1.0  0.8807856655567877  0.11938206974501339  0.25165262793280374  1.0000
  C   C252      1.0  0.8852536044231634  0.13153254315147975  0.2065399897300982  1.0000
  H   H165      1.0  0.833977903715655  0.17548611764224908  0.17926228909260833  1.0000
  H   H166      1.0  0.82636248709683  0.15527954397923005  0.2589635863275535  1.0000
  H   H167      1.0  0.8938577089016674  0.10407740652233037  0.272004259559095  1.0000
  H   H168      1.0  0.9016914134494179  0.12529285579869134  0.19194739938197092  1.0000
  C   C253      1.0  0.901964422971938  0.18636592466121243  0.9150221452673301  1.0000
  C   C254      1.0  0.8834757061270456  0.17340158051552035  0.8896109928251984  1.0000
  C   C255      1.0  0.8647072095939712  0.20081694065621672  0.8831067595502795  1.0000
  C   C256      1.0  0.8646199408963391  0.24109630332977097  0.901875028363146  1.0000
  C   C257      1.0  0.8836606618333617  0.2548290198132928  0.9246999512792404  1.0000
  C   C258      1.0  0.9022743258286208  0.22747018873910818  0.9312483617253872  1.0000
  H   H169      1.0  0.8832241063939383  0.14160853493001038  0.8768454932021672  1.0000
  H   H170      1.0  0.8500658936271842  0.19021898364291603  0.8650528607243043  1.0000
  H   H171      1.0  0.8838311514528296  0.2862441765926339  0.9384195337547849  1.0000
  H   H172      1.0  0.9167672431032522  0.23793535293189183  0.9496422387654906  1.0000
  C   C259      1.0  0.008590707883014082  0.02238864021768605  0.9809597493809445  1.0000
  C   C260      1.0  0.023896590333968737  0.034700486748574955  0.014146941045843908  1.0000
  C   C261      1.0  0.015919442759495528  0.05193695668751519  0.05504648137507173  1.0000
  C   C262      1.0  0.9927065700151507  0.057972270191811955  0.062068895910380784  1.0000
  C   C263      1.0  0.9775111036975753  0.04563117927549243  0.02882368612857822  1.0000
  C   C264      1.0  0.9854232738055511  0.027152851649648646  0.9888028264554773  1.0000
  H   H173      1.0  0.04182586539427624  0.031071542290621593  0.008258230694633939  1.0000
  H   H174      1.0  0.027725962943465188  0.06167085097803771  0.08063181374288142  1.0000
  H   H175      1.0  0.9595936164713554  0.04991643779637034  0.034098094852013094  1.0000
  H   H176      1.0  0.9735319705100812  0.017404142600428107  0.9633728847150687  1.0000
  C   C265      1.0  0.9031235795532166  0.5186201940586809  0.09034543025885466  1.0000
  C   C266      1.0  0.9262824749323625  0.5092973534485679  0.08876993445880865  1.0000
  C   C267      1.0  0.941036731955526  0.5300815297550906  0.11766430658233684  1.0000
  C   C268      1.0  0.9326924263037791  0.5604886686950443  0.14776757491577502  1.0000
  C   C269      1.0  0.9094805471441777  0.5689224859294907  0.15021235177777623  1.0000
  C   C270      1.0  0.8946995745204118  0.5477287920785547  0.12177406629369436  1.0000
  H   H177      1.0  0.9328721074331587  0.486359773838735  0.06508760216882559  1.0000
  H   H178      1.0  0.958974585055961  0.523212763441097  0.11602872953182496  1.0000
  H   H179      1.0  0.9029048538981859  0.5923419435672117  0.17340078158108313  1.0000
  H   H180      1.0  0.8767754870029271  0.5548357256435354  0.12324503408632248  1.0000
  C   C271      1.0  0.826570021483585  0.49462161200630744  0.850730982579021  1.0000
  C   C272      1.0  0.8211946341438069  0.5045943247300954  0.8956162804954336  1.0000
  C   C273      1.0  0.7984770135993946  0.507049574562726  0.9092118677620205  1.0000
  C   C274      1.0  0.7812131922150858  0.4995738666979472  0.8779481820814692  1.0000
  C   C275      1.0  0.7868392255918499  0.4871550116253175  0.8340066029728965  1.0000
  C   C276      1.0  0.8094081051273401  0.48487082986893304  0.8203726424276925  1.0000
  H   H181      1.0  0.8344214173604999  0.5118203266114453  0.9193929566907918  1.0000
  H   H182      1.0  0.7942576364034655  0.516274506790304  0.9434737864321447  1.0000
  H   H183      1.0  0.7738702041304776  0.4793280193375616  0.8103324677085814  1.0000
  H   H184      1.0  0.8134979772635772  0.4763393641354447  0.7858461675145075  1.0000
  C   C277      1.0  0.9739570145773517  0.5861475799182982  0.8852050199175187  1.0000
  C   C278      1.0  0.9816404823973353  0.5442352961178551  0.8825719844659424  1.0000
  C   C279      1.0  0.004251633623063356  0.534973209834133  0.8718589379628823  1.0000
  C   C280      1.0  0.019225696000741976  0.567532213975409  0.8635927219830954  1.0000
  C   C281      1.0  0.011646554100601447  0.6094834313978715  0.8670749514223125  1.0000
  C   C282      1.0  0.9890194151096091  0.6187637597803853  0.8778515487694823  1.0000
  H   H185      1.0  0.9701328143348565  0.5188819380107265  0.8882516031730279  1.0000
  H   H186      1.0  0.01008154353846158  0.502483420494892  0.8693513118371518  1.0000
  H   H187      1.0  0.02311492573642049  0.634783065076683  0.8607109548590216  1.0000
  H   H188      1.0  0.9831388180123583  0.6512510350513433  0.8797529781541825  1.0000
  C   C283      1.0  0.9476434865458915  0.35602262828477665  0.9451795539675663  1.0000
  C   C284      1.0  0.9471783536070447  0.3120286271882772  0.9475252571552063  1.0000
  C   C285      1.0  0.95177901615829  0.29086380228106146  0.9887330314064758  1.0000
  C   C286      1.0  0.9571801401100166  0.31364063076712834  0.027428370945803637  1.0000
  C   C287      1.0  0.9591060249910429  0.35736773114914266  0.02426124780486627  1.0000
  C   C288      1.0  0.9540036500912283  0.37860030102463704  0.9833587925494397  1.0000
  H   H189      1.0  0.9424697079697967  0.29445441587158816  0.9179102592758008  1.0000
  H   H190      1.0  0.9505980980415474  0.25704711759964  0.9908081382730385  1.0000
  H   H191      1.0  0.9637825794328022  0.3750056650002587  0.05385541138483041  1.0000
  H   H192      1.0  0.9551201426867145  0.41239778146212414  0.9813832269820422  1.0000
  N   N1        1.0  0.30783473771728537  0.09130271651732147  0.29877583163572274  1.0000
  C   C289      1.0  0.3168444862971483  0.048570527031579935  0.2886649223623028  1.0000
  C   C290      1.0  0.2889424768435917  0.10221560736229973  0.267568359234144  1.0000
  C   C291      1.0  0.3258911982771797  0.12200166107484445  0.29271662853202396  1.0000
  C   C292      1.0  0.29978695647408826  0.09245241249311498  0.34623675342024973  1.0000
  H   H193      1.0  0.3038797895112041  0.024348127405391384  0.29386357772136895  1.0000
  H   H194      1.0  0.33138275583504495  0.039665460847511325  0.3111272485948169  1.0000
  H   H195      1.0  0.3227395690222016  0.04627499314113037  0.2529232312398939  1.0000
  H   H196      1.0  0.28160703094399425  0.134180868083142  0.27425047138001846  1.0000
  H   H197      1.0  0.294319010471041  0.10156673508924907  0.2313762044052594  1.0000
  H   H198      1.0  0.27500718379373457  0.07977698153442958  0.27124702409244006  1.0000
  H   H199      1.0  0.31974781996639756  0.15460458551677325  0.30026085643105715  1.0000
  H   H200      1.0  0.3323771986899349  0.12200845399614768  0.2572739081497084  1.0000
  H   H201      1.0  0.3404391015347386  0.11451199400070378  0.3157296309095776  1.0000
  H   H202      1.0  0.29248061490765526  0.12396414694867386  0.35490635472316256  1.0000
  H   H203      1.0  0.31374196429386997  0.08510797659751934  0.37063171528250627  1.0000
  H   H204      1.0  0.2865198856232904  0.06900399838119187  0.35254826657236027  1.0000
  N   N2        1.0  0.8725221942363717  0.550350326892278  0.39553273760973495  1.0000
  C   C293      1.0  0.8612263398309505  0.5217205795523635  0.42762654399722033  1.0000
  C   C294      1.0  0.8575902564460108  0.5592845581047065  0.3561194192854624  1.0000
  C   C295      1.0  0.8938472867652139  0.5303042138915975  0.3798892904395459  1.0000
  C   C296      1.0  0.8774160994402765  0.5901488524813663  0.41860792690585014  1.0000
  H   H205      1.0  0.8719567231132226  0.514710552710867  0.45798203024721734  1.0000
  H   H206      1.0  0.8573960701877475  0.4912500356468875  0.4114402784614787  1.0000
  H   H207      1.0  0.8449700235254721  0.535905432796671  0.43981081929950716  1.0000
  H   H208      1.0  0.8538063699257316  0.5301160949943368  0.33738413876397055  1.0000
  H   H209      1.0  0.8412150113510903  0.5739045788324413  0.366816396237067  1.0000
  H   H210      1.0  0.8653672143589134  0.5814832925468542  0.33151626685825386  1.0000
  H   H211      1.0  0.8909268303873524  0.5003230349712133  0.361960770414432  1.0000
  H   H212      1.0  0.9056133524553656  0.5233336915224447  0.408698910184916  1.0000
  H   H213      1.0  0.9028435326944507  0.5513792487268117  0.35609255093371295  1.0000
  H   H214      1.0  0.8844779053485893  0.6137011220571839  0.3945642391866121  1.0000
  H   H215      1.0  0.8900596679189222  0.585158347877034  0.4462763413767425  1.0000
  H   H216      1.0  0.8619732206510111  0.6045186183194845  0.4339218978491512  1.0000
  N   N3        1.0  0.16669490477460314  0.5296155794753766  0.2803717712866165  1.0000
  C   C297      1.0  0.14639265499861565  0.5116780678207565  0.25987737211686507  1.0000
  C   C298      1.0  0.1615305435683263  0.5734052904371391  0.29416113499451985  1.0000
  C   C299      1.0  0.18516632750642525  0.5292338492785981  0.24677023255295327  1.0000
  C   C300      1.0  0.17358899492188962  0.5042124048604602  0.3207173112008547  1.0000
  H   H217      1.0  0.14963713672877899  0.4785710699692019  0.24917999928022752  1.0000
  H   H218      1.0  0.1407590010324118  0.5302268783957809  0.2293738552304181  1.0000
  H   H219      1.0  0.1320887307851073  0.5116392825945022  0.2843456719062355  1.0000
  H   H220      1.0  0.1761743883393001  0.5874351334558866  0.3115286811966538  1.0000
  H   H221      1.0  0.1572941447039895  0.5940679754008418  0.2643529821588475  1.0000
  H   H222      1.0  0.14701472106683644  0.5750059705729229  0.31788693827570863  1.0000
  H   H223      1.0  0.2007229212948196  0.5425947148374844  0.2610975195004821  1.0000
  H   H224      1.0  0.18066257933205843  0.5487561710534036  0.21620754915803894  1.0000
  H   H225      1.0  0.18947604529768536  0.49675859496107966  0.23533370547096333  1.0000
  H   H226      1.0  0.1882475662368286  0.5179572075997119  0.3383781494402408  1.0000
  H   H227      1.0  0.178470188128925  0.4713430079948792  0.3115372959648278  1.0000
  H   H228      1.0  0.15968651751177254  0.502621648072999  0.3458769213886416  1.0000
  N   N4        1.0  0.8464126220542054  0.9196607047047736  0.49889522760236166  1.0000
  C   C301      1.0  0.8481869325212769  0.9270190269696623  0.5482068149844141  1.0000
  C   C302      1.0  0.832464408150919  0.9538864313468552  0.47776737230587063  1.0000
  C   C303      1.0  0.8358232457741521  0.8788369642906683  0.4910955156200174  1.0000
  C   C304      1.0  0.8691359753118719  0.9189188572735325  0.4784863087670714  1.0000
  H   H229      1.0  0.8582587715705806  0.9015074695797248  0.5655668751547825  1.0000
  H   H230      1.0  0.8312161291702559  0.9286654480958992  0.5643940978678912  1.0000
  H   H231      1.0  0.8565350914525576  0.9572921334891644  0.5550885582492693  1.0000
  H   H232      1.0  0.8309578862484541  0.9497429967703355  0.44043332046408523  1.0000
  H   H233      1.0  0.8151157199352388  0.9549838787952741  0.49206817593946933  1.0000
  H   H234      1.0  0.839827882144558  0.98519726805564  0.4838039863522934  1.0000
  H   H235      1.0  0.8336096591429971  0.87300836273005  0.45418209946597776  1.0000
  H   H236      1.0  0.8189454313697085  0.8779838083914477  0.5071902019378616  1.0000
  H   H237      1.0  0.846143311702157  0.8521960038082544  0.5057307299014783  1.0000
  H   H238      1.0  0.8683974098990215  0.9138305256071022  0.4411912972588381  1.0000
  H   H239      1.0  0.8801273736649541  0.8934364325635709  0.4935239260910757  1.0000
  H   H240      1.0  0.8776912789424907  0.9490976206442934  0.4839429904861232  1.0000
  N   N5        1.0  0.1790584900675929  0.09250282114760823  0.10944147338728948  1.0000
  C   C305      1.0  0.16707781509414676  0.1302338438399289  0.0904969880956261  1.0000
  C   C306      1.0  0.16504088471815836  0.05516694833024616  0.10365598294985777  1.0000
  C   C307      1.0  0.18352441800895702  0.09869989637209385  0.15827362268441358  1.0000
  C   C308      1.0  0.20067707423222214  0.08598133704613375  0.08541433621138504  1.0000
  H   H241      1.0  0.17742113440260177  0.15883048684772802  0.09342567242574783  1.0000
  H   H242      1.0  0.1508328786702895  0.13650379786241085  0.10826368217729464  1.0000
  H   H243      1.0  0.16313417287848475  0.12644446674781054  0.05387494724299579  1.0000
  H   H244      1.0  0.17368704241934552  0.026126828924561307  0.11730931191384153  1.0000
  H   H245      1.0  0.14858755323694894  0.05894417369981797  0.12139106891152251  1.0000
  H   H246      1.0  0.16123575686001979  0.049667017067150265  0.06718638023785493  1.0000
  H   H247      1.0  0.19305047199444458  0.07129173212409269  0.1735615446535117  1.0000
  H   H248      1.0  0.167646562472606  0.10303264316081576  0.17785405996391412  1.0000
  H   H249      1.0  0.1938049089301619  0.12698915523130633  0.16386341641290914  1.0000
  H   H250      1.0  0.21057317183915591  0.05859029330144816  0.09963640806039509  1.0000
  H   H251      1.0  0.21134574717279664  0.11405438365299195  0.08789040089803324  1.0000
  H   H252      1.0  0.1981524413964384  0.08017756800096154  0.04872866736645398  1.0000
  N   N6        1.0  0.0195818534229657  0.5976336265036544  0.3226411681567966  1.0000
  C   C309      1.0  0.04248797228020029  0.5821244154349845  0.3352847803950604  1.0000
  C   C310      1.0  0.006138495851176096  0.6041924115180565  0.3642492059966436  1.0000
  C   C311      1.0  0.008720476992127635  0.5661978901087603  0.29384558891380935  1.0000
  C   C312      1.0  0.020978474180354256  0.6379609801677973  0.29734347651654364  1.0000
  H   H253      1.0  0.053303107899209  0.5772251301961133  0.3049328836583527  1.0000
  H   H254      1.0  0.04201513849693228  0.5514148792473922  0.35396372181313057  1.0000
  H   H255      1.0  0.051074224395206924  0.604597277085937  0.35782679931297956  1.0000
  H   H256      1.0  0.013630074364630929  0.6281168594936595  0.38657469343129386  1.0000
  H   H257      1.0  0.9885402107292507  0.6149861867698556  0.35621875996468105  1.0000
  H   H258      1.0  0.0051869326016698025  0.5745692349350457  0.3845219940068785  1.0000
  H   H259      1.0  0.9910000414819119  0.5758761511463927  0.28527383583778515  1.0000
  H   H260      1.0  0.00829551055012323  0.5348885571172142  0.3112694390717157  1.0000
  H   H261      1.0  0.017900533326094648  0.5616032114156074  0.2613324306024646  1.0000
  H   H262      1.0  0.003933438949678347  0.6503505815007888  0.2872845647660752  1.0000
  H   H263      1.0  0.031027234469242382  0.6342510319957018  0.2657320208244043  1.0000
  H   H264      1.0  0.028978625146807824  0.6624488657414371  0.3182095585362484  1.0000
  N   N7        1.0  0.6174873509320458  0.3362912257511919  0.3438312803700001  1.0000
  C   C313      1.0  0.6070557920528672  0.3222524285598478  0.3012191558000042  1.0000
  C   C314      1.0  0.6281118154440996  0.299596072036418  0.3676855578494766  1.0000
  C   C315      1.0  0.5999637198278416  0.35568301475575476  0.3730893205889039  1.0000
  C   C316      1.0  0.6347641461765093  0.36760661177170595  0.33330276780951795  1.0000
  H   H265      1.0  0.598503012491015  0.3490014760758744  0.28267739259287106  1.0000
  H   H266      1.0  0.5941445479118126  0.29818898965842894  0.30795010577890014  1.0000
  H   H267      1.0  0.6197568711352462  0.3078372464387332  0.2779815895248828  1.0000
  H   H268      1.0  0.6363362681986467  0.308954471509035  0.3998387377454886  1.0000
  H   H269      1.0  0.6155068337672664  0.27545026587705995  0.3763375636651364  1.0000
  H   H270      1.0  0.6412002583645493  0.28371678048191906  0.34634260269426853  1.0000
  H   H271      1.0  0.5914977689744259  0.38332065816410194  0.35601453459837995  1.0000
  H   H272      1.0  0.6071599303249022  0.3670080366428328  0.4054668027130276  1.0000
  H   H273      1.0  0.5865685913251962  0.3330624331441324  0.38163020559446864  1.0000
  H   H274      1.0  0.6426765749986945  0.3796712846197627  0.3647171127187252  1.0000
  H   H275      1.0  0.627368647602861  0.39550402831572884  0.3148107751925741  1.0000
  H   H276      1.0  0.6484323289197337  0.35404305786575613  0.3117356578057994  1.0000
  N   N8        1.0  0.614955916291249  0.11373722966604796  0.501529992098394  1.0000
  C   C317      1.0  0.5927770304506873  0.0938331266377781  0.49926751476583614  1.0000
  C   C318      1.0  0.632418393863152  0.08457453867761466  0.4832339053184545  1.0000
  C   C319      1.0  0.6203370702557267  0.12336333742727446  0.5492270557477791  1.0000
  C   C320      1.0  0.6142871962916912  0.15319316549332662  0.4743119719609265  1.0000
  H   H277      1.0  0.5790401512639403  0.11527587577374399  0.5118164102531332  1.0000
  H   H278      1.0  0.5924713439605991  0.064266129273028  0.51987587539404  1.0000
  H   H279      1.0  0.5883592375848552  0.08572526701481788  0.4637274898263337  1.0000
  H   H280      1.0  0.6333628550178162  0.054276370276941106  0.5026112596743109  1.0000
  H   H281      1.0  0.6289906099797178  0.07702864898165807  0.44709595987374945  1.0000
  H   H282      1.0  0.6494015642147046  0.09844938521745586  0.4846205282499204  1.0000
  H   H283      1.0  0.6210631835207833  0.09427453981669999  0.5707429926419529  1.0000
  H   H284      1.0  0.6074198264664081  0.14523087316858074  0.5640638260947635  1.0000
  H   H285      1.0  0.6369807158277353  0.1385140093673105  0.5520141344494411  1.0000
  H   H286      1.0  0.6011244123162358  0.17585203207957495  0.48674597882020854  1.0000
  H   H287      1.0  0.6103768941360418  0.14709882153642675  0.4381325820431886  1.0000
  H   H288      1.0  0.6307957142303544  0.1690276620369428  0.47486650379401835  1.0000
  N   N9        1.0  0.11302069307110774  0.8005299628621769  0.9180668365239614  1.0000
  C   C321      1.0  0.10763399193020295  0.8448075673630548  0.9050906674506741  1.0000
  C   C322      1.0  0.10777053810990234  0.7937078773626919  0.9665699027297227  1.0000
  C   C323      1.0  0.1372167174012613  0.7911719853618353  0.9101132059738967  1.0000
  C   C324      1.0  0.09943001719369349  0.7722198604688778  0.8903731206002325  1.0000
  H   H289      1.0  0.11184661882624947  0.8511519283285021  0.8688687923301308  1.0000
  H   H290      1.0  0.11719238208009508  0.8672651259661665  0.9258932487639249  1.0000
  H   H291      1.0  0.0893596834826722  0.852592658389366  0.9094129763165887  1.0000
  H   H292      1.0  0.11149261787191245  0.7604067116323422  0.9771575768122013  1.0000
  H   H293      1.0  0.11781947308215357  0.8143667489805989  0.9886038145031179  1.0000
  H   H294      1.0  0.08960760674295543  0.8005665658492285  0.9735553277141441  1.0000
  H   H295      1.0  0.14153143379605848  0.7946835272505421  0.8735047415222111  1.0000
  H   H296      1.0  0.14191391472349935  0.7581766382180712  0.9203514146379025  1.0000
  H   H297      1.0  0.1480513860750856  0.8125366082565548  0.929641822464834  1.0000
  H   H298      1.0  0.10341281088460064  0.7385079873302219  0.8985531641195215  1.0000
  H   H299      1.0  0.10266337464157882  0.7770185161667628  0.8535496382448602  1.0000
  H   H300      1.0  0.08103145401838274  0.7777268033930679  0.8959026859617852  1.0000
  N   N10       1.0  0.9734486967399518  0.1374314652919931  0.5012568862182814  1.0000
  C   C325      1.0  0.9686633123482941  0.18212476143673464  0.5120593556816375  1.0000
  C   C326      1.0  0.9522057403692378  0.11414147671358948  0.5013907119860351  1.0000
  C   C327      1.0  0.9890673698120834  0.11876863069616167  0.5356219452045933  1.0000
  C   C328      1.0  0.9839528839566247  0.13472891993113517  0.45590575023622  1.0000
  H   H301      1.0  0.9570878808815072  0.19735978620500297  0.48660442155554146  1.0000
  H   H302      1.0  0.9844272826520488  0.20044848122818615  0.5125242350412412  1.0000
  H   H303      1.0  0.9607308146583438  0.18540477525574434  0.5460745401898649  1.0000
  H   H304      1.0  0.9400817665885485  0.12706529655804785  0.47553035721572673  1.0000
  H   H305      1.0  0.9552787414287913  0.080286106672802  0.49353639284252737  1.0000
  H   H306      1.0  0.943740694037224  0.11550668458243243  0.5350421121765284  1.0000
  H   H307      1.0  0.9930551418976632  0.08503535024136988  0.5285928898823384  1.0000
  H   H308      1.0  0.9818053263881242  0.12043398070269669  0.570342427585878  1.0000
  H   H309      1.0  0.0053280191674125454  0.1354311173448458  0.5361786474718683  1.0000
  H   H310      1.0  0.9884485586059512  0.10155668199678877  0.4473169810056235  1.0000
  H   H311      1.0  0.9997007306523747  0.15293844395266887  0.4542939893315576  1.0000
  H   H312      1.0  0.9723977424978865  0.1471857710580994  0.4288086387001829  1.0000
  N   N11       1.0  0.3193294394890072  0.7310880144310526  0.41209978208214393  1.0000
  C   C329      1.0  0.34353856889392054  0.7230004457056425  0.42142349543183205  1.0000
  C   C330      1.0  0.3166625738491549  0.7543653412606108  0.3685367821609018  1.0000
  C   C331      1.0  0.30933318471691923  0.7563295045613371  0.44914007335560857  1.0000
  C   C332      1.0  0.30780802325762796  0.6905318756453743  0.4093123111810189  1.0000
  H   H313      1.0  0.35279351901416395  0.7528175925707333  0.4241798882260377  1.0000
  H   H314      1.0  0.35162661061716455  0.7042741303495473  0.3939007018784672  1.0000
  H   H315      1.0  0.3461846753492912  0.7052027074307218  0.45386281442381154  1.0000
  H   H316      1.0  0.3245153337194952  0.7365990181045742  0.3400538581325045  1.0000
  H   H317      1.0  0.29856583962248573  0.7599898448480807  0.35980116361106335  1.0000
  H   H318      1.0  0.32477802839299835  0.7854782381443153  0.3695436163112305  1.0000
  H   H319      1.0  0.3176358691111148  0.7871157495129584  0.4522643077453104  1.0000
  H   H320      1.0  0.3109978065240328  0.7395058065432719  0.48242851423401223  1.0000
  H   H321      1.0  0.29105301921399923  0.7629809951082123  0.44314614933553276  1.0000
  H   H322      1.0  0.28955723226757674  0.6953130351799074  0.4015707964968546  1.0000
  H   H323      1.0  0.30924706188801954  0.6721653964580794  0.4416601550333378  1.0000
  H   H324      1.0  0.3151420396856691  0.6705637054475936  0.3821352907566975  1.0000
  N   N12       1.0  0.5089478373282417  0.36695008971458926  0.7709339922133467  1.0000
  C   C333      1.0  0.5093060330386928  0.37529162750012524  0.8202013819409478  1.0000
  C   C334      1.0  0.5277144626330302  0.33744516305714123  0.7594543326363025  1.0000
  C   C335      1.0  0.5112841087980796  0.4070178842662404  0.7454634725464004  1.0000
  C   C336      1.0  0.4873658839774898  0.34798987185455493  0.758667539891618  1.0000
  H   H325      1.0  0.5074554934746233  0.34575728423780494  0.840472030422922  1.0000
  H   H326      1.0  0.49526576374800174  0.39722974100292346  0.8301188649582897  1.0000
  H   H327      1.0  0.525403436299155  0.3894548009005874  0.830718284144581  1.0000
  H   H328      1.0  0.5277591186463187  0.33009265465205356  0.722616611057548  1.0000
  H   H329      1.0  0.5443305512948949  0.35063318704832325  0.768119480520854  1.0000
  H   H330      1.0  0.5263416165823609  0.30698876667760444  0.7784859078441612  1.0000
  H   H331      1.0  0.5275179386448731  0.4220778374977633  0.7532280227035622  1.0000
  H   H332      1.0  0.49746386972114337  0.4300460423565985  0.7539202386031184  1.0000
  H   H333      1.0  0.5105070964277169  0.40221577903937783  0.7081095389109776  1.0000
  H   H334      1.0  0.4728257412295023  0.36807927183850125  0.7696168454288377  1.0000
  H   H335      1.0  0.4855443225739759  0.31658052166624734  0.7750709069558889  1.0000
  H   H336      1.0  0.4858887872969682  0.3434351629986781  0.7213994545322493  1.0000
  N   N13       1.0  0.4986720856963338  0.6576506037717319  0.2622169591398305  1.0000
  C   C337      1.0  0.47851858000740993  0.6316531045539492  0.26732362226362066  1.0000
  C   C338      1.0  0.495644053947904  0.6965265666978007  0.28888571909668354  1.0000
  C   C339      1.0  0.5018237227717753  0.6690052350720915  0.2138469801791337  1.0000
  C   C340      1.0  0.5187032385265643  0.6334012438860767  0.27890825406226444  1.0000
  H   H337      1.0  0.46301165853681076  0.6488465270503553  0.2551778062720729  1.0000
  H   H338      1.0  0.47566154133300165  0.6227206356294009  0.30359043673584474  1.0000
  H   H339      1.0  0.48029334417639535  0.6019104130419944  0.24788757000449954  1.0000
  H   H340      1.0  0.5107123601596255  0.7165537245271425  0.28663182985550417  1.0000
  H   H341      1.0  0.4808432263610871  0.7158900400851008  0.27677393634283876  1.0000
  H   H342      1.0  0.4928370211680242  0.6892105384528856  0.3253833708548156  1.0000
  H   H343      1.0  0.5163706082223868  0.6900462048628645  0.20916931795412344  1.0000
  H   H344      1.0  0.48671922404870155  0.6860151396646502  0.1995893710561619  1.0000
  H   H345      1.0  0.5051769345925513  0.6406203966265723  0.1928004690383036  1.0000
  H   H346      1.0  0.5163347059958593  0.6222347192972125  0.31439518034359576  1.0000
  H   H347      1.0  0.534072674908434  0.652672351539085  0.27838236426346186  1.0000
  H   H348      1.0  0.5222146859980312  0.6049765042747315  0.25802484841782025  1.0000
  N   N14       1.0  0.7867148765072798  0.10429506613499313  0.3755029031856153  1.0000
  C   C341      1.0  0.787791294689761  0.09712067265551612  0.3260589091023459  1.0000
  C   C342      1.0  0.7630799250917883  0.10225633057760607  0.3910524773559234  1.0000
  C   C343      1.0  0.7955084177787479  0.14627716127063226  0.38557372727670397  1.0000
  C   C344      1.0  0.8005863019757824  0.07156179826957976  0.3993789334954371  1.0000
  H   H349      1.0  0.7811935857940914  0.06579606031722918  0.3172038673873566  1.0000
  H   H350      1.0  0.8054758906346071  0.09813664893350581  0.31348452525016557  1.0000
  H   H351      1.0  0.7777590149016902  0.12151594448523545  0.30681195469958567  1.0000
  H   H352      1.0  0.7617198051385734  0.10828809215596769  0.42816203113035256  1.0000
  H   H353      1.0  0.7520464586505656  0.12613406456115236  0.37328159754659807  1.0000
  H   H354      1.0  0.7559576470556264  0.07073790562887527  0.3848507605262799  1.0000
  H   H355      1.0  0.794578886031387  0.15296760315354627  0.4225528191339352  1.0000
  H   H356      1.0  0.7857647320801592  0.17175381357273045  0.3674200098937926  1.0000
  H   H357      1.0  0.8134931277992775  0.14859575316852583  0.3751818218483659  1.0000
  H   H358      1.0  0.7996570325693089  0.0752931685324083  0.43680531281984214  1.0000
  H   H359      1.0  0.818669406978525  0.0733125879400418  0.3895798754866115  1.0000
  H   H360      1.0  0.7948982804185953  0.03936357537096136  0.39156746119246294  1.0000
  N   N15       1.0  0.6387427487307006  0.6086641631985646  0.4378855240393714  1.0000
  C   C345      1.0  0.6354776157393884  0.5641184611926499  0.426384776382587  1.0000
  C   C346      1.0  0.658284230444918  0.6247107385119931  0.41261118003503333  1.0000
  C   C347      1.0  0.6429242252549555  0.6120202941964298  0.487167886929148  1.0000
  C   C348      1.0  0.6182535753787559  0.6337139845140778  0.42533380897502876  1.0000
  H   H361      1.0  0.6210082635158318  0.5507519047447879  0.4450988492600583  1.0000
  H   H362      1.0  0.6507114511249042  0.5441698320574722  0.4345281326195773  1.0000
  H   H363      1.0  0.6319691516672433  0.5606687881790166  0.3895392810835756  1.0000
  H   H364      1.0  0.6612639728015572  0.6582523048791757  0.42056268754749504  1.0000
  H   H365      1.0  0.6740488805647792  0.6065592142426381  0.42142330505847  1.0000
  H   H366      1.0  0.6558408514012668  0.6224064754791496  0.3752264238327641  1.0000
  H   H367      1.0  0.6449791558164994  0.6453795324955874  0.49716711136369135  1.0000
  H   H368      1.0  0.658679373137982  0.594480673879282  0.4975051787034196  1.0000
  H   H369      1.0  0.6288069692994679  0.5991978427264317  0.5073901209268139  1.0000
  H   H370      1.0  0.620088709989931  0.6676466362160004  0.43299513900316283  1.0000
  H   H371      1.0  0.6031894016717178  0.6225493247775031  0.44397928333724734  1.0000
  H   H372      1.0  0.6143919653847039  0.6312997662137344  0.3884285829827617  1.0000
  N   N16       1.0  0.9509929666988024  0.005443486452040958  0.2125811602779924  1.0000
  C   C349      1.0  0.9473442196872887  0.9942567246300485  0.1646114545712816  1.0000
  C   C350      1.0  0.9384444013060793  0.04513139106330044  0.22254124479650425  1.0000
  C   C351      1.0  0.9752942096476854  0.011272159388629577  0.2206754184948419  1.0000
  C   C352      1.0  0.9429467211536019  0.9712016804454635  0.2424233939671758  1.0000
  H   H373      1.0  0.9568757944787322  0.9648576094606585  0.15566184562680574  1.0000
  H   H374      1.0  0.9530540042885013  0.01955274264562923  0.14115114175493282  1.0000
  H   H375      1.0  0.9292009948621754  0.989395519763392  0.1573950394959681  1.0000
  H   H376      1.0  0.9200175811212216  0.04209880010847167  0.21689787432288843  1.0000
  H   H377      1.0  0.940899901223252  0.05455482321587968  0.258483777734255  1.0000
  H   H378      1.0  0.9442253142645426  0.07154512770550414  0.20055748179340738  1.0000
  H   H379      1.0  0.985365504908954  0.982071404107701  0.21346809569336822  1.0000
  H   H380      1.0  0.9786087607900683  0.01986018938548817  0.2565970317550479  1.0000
  H   H381      1.0  0.9819139329959604  0.036900669671144026  0.19866158834462513  1.0000
  H   H382      1.0  0.9520240837919387  0.9407738042662146  0.23570032914167222  1.0000
  H   H383      1.0  0.9246209971124866  0.9661217416179153  0.23761261180480314  1.0000
  H   H384      1.0  0.9456159140025083  0.9783953509723239  0.27889136918536794  1.0000
  N   N17       1.0  0.5826077794106386  0.6647236449783906  0.8056409651203935  1.0000
  C   C353      1.0  0.56283459180308  0.6926776010154941  0.8147337100219094  1.0000
  C   C354      1.0  0.6031697757149064  0.6839041891718631  0.8235737958617754  1.0000
  C   C355      1.0  0.5849647193717001  0.6587150309279024  0.7562101068307354  1.0000
  C   C356      1.0  0.5795080369181771  0.6234184689073496  0.8280851097630704  1.0000
  H   H385      1.0  0.5469580178803767  0.6790708188289948  0.801997199582293  1.0000
  H   H386      1.0  0.5645607818568099  0.7242726599165584  0.7985867894914405  1.0000
  H   H387      1.0  0.560567010788176  0.6975588098560428  0.851801880916564  1.0000
  H   H388      1.0  0.6184149997303033  0.6634764611162336  0.8174684180798609  1.0000
  H   H389      1.0  0.6060808791104679  0.7151896517580031  0.8075946743833557  1.0000
  H   H390      1.0  0.6019986291848366  0.6886518402310521  0.860885827402764  1.0000
  H   H391      1.0  0.5998162600954623  0.63778459239742  0.7484217452294165  1.0000
  H   H392      1.0  0.5872932839303322  0.6892536722916603  0.7381172283409716  1.0000
  H   H393      1.0  0.569776450184314  0.6440113388376734  0.7417158922205702  1.0000
  H   H394      1.0  0.5938786587217099  0.6011224679872035  0.8210131497163504  1.0000
  H   H395      1.0  0.5637007516550846  0.6086416335714269  0.8168018500414186  1.0000
  H   H396      1.0  0.5783541773977555  0.6266739597306556  0.8655729256987302  1.0000
  N   N18       1.0  0.9425343050364816  0.6399290210216843  0.027133216528733017  1.0000
  C   C357      1.0  0.9232376606185836  0.65886295086186  0.0016229257496134242  1.0000
  C   C358      1.0  0.9410749256762865  0.6523373721472412  0.07527793959604079  1.0000
  C   C359      1.0  0.9638523038134413  0.6546050241201757  0.007373693460569486  1.0000
  C   C360      1.0  0.9419342441966586  0.5936058556928397  0.02424506457176867  1.0000
  H   H397      1.0  0.9231633527699951  0.6938597616672013  0.0028223910529789897  1.0000
  H   H398      1.0  0.9069033421415017  0.648216966701951  0.01563247343609353  1.0000
  H   H399      1.0  0.9237892524740813  0.6497335269050414  0.9652245441198993  1.0000
  H   H400      1.0  0.9253903115088328  0.6409162300698602  0.0914749352449582  1.0000
  H   H401      1.0  0.955464127408136  0.6386891380790768  0.09544612902253569  1.0000
  H   H402      1.0  0.9411863735377497  0.6871391412785277  0.07902313827217022  1.0000
  H   H403      1.0  0.9653853155955097  0.6457465046856706  0.9709838829349602  1.0000
  H   H404      1.0  0.9787368384427656  0.6403538682448662  0.025471400926259324  1.0000
  H   H405      1.0  0.9649788952235816  0.6894539161506861  0.009100918483588405  1.0000
  H   H406      1.0  0.95582532970395  0.5781082441447888  0.04424104985910082  1.0000
  H   H407      1.0  0.9437917905809382  0.5828621136640936  0.9887262927190149  1.0000
  H   H408      1.0  0.9256729669211302  0.5816697606300438  0.03707387645321636  1.0000
  N   N19       1.0  0.06016416725172568  0.9785959854493811  0.6793807062909146  1.0000
  C   C361      1.0  0.08475904663566383  0.970101504312156  0.6781011209200889  1.0000
  C   C362      1.0  0.050436818028529284  0.9715658288773733  0.6339091996052312  1.0000
  C   C363      1.0  0.055667911336817255  0.022792205371591656  0.6925932926416958  1.0000
  C   C364      1.0  0.04989365315290395  0.9499969655627252  0.7130201818070582  1.0000
  H   H409      1.0  0.09263861827667479  0.9755763657286074  0.7118094576611037  1.0000
  H   H410      1.0  0.09310189075765643  0.9908035499904692  0.6527556625393199  1.0000
  H   H411      1.0  0.08879927632621491  0.9368093437020238  0.6691221095684727  1.0000
  H   H412      1.0  0.03188255317580069  0.9777971630638783  0.6333876226686089  1.0000
  H   H413      1.0  0.057832213080374784  0.9927489972302324  0.6077534219363605  1.0000
  H   H414      1.0  0.05351726835873794  0.9385704704269289  0.6227003745117777  1.0000
  H   H415      1.0  0.062486736211137435  0.02904787834042133  0.7270192682934727  1.0000
  H   H416      1.0  0.03728589110977598  0.03057016224896092  0.6932389544880102  1.0000
  H   H417      1.0  0.06361898238880871  0.045238386388065654  0.6685122545977611  1.0000
  H   H418      1.0  0.031316403789103386  0.9552782167817965  0.7149824762303358  1.0000
  H   H419      1.0  0.056914383349967686  0.9546829860137208  0.7476741189579134  1.0000
  H   H420      1.0  0.05321092212228051  0.916308728247659  0.7045467717804903  1.0000
  N   N20       1.0  0.13917715787764973  0.5506027930615013  0.57119362931223  1.0000
  C   C365      1.0  0.16229920065686287  0.5652955571110381  0.5635104481371567  1.0000
  C   C366      1.0  0.12331526038488416  0.5749380603944699  0.5415724391727625  1.0000
  C   C367      1.0  0.13285297821916386  0.5568954920782623  0.6191882541694883  1.0000
  C   C368      1.0  0.1381598930036103  0.5053208731397736  0.5605453931123302  1.0000
  H   H421      1.0  0.16770576809943516  0.5604567218238818  0.5276947554908024  1.0000
  H   H422      1.0  0.1747567607511855  0.5480312567644995  0.5855950045176757  1.0000
  H   H423      1.0  0.16350457607250624  0.5995324842688026  0.5705297066819738  1.0000
  H   H424      1.0  0.12235685141862973  0.6087877069966192  0.5509783751121522  1.0000
  H   H425      1.0  0.12847835079421444  0.5735586778127594  0.5054232831228682  1.0000
  H   H426      1.0  0.10600607409388485  0.5625623166981233  0.543703356919148  1.0000
  H   H427      1.0  0.11548045941329277  0.5460281687699614  0.6259957586053383  1.0000
  H   H428      1.0  0.13315238580503364  0.5907860340357979  0.6284766973399742  1.0000
  H   H429      1.0  0.14444675977854304  0.5391904328366198  0.6426896384076706  1.0000
  H   H430      1.0  0.1418931489904538  0.49949405989101386  0.5241672879083793  1.0000
  H   H431      1.0  0.12111389582326826  0.49294512080841  0.5675330208675949  1.0000
  H   H432      1.0  0.15047969022785534  0.4861587797359259  0.5811438570777031  1.0000
  N   N21       1.0  0.44796134373492075  0.5835062022476899  0.5440367534661839  1.0000
  C   C369      1.0  0.46711611345990217  0.5954645221697359  0.5728423096498272  1.0000
  C   C370      1.0  0.4382624676457677  0.6215368266038575  0.521017899062864  1.0000
  C   C371      1.0  0.4305550414927158  0.5641128029246771  0.5726368502929298  1.0000
  C   C372      1.0  0.45592936953400787  0.5529267463228681  0.5098146418724129  1.0000
  H   H433      1.0  0.48090568641446835  0.6088980580291428  0.5520982821849395  1.0000
  H   H434      1.0  0.474263647477233  0.5677885941048229  0.5921993370487838  1.0000
  H   H435      1.0  0.46184094603575937  0.6197001681141256  0.5979410633958973  1.0000
  H   H436      1.0  0.451101862062399  0.6375736931204669  0.49998356031954794  1.0000
  H   H437      1.0  0.4241622165769036  0.6135619106389592  0.49794703710924587  1.0000
  H   H438      1.0  0.4314617263050075  0.6447740285681005  0.545870499716887  1.0000
  H   H439      1.0  0.4155808370976726  0.555460675598328  0.5523160463831513  1.0000
  H   H440      1.0  0.42448772796988876  0.5862224099853417  0.5991082550537375  1.0000
  H   H441      1.0  0.437134784290444  0.5351789743950425  0.5905192403237648  1.0000
  H   H442      1.0  0.4696720109987365  0.5659971147766678  0.48871234330191876  1.0000
  H   H443      1.0  0.4421416590468609  0.5446450788721607  0.4861135187451528  1.0000
  H   H444      1.0  0.4626088754176  0.5232760975616456  0.5260141187675034  1.0000
  N   N22       1.0  0.7205660842360737  0.37414916519150215  0.8793589734369472  1.0000
  C   C373      1.0  0.7361368654935707  0.3587457395757389  0.9154623673590292  1.0000
  C   C374      1.0  0.7100255418107193  0.33803650138492064  0.8573475806561431  1.0000
  C   C375      1.0  0.7332169900033768  0.3983609127435755  0.845146264127333  1.0000
  C   C376      1.0  0.7028121680691204  0.4015002645751563  0.8995309201316599  1.0000
  H   H445      1.0  0.7442847955427973  0.38530573650501093  0.9328357664659337  1.0000
  H   H446      1.0  0.7496888201864585  0.33789270857447334  0.9014973925729494  1.0000
  H   H447      1.0  0.727197412557277  0.33982427094356865  0.9415617048705692  1.0000
  H   H448      1.0  0.6980492278044089  0.3487559184209969  0.8301497867668151  1.0000
  H   H449      1.0  0.7228990264754821  0.3166877811534845  0.8416024319764358  1.0000
  H   H450      1.0  0.7004697184745424  0.31881457358055104  0.882211728710189  1.0000
  H   H451      1.0  0.7461117316904103  0.37820051263554644  0.8277864162538907  1.0000
  H   H452      1.0  0.7420105149576902  0.42511126306112806  0.8607340243148737  1.0000
  H   H453      1.0  0.7217965448437198  0.41185678795003067  0.8184539564530381  1.0000
  H   H454      1.0  0.6900113536486989  0.4116074445114713  0.873648454350655  1.0000
  H   H455      1.0  0.7100052100225626  0.43044207221160546  0.9141306159710978  1.0000
  H   H456      1.0  0.6937134800258856  0.3847635392644487  0.9270611950069357  1.0000
  N   N23       1.0  0.1814314505226152  0.8324938632132994  0.3104534614980512  1.0000
  C   C377      1.0  0.18720973900604276  0.7905168725405013  0.29190317159927026  1.0000
  C   C378      1.0  0.19331699534135655  0.8378723481237089  0.35405012496188665  1.0000
  C   C379      1.0  0.15684528718480514  0.8361901709284544  0.31796079482718304  1.0000
  C   C380      1.0  0.1883504258989781  0.8655440207065564  0.2779600531830883  1.0000
  H   H457      1.0  0.18299810800355854  0.7647697518316139  0.3161884606152744  1.0000
  H   H458      1.0  0.20551053404267272  0.7871959167362859  0.2845221542929896  1.0000
  H   H459      1.0  0.17812161522733636  0.7849862334233099  0.2595379667649819  1.0000
  H   H460      1.0  0.18866770705362237  0.8686650372694542  0.3696772310760282  1.0000
  H   H461      1.0  0.18936123112384334  0.8125103471460625  0.3789634044901951  1.0000
  H   H462      1.0  0.21189088627017594  0.8370822982705829  0.34930767317290046  1.0000
  H   H463      1.0  0.151922888128911  0.8675636202234828  0.331926016103774  1.0000
  H   H464      1.0  0.15109048935792263  0.8118320087720627  0.3424883430883066  1.0000
  H   H465      1.0  0.1473155071359919  0.8326020739895065  0.2857425695953653  1.0000
  H   H466      1.0  0.18418600878275343  0.8975886609408908  0.2909202782845782  1.0000
  H   H467      1.0  0.17984117831831636  0.8625514374141338  0.24454244620882168  1.0000
  H   H468      1.0  0.2068654343673979  0.8639080411398675  0.27178229362158957  1.0000
  N   N24       1.0  0.7747379906546792  0.18248811031504236  0.6501864649229168  1.0000
  C   C381      1.0  0.7533491125969543  0.19976975989637946  0.668804824002962  1.0000
  C   C382      1.0  0.7715917265892406  0.13872796322502134  0.635582525496481  1.0000
  C   C383      1.0  0.7924023758543154  0.18296321765990992  0.6855559366328223  1.0000
  C   C384      1.0  0.7816496310137596  0.20843950438791253  0.6108763315789796  1.0000
  H   H469      1.0  0.7551869270624828  0.2327794674754699  0.6803895794549868  1.0000
  H   H470      1.0  0.7476517667676719  0.18076999309249278  0.6984512223271355  1.0000
  H   H471      1.0  0.7396328796154894  0.1999436693664447  0.6430015082465007  1.0000
  H   H472      1.0  0.7584432695738366  0.13708595368698395  0.6087687707042052  1.0000
  H   H473      1.0  0.7874391874232085  0.1246618019131261  0.6215608569249211  1.0000
  H   H474      1.0  0.766385155673694  0.11836818325776864  0.6643969093399703  1.0000
  H   H475      1.0  0.808698662173977  0.169482708060053  0.6729958927186895  1.0000
  H   H476      1.0  0.7876065841429455  0.16407264222677478  0.7159631201656349  1.0000
  H   H477      1.0  0.7954097644800996  0.2156402045980384  0.6968678783572863  1.0000
  H   H478      1.0  0.7977129726534471  0.19608511787808489  0.5959523296372516  1.0000
  H   H479      1.0  0.7841417251721146  0.2417680920016244  0.6207953858886559  1.0000
  H   H480      1.0  0.7687640444999524  0.20847338960810458  0.5833608054919985  1.0000
  N   N25       1.0  0.5633853144115908  0.17904159027747735  0.093883637260058  1.0000
  C   C385      1.0  0.5586604863788535  0.20210353601106917  0.05082243997934266  1.0000
  C   C386      1.0  0.554384779174552  0.13621976506987338  0.09098968142592923  1.0000
  C   C387      1.0  0.5525216421118342  0.20164602176994922  0.131998414172678  1.0000
  C   C388      1.0  0.587993129002552  0.17603617939357327  0.10170258003913935  1.0000
  H   H481      1.0  0.5653380063079307  0.23448039357362926  0.05138473933166287  1.0000
  H   H482      1.0  0.5402316585192669  0.2047919995465665  0.043747766007395265  1.0000
  H   H483      1.0  0.5664012711972426  0.18551063945459578  0.02137677818336736  1.0000
  H   H484      1.0  0.5570953212394103  0.11821390328745285  0.1232790268986441  1.0000
  H   H485      1.0  0.5359795411635769  0.13725419560509164  0.08353978970898002  1.0000
  H   H486      1.0  0.56264885837642  0.11802457292464064  0.0631938102740055  1.0000
  H   H487      1.0  0.5339226511484146  0.20446092287082507  0.12750186054991897  1.0000
  H   H488      1.0  0.5589379910189357  0.23410137308917012  0.13535014177439023  1.0000
  H   H489      1.0  0.5558509034494072  0.18517923340483378  0.16509336005444525  1.0000
  H   H490      1.0  0.5921296143437621  0.15884426187708958  0.13399567988623068  1.0000
  H   H491      1.0  0.5954312266759406  0.20772182439838474  0.10385497224380379  1.0000
  H   H492      1.0  0.5968022866029905  0.15892203234029262  0.07381710856830037  1.0000
  N   N26       1.0  0.16082052568827115  0.13359926283275544  0.8078854436727582  1.0000
  C   C389      1.0  0.17364463137823527  0.1687659130466827  0.7884940587819531  1.0000
  C   C390      1.0  0.1405693283918624  0.15071842838444482  0.8311482873039684  1.0000
  C   C391      1.0  0.17518712828447391  0.10951927066180113  0.8406769357038483  1.0000
  C   C392      1.0  0.15387833392941608  0.10544469801759292  0.7711994245945799  1.0000
  H   H493      1.0  0.17903822679248504  0.19063268229648053  0.8155622197161915  1.0000
  H   H494      1.0  0.16329562969659192  0.18754361691413604  0.7635468331540889  1.0000
  H   H495      1.0  0.18914151781051797  0.15712035462844423  0.7709270944161807  1.0000
  H   H496      1.0  0.13090301036728114  0.1253708915393397  0.8480450818417121  1.0000
  H   H497      1.0  0.14517325186383048  0.17370218130130594  0.857564765888221  1.0000
  H   H498      1.0  0.1287768501404902  0.1672861354708867  0.8069893563602246  1.0000
  H   H499      1.0  0.18967763174121635  0.09340177598350863  0.8236570705064804  1.0000
  H   H500      1.0  0.16550555193736563  0.08514377085049296  0.8592207647308668  1.0000
  H   H501      1.0  0.18240168964328776  0.13051980666025573  0.8664724497519732  1.0000
  H   H502      1.0  0.14460579963156467  0.07818363969490161  0.7851295318917961  1.0000
  H   H503      1.0  0.16863948985893248  0.0926138634520113  0.7521332466999938  1.0000
  H   H504      1.0  0.14257911659705266  0.12231275529092148  0.7463289495345256  1.0000
  N   N27       1.0  0.22635497129970952  0.6148167404930908  0.8238410734974909  1.0000
  C   C393      1.0  0.2334746127263176  0.6487298230041478  0.8541742790174669  1.0000
  C   C394      1.0  0.2286039401293701  0.5737508350769451  0.8478364715564937  1.0000
  C   C395      1.0  0.2408451816691911  0.6142148948427624  0.7830818288956137  1.0000
  C   C396      1.0  0.2025564516727749  0.6225423509851682  0.8104497572513659  1.0000
  H   H505      1.0  0.2513416028555196  0.6436882376197237  0.8652610268896924  1.0000
  H   H506      1.0  0.22280493869200138  0.6503126180748185  0.8852190652616155  1.0000
  H   H507      1.0  0.2321959105848923  0.6801201486810549  0.8370315271746382  1.0000
  H   H508      1.0  0.22300649945484247  0.5474816483581199  0.8263274776031244  1.0000
  H   H509      1.0  0.24638016759483322  0.5665900539695484  0.8580125111606645  1.0000
  H   H510      1.0  0.21830419562431258  0.5733557407949454  0.8792549249949563  1.0000
  H   H511      1.0  0.23612652751380475  0.5888064302481901  0.7595158095412313  1.0000
  H   H512      1.0  0.2589264327604884  0.6085650772907583  0.7924604278615522  1.0000
  H   H513      1.0  0.23965251084148573  0.6447058742882549  0.7640724820855258  1.0000
  H   H514      1.0  0.2001165898311355  0.6534199632808074  0.7925618768962792  1.0000
  H   H515      1.0  0.19127380427325583  0.6229805203050661  0.840655280240633  1.0000
  H   H516      1.0  0.1965248885476255  0.5975836971861459  0.7876065250789966  1.0000
  N   N28       1.0  0.21772440616486036  0.38911329699455904  0.9527540314772261  1.0000
  C   C397      1.0  0.21455871826330197  0.41788001722754037  0.9133130828888213  1.0000
  C   C398      1.0  0.2014922731280299  0.3547195820143469  0.9502213413244777  1.0000
  C   C399      1.0  0.21388343560526593  0.4127057722954825  0.995100484088147  1.0000
  C   C400      1.0  0.24095531998342626  0.3711085428968384  0.952517767320747  1.0000
  H   H517      1.0  0.2265840574214625  0.4441435435447933  0.9144716979050395  1.0000
  H   H518      1.0  0.19727337935023734  0.43248197942489414  0.91274090845892  1.0000
  H   H519      1.0  0.21719148754813186  0.40112080783039333  0.8807516944258242  1.0000
  H   H520      1.0  0.18378618217353568  0.36719907091028775  0.950143982056708  1.0000
  H   H521      1.0  0.20403754743977728  0.33576302975652467  0.9190307240560542  1.0000
  H   H522      1.0  0.20339294473189806  0.33266066033631003  0.9798753453729907  1.0000
  H   H523      1.0  0.19693996654964907  0.42865506935800174  0.9953469831832741  1.0000
  H   H524      1.0  0.2265272282995485  0.43762926772541094  0.999473027264309  1.0000
  H   H525      1.0  0.21496268417150446  0.39138960850913257  0.025333315166442327  1.0000
  H   H526      1.0  0.2536965288125561  0.3957603085054039  0.9575225150359533  1.0000
  H   H527      1.0  0.2448761136543593  0.3547840475480459  0.9201629242379818  1.0000
  H   H528      1.0  0.24342638073529582  0.34739228520841337  0.9801997443820152  1.0000
  N   N29       1.0  0.6285535152353788  0.6270105796395407  0.10611205570579374  1.0000
  C   C401      1.0  0.6170635869134858  0.6683717631723477  0.11275774113762527  1.0000
  C   C402      1.0  0.6173539488350422  0.6045804243375551  0.06903981251142555  1.0000
  C   C403      1.0  0.6273960588739712  0.601709642044423  0.1485047933385888  1.0000
  C   C404      1.0  0.6523820457965342  0.6334466064208496  0.09399451256737112  1.0000
  H   H529      1.0  0.6248369853689891  0.6860070041094716  0.14086729328086722  1.0000
  H   H530      1.0  0.5989469225649466  0.6648021545474617  0.12114701050748056  1.0000
  H   H531      1.0  0.6178631063584906  0.6884603787442247  0.08155690823520101  1.0000
  H   H532      1.0  0.6253463396290705  0.5729713576394719  0.06346338152046771  1.0000
  H   H533      1.0  0.5992142911097784  0.5998251757800802  0.07666561443245756  1.0000
  H   H534      1.0  0.618279677392678  0.6225450873526368  0.036396364701401396  1.0000
  H   H535      1.0  0.635605026126437  0.6176735645005091  0.17734165222347298  1.0000
  H   H536      1.0  0.6358042691078561  0.5701850812355445  0.14473013629495934  1.0000
  H   H537      1.0  0.6096284204170247  0.5961934428092114  0.15841746645977683  1.0000
  H   H538      1.0  0.6615655063543053  0.6029204118942362  0.08846016885132224  1.0000
  H   H539      1.0  0.6613727462675617  0.6503850262192812  0.1211459658029661  1.0000
  H   H540      1.0  0.6537746017300976  0.6525033979736533  0.06209294426771628  1.0000
  N   N30       1.0  0.37102484747686426  0.13225596088974778  0.8745205680784637  1.0000
  C   C405      1.0  0.35311225289989434  0.10225162074332705  0.8850589437011467  1.0000
  C   C406      1.0  0.3704532386191647  0.16645593920399593  0.9081166217831292  1.0000
  C   C407      1.0  0.3672422717986385  0.15029313987471826  0.828566701926841  1.0000
  C   C408      1.0  0.3932556131624932  0.11009190246681122  0.8762052363835623  1.0000
  H   H541      1.0  0.33611456316569416  0.11811302650211197  0.883935390266802  1.0000
  H   H542      1.0  0.35536580184368066  0.08808645974583773  0.9195839512494822  1.0000
  H   H543      1.0  0.3530759730919421  0.07607527008610626  0.8602595164979907  1.0000
  H   H544      1.0  0.3832786386600234  0.19050392627283053  0.9003799178000439  1.0000
  H   H545      1.0  0.3536882758761957  0.18303899189285922  0.9085520960212935  1.0000
  H   H546      1.0  0.3738410235801115  0.15422913445069897  0.9430885409159341  1.0000
  H   H547      1.0  0.35051474464769516  0.1668198827184484  0.8257221708506696  1.0000
  H   H548      1.0  0.3680916919135843  0.12548648576129562  0.8021573903878396  1.0000
  H   H549      1.0  0.3803263368445884  0.17337424077089914  0.8198125918640539  1.0000
  H   H550      1.0  0.4071406275067716  0.13198282040561393  0.8686692638083541  1.0000
  H   H551      1.0  0.39449762868226035  0.08472370340255497  0.8504506313655998  1.0000
  H   H552      1.0  0.3966727061893608  0.09555683275676219  0.9101539101464527  1.0000
  N   N31       1.0  0.7902974597595357  0.6172552649844051  0.7929726281413529  1.0000
  C   C409      1.0  0.7882370524839893  0.581372543984902  0.761925096848343  1.0000
  C   C410      1.0  0.8127973904404446  0.6354366259120413  0.7875333990694964  1.0000
  C   C411      1.0  0.7875086858174206  0.6024522776245577  0.8403381888772572  1.0000
  C   C412      1.0  0.772663600228238  0.6496075948201275  0.7820728913605463  1.0000
  H   H553      1.0  0.7717665581346882  0.5659884078632932  0.7662451302999941  1.0000
  H   H554      1.0  0.8017347803439178  0.5569951796496209  0.7680334440823645  1.0000
  H   H555      1.0  0.7892078987321195  0.5916126406720275  0.7256947897913233  1.0000
  H   H556      1.0  0.8264446905006776  0.6116273238800934  0.7955645480027165  1.0000
  H   H557      1.0  0.8154385289947422  0.6467414964702544  0.7520585453935227  1.0000
  H   H558      1.0  0.8149980480034932  0.662561777820596  0.8105194173830645  1.0000
  H   H559      1.0  0.8008954819167264  0.5788149599538666  0.8499783698685753  1.0000
  H   H560      1.0  0.7709663213293412  0.5872617298932915  0.845349944960172  1.0000
  H   H561      1.0  0.7883489298824715  0.6287681952206574  0.8647727957461484  1.0000
  H   H562      1.0  0.7737597876942803  0.6773873670238112  0.8044811665755236  1.0000
  H   H563      1.0  0.7555061543187342  0.6367730092562217  0.7861304313236082  1.0000
  H   H564      1.0  0.7738853047044425  0.6607911439700668  0.7461823292524684  1.0000
  N   N32       1.0  0.29889283860846255  0.5638455596907415  0.1712024563200663  1.0000
  C   C413      1.0  0.3042579353261534  0.6090551475826697  0.17076112310911548  1.0000
  C   C414      1.0  0.301399852942049  0.5466542902788256  0.2178492393288091  1.0000
  C   C415      1.0  0.314352580162671  0.5407784927027235  0.1403475432469086  1.0000
  C   C416      1.0  0.27543255698621477  0.5589776161895037  0.1557683404329671  1.0000
  H   H565      1.0  0.30283863794662746  0.6229545550516253  0.1359056195110903  1.0000
  H   H566      1.0  0.32167392338326883  0.6141623652843186  0.1832551681283322  1.0000
  H   H567      1.0  0.29248174268933663  0.6275162166678334  0.19269895369644335  1.0000
  H   H568      1.0  0.2980229515339507  0.5123755354506574  0.2194116140447807  1.0000
  H   H569      1.0  0.3186942527156298  0.5510129471867287  0.23144395481284147  1.0000
  H   H570      1.0  0.2894657356780617  0.562653374066299  0.24157540908353933  1.0000
  H   H571      1.0  0.3105589396107088  0.5066116021865628  0.13920112477157914  1.0000
  H   H572      1.0  0.33222755425620104  0.5434345665525933  0.15112819305254194  1.0000
  H   H573      1.0  0.3128871412938845  0.5531684962294199  0.10486500607809579  1.0000
  H   H574      1.0  0.2708143256037174  0.5252613989726811  0.1551090460155541  1.0000
  H   H575      1.0  0.2730334515687271  0.572088694369524  0.12090307424129887  1.0000
  H   H576      1.0  0.26323258240132713  0.576045028241062  0.17812635394955337  1.0000
  N   N33       1.0  0.9996653880638259  0.5652168806708061  0.7234021372876467  1.0000
  C   C417      1.0  0.00866134839417887  0.5860062267101305  0.6823537390951595  1.0000
  C   C418      1.0  0.9793866749614937  0.5417667383749146  0.711337526119985  1.0000
  C   C419      1.0  0.9936846568771777  0.5973972518339971  0.7574211561922889  1.0000
  C   C420      1.0  0.01693272698332038  0.5355954587103204  0.7425672303382137  1.0000
  H   H577      1.0  0.024310712157648018  0.6031847461443416  0.6900724444125959  1.0000
  H   H578      1.0  0.9962720372852507  0.6091573215346817  0.6673799888425861  1.0000
  H   H579      1.0  0.012908552894270953  0.5626318864278618  0.6556310644625315  1.0000
  H   H580      1.0  0.9723665568751041  0.5253317784543207  0.741596618372172  1.0000
  H   H581      1.0  0.9659033667834823  0.5631881662700376  0.6971969788046006  1.0000
  H   H582      1.0  0.983335542539288  0.5174393266648402  0.6853711791551346  1.0000
  H   H583      1.0  0.00882006740388741  0.6143672079724237  0.7688100645880913  1.0000
  H   H584      1.0  0.9860524746471536  0.5828475863295032  0.7880898685963712  1.0000
  H   H585      1.0  0.9813047596296873  0.621273585127722  0.7437823049136892  1.0000
  H   H586      1.0  0.011138733889746844  0.5206981213073768  0.7747471266389309  1.0000
  H   H587      1.0  0.032813644981055656  0.5519061164256399  0.7506014802975534  1.0000
  H   H588      1.0  0.021186592922677328  0.5098478683404714  0.7185245710977146  1.0000
  N   N34       1.0  0.8637042044745756  0.36757514208238873  0.8168355000253674  1.0000
  C   C421      1.0  0.8511984584924024  0.3746279288073013  0.8595392187040629  1.0000
  C   C422      1.0  0.8856635936569596  0.38829590108163436  0.8193439916140159  1.0000
  C   C423      1.0  0.8504057326992809  0.385420483656143  0.7783394939584158  1.0000
  C   C424      1.0  0.867553163396207  0.32188680069445375  0.8102230513529571  1.0000
  H   H589      1.0  0.8344649502783582  0.3596355203485719  0.8587883808344505  1.0000
  H   H590      1.0  0.8482055889054013  0.40882665796664874  0.8657883548742275  1.0000
  H   H591      1.0  0.8605948994925323  0.3610203221720114  0.8892635306872223  1.0000
  H   H592      1.0  0.8957249282023007  0.3834482025995225  0.7879555913823824  1.0000
  H   H593      1.0  0.883463750905347  0.4228551620379602  0.8240733733134151  1.0000
  H   H594      1.0  0.8959791524991316  0.3757365703871927  0.8483756965665435  1.0000
  H   H595      1.0  0.8593230747966841  0.3808391642513907  0.7455346019119982  1.0000
  H   H596      1.0  0.8471852182594074  0.41986674683278485  0.7823050063845155  1.0000
  H   H597      1.0  0.8336992122113143  0.3704429795509914  0.7756768250225899  1.0000
  H   H598      1.0  0.876834276023882  0.31537389648695185  0.7782116010082333  1.0000
  H   H599      1.0  0.8513445141775016  0.30508459330295457  0.8088035825484228  1.0000
  H   H600      1.0  0.8776391008038387  0.30750833064878463  0.8386296463033325  1.0000
  N   N35       1.0  0.42659650904781177  0.2084118033396385  0.5664886269240944  1.0000
  C   C425      1.0  0.4261826330832709  0.25350415591109177  0.5783472534081712  1.0000
  C   C426      1.0  0.4446348270177214  0.19995507475453156  0.5329832037275887  1.0000
  C   C427      1.0  0.4046213058124683  0.19763564609411666  0.5467326290587609  1.0000
  C   C428      1.0  0.4308688775673716  0.1825992112240895  0.6079194984956724  1.0000
  H   H601      1.0  0.41256155747014767  0.26099471970490473  0.6031915621521544  1.0000
  H   H602      1.0  0.4232779288134  0.27407357143320876  0.5479297916616318  1.0000
  H   H603      1.0  0.44232637106975714  0.26267577776951434  0.5942792258328476  1.0000
  H   H604      1.0  0.46145303151173583  0.20827538214578234  0.5463655994005575  1.0000
  H   H605      1.0  0.445563728881299  0.16611047939496082  0.5236764327660886  1.0000
  H   H606      1.0  0.44167492706587635  0.2181587007002983  0.5008303909707607  1.0000
  H   H607      1.0  0.3906279523439909  0.20257344321093074  0.5714254435400624  1.0000
  H   H608      1.0  0.4044402610545329  0.16401025519884316  0.5367648463097687  1.0000
  H   H609      1.0  0.40064855307008845  0.2168434935227901  0.5157468707639379  1.0000
  H   H610      1.0  0.43090056566233725  0.14831044302944596  0.6004793051721264  1.0000
  H   H611      1.0  0.41768322159556376  0.18861146303771092  0.6340764547764132  1.0000
  H   H612      1.0  0.44737780427327745  0.18963713842956742  0.6236663955709998  1.0000
  N   N36       1.0  0.4260764829706482  0.6412882648523419  0.9149262027233288  1.0000
  C   C429      1.0  0.41456425745112124  0.624914092808421  0.9556542870076247  1.0000
  C   C430      1.0  0.44227858068527637  0.6089367404754334  0.8982657920404711  1.0000
  C   C431      1.0  0.43828082217226655  0.679748389430026  0.9262738068683192  1.0000
  C   C432      1.0  0.40920654669596573  0.6514236153792703  0.8791902257155002  1.0000
  H   H613      1.0  0.4268184093295766  0.6166862131928678  0.9832311518920044  1.0000
  H   H614      1.0  0.4051922817874588  0.5959079289154586  0.9477154195231725  1.0000
  H   H615      1.0  0.4021570028238425  0.6484721623539605  0.969172948651323  1.0000
  H   H616      1.0  0.45557753574665216  0.6010024391416116  0.9238966066839002  1.0000
  H   H617      1.0  0.433710006323121  0.5792948348591712  0.8896648242987969  1.0000
  H   H618      1.0  0.450946901473084  0.6201158073260842  0.8671621624352778  1.0000
  H   H619      1.0  0.4467608805513758  0.6930206136429575  0.8957393981396573  1.0000
  H   H620      1.0  0.4516048958799307  0.673166740390487  0.9522679373502629  1.0000
  H   H621      1.0  0.42667015354809706  0.7047812680169854  0.9395137650206823  1.0000
  H   H622      1.0  0.417348242628081  0.6644078977269519  0.8481547323604259  1.0000
  H   H623      1.0  0.3964989705126885  0.6753643377119595  0.8906714417567615  1.0000
  H   H624      1.0  0.3999452175738448  0.6229182935359064  0.8691464955670419  1.0000
  N   N37       1.0  0.809275918389035  0.7884714240383512  0.3187649150199124  1.0000
  C   C433      1.0  0.803999444337256  0.7583739717755438  0.35562687431629914  1.0000
  C   C434      1.0  0.7886148078791179  0.7982077433997465  0.29208544838144296  1.0000
  C   C435      1.0  0.8266689983652755  0.769490202037878  0.28886502494751737  1.0000
  C   C436      1.0  0.8177025790256963  0.8276241181219277  0.3385353488818852  1.0000
  H   H625      1.0  0.8189354535509451  0.7512020290571092  0.3775446712745758  1.0000
  H   H626      1.0  0.7984742795305323  0.7279597862313614  0.34170121986724605  1.0000
  H   H627      1.0  0.7901514231046127  0.770713615218619  0.37761025586544217  1.0000
  H   H628      1.0  0.791969994388468  0.820259847266135  0.2633968968160648  1.0000
  H   H629      1.0  0.7815098290141588  0.7691223366874036  0.27766574077994477  1.0000
  H   H630      1.0  0.7751945820491384  0.8130290167176718  0.31348603969848066  1.0000
  H   H631      1.0  0.8421691205983642  0.7598413467774356  0.30815650866414374  1.0000
  H   H632      1.0  0.8317181280911524  0.7917400062556601  0.2614804623471259  1.0000
  H   H633      1.0  0.8205071439864196  0.7407032031496052  0.2721277559474403  1.0000
  H   H634      1.0  0.8049223838392541  0.842601322999361  0.36129509618003985  1.0000
  H   H635      1.0  0.8219026488403954  0.8511452535590147  0.3116833980428676  1.0000
  H   H636      1.0  0.8333389333671598  0.8214081066987786  0.3587682264024205  1.0000
  N   N38       1.0  0.8914666311459399  0.36315762659565565  0.0670151539096755  1.0000
  C   C437      1.0  0.8709629551452791  0.3886515275065156  0.05572525979713161  1.0000
  C   C438      1.0  0.8873661146952386  0.3368382647813  0.10777287313573701  1.0000
  C   C439      1.0  0.9102638407809021  0.39145442509734896  0.07618425280251206  1.0000
  C   C440      1.0  0.8973330062209984  0.33563814046368273  0.02845121876607304  1.0000
  H   H637      1.0  0.8735736268898441  0.40861976982350007  0.024953661125838744  1.0000
  H   H638      1.0  0.8663045514742141  0.4105124306880266  0.08369048959701074  1.0000
  H   H639      1.0  0.8563074717876404  0.3685280888580585  0.049103165111985085  1.0000
  H   H640      1.0  0.9026530194536339  0.31731611253415726  0.11709177180704254  1.0000
  H   H641      1.0  0.8829309017329432  0.35658254985931254  0.13757542428216243  1.0000
  H   H642      1.0  0.873396500204276  0.31482495982262193  0.1021114453187042  1.0000
  H   H643      1.0  0.9256811849219891  0.37332426200710206  0.08718964604488  1.0000
  H   H644      1.0  0.9059391435499002  0.4142275811302964  0.10347575354353021  1.0000
  H   H645      1.0  0.9146113637806053  0.41040799290055363  0.04550456888095078  1.0000
  H   H646      1.0  0.9119190479186983  0.31429097178979276  0.03695929523271935  1.0000
  H   H647      1.0  0.9019985965164848  0.35429630930304684  0.9977490077578153  1.0000
  H   H648      1.0  0.8831186670174233  0.315329896994929  0.019140997570995296  1.0000
  N   N39       1.0  0.36577365283982605  0.40708834596969856  0.8336988306493238  1.0000
  C   C441      1.0  0.38398009189886684  0.41875553066898774  0.8650625079478192  1.0000
  C   C442      1.0  0.3471816999809786  0.3888116811957461  0.860087688008379  1.0000
  C   C443      1.0  0.374666657735078  0.37583263907728975  0.8010560029708282  1.0000
  C   C444      1.0  0.35730347790139044  0.44498065278205445  0.8086778607771109  1.0000
  H   H649      1.0  0.37794717936068783  0.4427089755491826  0.8898513061273399  1.0000
  H   H650      1.0  0.3983738774113835  0.4325698346088682  0.8464242231518497  1.0000
  H   H651      1.0  0.39062942651195093  0.390847956264675  0.8847400197397377  1.0000
  H   H652      1.0  0.3333637239636815  0.3784532319138096  0.837618956148229  1.0000
  H   H653      1.0  0.35315939569251276  0.3608898131502362  0.8803540999188065  1.0000
  H   H654      1.0  0.3398765321571798  0.41190256162777295  0.8845226348034245  1.0000
  H   H655      1.0  0.3817873991408251  0.3473164344654276  0.818790774217118  1.0000
  H   H656      1.0  0.3883178326663614  0.38914858713350076  0.7799118328387283  1.0000
  H   H657      1.0  0.36127676683634885  0.36522880234256144  0.7776828401803462  1.0000
  H   H658      1.0  0.3491916396972909  0.4680928908863536  0.831971753217427  1.0000
  H   H659      1.0  0.34452529459572423  0.43698634342818443  0.782741529493727  1.0000
  H   H660      1.0  0.37120928887662547  0.46141678824733684  0.7910035595596168  1.0000
  N   N40       1.0  0.5962911350178671  0.9341827920909955  0.06945596819692579  1.0000
  C   C445      1.0  0.592401085626552  0.889208163154475  0.06071894937489697  1.0000
  C   C446      1.0  0.6151921865973838  0.9486189500307812  0.041139487252774165  1.0000
  C   C447      1.0  0.6018821100420856  0.9395858020109992  0.11792413969072024  1.0000
  C   C448      1.0  0.5756702540352644  0.9593072555835096  0.05800354383091677  1.0000
  H   H661      1.0  0.6075884122887991  0.8691094768770533  0.06863056022973013  1.0000
  H   H662      1.0  0.5880937201439326  0.8840704571774699  0.02452691280508401  1.0000
  H   H663      1.0  0.5781292465950646  0.8772335214854151  0.08119152030037435  1.0000
  H   H664      1.0  0.6189057433254674  0.9822323684325424  0.047522359016378024  1.0000
  H   H665      1.0  0.6309120513141387  0.9296820801496858  0.04793099551262614  1.0000
  H   H666      1.0  0.6113430028543735  0.945897600277954  0.004318111695766458  1.0000
  H   H667      1.0  0.6053926752603007  0.9730334190200115  0.12552768330221586  1.0000
  H   H668      1.0  0.6171435538419654  0.9204656306639377  0.1278537675454392  1.0000
  H   H669      1.0  0.5877987102829314  0.9298824595872716  0.14029986446225773  1.0000
  H   H670      1.0  0.5778469520605165  0.9933517029424066  0.06457818141344163  1.0000
  H   H671      1.0  0.5609408542040645  0.9487833543032209  0.07806388152452848  1.0000
  H   H672      1.0  0.571175316344914  0.9563390255358184  0.021494311860876802  1.0000
  N   N41       1.0  0.9948669382726064  0.1354507994582328  0.90428822506102  1.0000
  C   C449      1.0  0.009426188562570825  0.12954429301526194  0.9447879316664772  1.0000
  C   C450      1.0  0.008909446467132431  0.13259190116303277  0.8629716012128532  1.0000
  C   C451      1.0  0.9832581224116749  0.17722285369497115  0.9057359869500141  1.0000
  C   C452      1.0  0.9778806348780095  0.1022822893442934  0.9036268308721223  1.0000
  H   H673      1.0  0.01940530938128715  0.09942999141560493  0.9432211169806921  1.0000
  H   H674      1.0  0.9993600547643074  0.12850288820894895  0.9766155429087531  1.0000
  H   H675      1.0  0.02161469540419958  0.1553398649095361  0.947903803951078  1.0000
  H   H676      1.0  0.022083873353683003  0.15690646249889162  0.8625313193493361  1.0000
  H   H677      1.0  0.017787738064064973  0.10125157291030251  0.8608881065754921  1.0000
  H   H678      1.0  0.998536938302967  0.13695561795890665  0.8316852116616379  1.0000
  H   H679      1.0  0.9721350047029568  0.18267776150349557  0.8756388685254108  1.0000
  H   H680      1.0  0.9954459908241248  0.20319592844989942  0.9068503080557527  1.0000
  H   H681      1.0  0.9722377547469617  0.1800134338785706  0.9360956373390914  1.0000
  H   H682      1.0  0.965881423005198  0.10686593631904606  0.8748030117286794  1.0000
  H   H683      1.0  0.9676368323274338  0.10231737737355306  0.9352899333587759  1.0000
  H   H684      1.0  0.9859350256054751  0.07039598550939319  0.9005680574004787  1.0000
  N   N42       1.0  0.702550096747115  0.8155547495282657  0.531620834386205  1.0000
  C   C453      1.0  0.6838075832673657  0.8441622177204798  0.5454407546400665  1.0000
  C   C454      1.0  0.7241535559705127  0.832796692555207  0.5466503111811517  1.0000
  C   C455      1.0  0.7025307678308308  0.8117682838998744  0.48164924588208796  1.0000
  C   C456      1.0  0.6997386564955028  0.7735283942394723  0.5526895277019873  1.0000
  H   H685      1.0  0.6672433723604242  0.8321396215163074  0.534464773514301  1.0000
  H   H686      1.0  0.685543046532388  0.8761929175470841  0.5301202772916948  1.0000
  H   H687      1.0  0.6832976403968444  0.8477369890862219  0.5829745980609768  1.0000
  H   H688      1.0  0.7386527863508102  0.8119333193324358  0.5367590918846881  1.0000
  H   H689      1.0  0.7268632102695403  0.8644858378520117  0.5313380012731276  1.0000
  H   H690      1.0  0.724808732691621  0.8362019466983645  0.5841735164764831  1.0000
  H   H691      1.0  0.7166607156563249  0.7909870940009179  0.46993423539519796  1.0000
  H   H692      1.0  0.7044744511073379  0.8428986705729505  0.46443889401647387  1.0000
  H   H693      1.0  0.6866686600746298  0.798099795131555  0.46903003035540397  1.0000
  H   H694      1.0  0.7135220827692962  0.7510241334169053  0.5426114260530935  1.0000
  H   H695      1.0  0.6835850018927483  0.7594733089427743  0.5422138729889169  1.0000
  H   H696      1.0  0.6998427088433437  0.7748866626054698  0.5904095012830447  1.0000
  N   N43       1.0  0.37673415801507787  0.8913857031243652  0.4687586372479027  1.0000
  C   C457      1.0  0.3887551175671814  0.8931056406923632  0.5127020264673173  1.0000
  C   C458      1.0  0.3728036454398414  0.8469377990200199  0.4578701926122709  1.0000
  C   C459      1.0  0.39057188437953394  0.9103974427640905  0.432635767333401  1.0000
  C   C460      1.0  0.3548763015629056  0.9146507132226831  0.4717039631366694  1.0000
  H   H697      1.0  0.3929442074877992  0.925863410282455  0.5216407377479866  1.0000
  H   H698      1.0  0.4049843804421795  0.8747455526502076  0.5118139742942003  1.0000
  H   H699      1.0  0.3786226553955392  0.8798099294472148  0.5409083650593548  1.0000
  H   H700      1.0  0.3644669742229105  0.8439925991400773  0.4242609759559847  1.0000
  H   H701      1.0  0.3890266031651216  0.8284919057856391  0.456859358686994  1.0000
  H   H702      1.0  0.3622101924070212  0.8315887907640604  0.4841004360989629  1.0000
  H   H703      1.0  0.39518838715133026  0.9431221790456277  0.441046307618039  1.0000
  H   H704      1.0  0.3814828788611677  0.9120057567705548  0.3995351884021167  1.0000
  H   H705      1.0  0.40650055527307377  0.8918732261730662  0.4274231362505823  1.0000
  H   H706      1.0  0.34537240214466935  0.913598428221422  0.43912439290839284  1.0000
  H   H707      1.0  0.357224340115949  0.9484807578162237  0.47899816571796283  1.0000
  H   H708      1.0  0.3440830994715145  0.9016211685115264  0.49900571823377754  1.0000
  N   N44       1.0  0.07725389813930295  0.24112169299138975  0.3758389345105054  1.0000
  C   C461      1.0  0.0635291371590625  0.21888990619541815  0.3422972547610432  1.0000
  C   C462      1.0  0.07054800429684449  0.2863219081121242  0.3761792783825327  1.0000
  C   C463      1.0  0.10136368775634819  0.2365524642110699  0.36384643072097017  1.0000
  C   C464      1.0  0.07362368770358385  0.22255912749279894  0.4213383721022146  1.0000
  H   H709      1.0  0.06830002805538582  0.1846566705608324  0.3414529521448518  1.0000
  H   H710      1.0  0.06579169117863515  0.2319907207700425  0.30744279169118655  1.0000
  H   H711      1.0  0.04526225603367262  0.22146209691017077  0.3506457518191502  1.0000
  H   H712      1.0  0.05261653961948576  0.29107132800798663  0.3864512473161374  1.0000
  H   H713      1.0  0.08091310738785773  0.3039941818040206  0.40070267778949925  1.0000
  H   H714      1.0  0.07263321393118072  0.3013754235545717  0.34220808570033223  1.0000
  H   H715      1.0  0.11217012251863712  0.25285179922484535  0.3886976366568797  1.0000
  H   H716      1.0  0.10475569710783428  0.2500874412346811  0.3296082509990309  1.0000
  H   H717      1.0  0.10700180900036127  0.20278741054696545  0.3636618015027201  1.0000
  H   H718      1.0  0.08450214589775329  0.2372097043956228  0.44709428859625205  1.0000
  H   H719      1.0  0.07769577953083506  0.1882453129855534  0.42204987079012035  1.0000
  H   H720      1.0  0.05579817857828817  0.22670892926869873  0.4324131405870065  1.0000
  N   N45       1.0  0.8358354140028528  0.1584051509114368  0.006677808761185622  1.0000
  C   C465      1.0  0.8355382090504293  0.1263477891241649  0.970737569728697  1.0000
  C   C466      1.0  0.8588913320866297  0.17414772221513086  0.011399446428470128  1.0000
  C   C467      1.0  0.8287310595214384  0.13943827934178832  0.05025635661399419  1.0000
  C   C468      1.0  0.8202544376886687  0.19383248818947618  0.9943270558020413  1.0000
  H   H721      1.0  0.8183876257569874  0.11368746982917699  0.9661647791594518  1.0000
  H   H722      1.0  0.847334706191355  0.0993968349519756  0.9787818869870768  1.0000
  H   H723      1.0  0.840737859733963  0.13979081969214424  0.9373915932071765  1.0000
  H   H724      1.0  0.8596384333163729  0.19930730595543644  0.037239673947628615  1.0000
  H   H725      1.0  0.8711052625383486  0.14856934850506898  0.021862916942044563  1.0000
  H   H726      1.0  0.8650207948091208  0.1877293711618202  0.9790743343586265  1.0000
  H   H727      1.0  0.8115284613160264  0.12658994823957603  0.047891282960071724  1.0000
  H   H728      1.0  0.8285953944573056  0.16302681908007766  0.07794300991080605  1.0000
  H   H729      1.0  0.840533021187424  0.1133628638286246  0.061259929408113534  1.0000
  H   H730      1.0  0.8201603664011826  0.2187385202689276  0.02056668828978836  1.0000
  H   H731      1.0  0.8026496220532291  0.1832104024597918  0.9903494874228151  1.0000
  H   H732      1.0  0.8252460201166817  0.20892343533796076  0.961706128653996  1.0000
  N   N46       1.0  0.672636010027492  0.05148715392574066  0.8118498557862148  1.0000
  C   C469      1.0  0.6853449835527329  0.08764135471237666  0.8284674891542734  1.0000
  C   C470      1.0  0.6810128404131119  0.039468089177951526  0.7664880096503655  1.0000
  C   C471      1.0  0.6484397430515758  0.06343718468470172  0.8087378747726647  1.0000
  C   C472      1.0  0.6756906731807081  0.015398437216521232  0.8436852546686409  1.0000
  H   H733      1.0  0.6795351257782303  0.09740546522332161  0.8628027547035807  1.0000
  H   H734      1.0  0.6829848945816727  0.11569646467478001  0.8057104209210395  1.0000
  H   H735      1.0  0.7037424993068341  0.08011204452885701  0.8306478438831111  1.0000
  H   H736      1.0  0.671701595430001  0.01251203774876486  0.7527037116081399  1.0000
  H   H737      1.0  0.6791459107553538  0.06607735160643302  0.741643832906413  1.0000
  H   H738      1.0  0.6992134508107575  0.030018458225752997  0.7675143264940173  1.0000
  H   H739      1.0  0.6417011586677429  0.07297772772430355  0.8423021705016708  1.0000
  H   H740      1.0  0.6381928297365798  0.03681522121241043  0.7970089833708092  1.0000
  H   H741      1.0  0.6454322239451962  0.0907728928440581  0.7852365222367542  1.0000
  H   H742      1.0  0.6659931656170217  0.9877817712924318  0.8325993555957212  1.0000
  H   H743      1.0  0.6695374172282461  0.023364967261605196  0.8782790928923865  1.0000
  H   H744      1.0  0.6937286189653366  0.005305518437373813  0.8467653234956944  1.0000
  N   N47       1.0  0.17146543800796715  0.041297518234243664  0.4877216579382523  1.0000
  C   C473      1.0  0.195610113334619  0.04973144926782558  0.4946770592826892  1.0000
  C   C474      1.0  0.16926679448412404  0.9995857626118979  0.4667157868876685  1.0000
  C   C475      1.0  0.16123835558465852  0.07411426624789086  0.45751977673811295  1.0000
  C   C476      1.0  0.15966603208362742  0.041705723584292365  0.5318897297497227  1.0000
  H   H745      1.0  0.19797279650326866  0.08089278860754345  0.5105978399585992  1.0000
  H   H746      1.0  0.20503481774625365  0.04972727753087947  0.4619976323857873  1.0000
  H   H747      1.0  0.20395089799932647  0.025321805331035122  0.5169306168029597  1.0000
  H   H748      1.0  0.1767289715158555  0.9739475263302491  0.48852960841146076  1.0000
  H   H749      1.0  0.1512886819801938  0.9922799871267888  0.46051324127012894  1.0000
  H   H750      1.0  0.17799938320402603  0.9981636259247983  0.43334666600341526  1.0000
  H   H751      1.0  0.16934859394164167  0.07418929368571271  0.423467460088311  1.0000
  H   H752      1.0  0.16281854919100186  0.10612529682958609  0.47190466146637716  1.0000
  H   H753      1.0  0.14294247264113447  0.0689865506096714  0.452213169166963  1.0000
  H   H754      1.0  0.1669282182910269  0.017549291399558745  0.5558138028957654  1.0000
  H   H755      1.0  0.14141769511685434  0.035208972195055255  0.527857342503746  1.0000
  H   H756      1.0  0.16066332836929748  0.0728875602511796  0.5485666738844015  1.0000
  N   N48       1.0  0.49992904181975767  0.02510312320491903  0.35183373208628266  1.0000
  C   C477      1.0  0.5199147985269614  0.04257842100335063  0.3739795208141181  1.0000
  C   C478      1.0  0.502215884907955  0.029498134093931094  0.3020355823481784  1.0000
  C   C479      1.0  0.47940155791478495  0.04836727806931562  0.36686361669262985  1.0000
  C   C480      1.0  0.4982215463142148  0.9800885657635463  0.3644467083350454  1.0000
  H   H757      1.0  0.5186910579144371  0.040646538785602315  0.41166449577710035  1.0000
  H   H758      1.0  0.5218416731933748  0.07635505797793773  0.3646166219688652  1.0000
  H   H759      1.0  0.5357370596066503  0.025634277186499466  0.36379327412621587  1.0000
  H   H760      1.0  0.48749908514371004  0.016471944821280893  0.28403056715360003  1.0000
  H   H761      1.0  0.5034533945123565  0.06320584081347835  0.2915356383342088  1.0000
  H   H762      1.0  0.5176974199432647  0.012713471173166235  0.28959101339263016  1.0000
  H   H763      1.0  0.4639575468249502  0.03628324700732799  0.3506269397539489  1.0000
  H   H764      1.0  0.48016809578936487  0.08258155839719317  0.3583605476966034  1.0000
  H   H765      1.0  0.47709002378847404  0.04556055899340583  0.40428255542783786  1.0000
  H   H766      1.0  0.4834506134397962  0.9657988432463749  0.3478929803357593  1.0000
  H   H767      1.0  0.49617461058972095  0.9757518214924745  0.4018199683501384  1.0000
  H   H768      1.0  0.5135113616711456  0.9615432756670708  0.354124931276404  1.0000
