data_image0
_chemical_formula_structural       CH2C2HCH7NH2CH2FeS2FeSFeSFeS2FeSFeS2FeSHCS2FeS2FeS2FeSFeS3FeS2FeS2FeSFeCS2HCHCNHC6H4C2H3CHCH2C6H4CHSH2C6H4C6H4C6H5CHSNC4HCH12NCHCH5FeHSHNC4H14C2HCHCNH2SHCH3C3H3C2NCHCH2SH4CH3CHC2HCHC2H3C3H6CH3CH10CH2CH2CH3CHNH2C3FeS2FeCHFeSFeS2FeHSFeS2FeSFeHS2FeS2FeS2FeSFeS3FeS2FeS2FeSFeHS2H2CHCH2C6H4C4HCH2C6H4CH4C6H4C6H4C6H4NH3CH2NHSHC2NH6SC3HSH4CH2C2HCHCSH2CHC2HC5H2CH2CNH5SH3C2HNC4H14NH4CH3C2H2CH6CH3SHC2H2NHCH6CHNHCH5CNHSHC3H4CFeHC3H2C3HNSHCHCH9FeCSH4SH3FeS2FeS2CFeS2FeS2FeS2FeSFeS3CHSC2H3CHC6H4CHNC6H10C6H4CSFeNC4H12CH2CH4SNC2H3SH2CH2NFeH2C3HC2H7CHFeCSCH6CHC3HCFeH5SHCHCHNH4FeSCSHC3H2NC3H3C2HCH2CHCHSCH2CH5FeSCHSCH2CSHSHFeS2FeS2FeSFeSFeHSFeS2FeS2FeSFeS3HSCHC2H2C6H4SHC6H6NC4FeH3CHC4HCH2NC4H12CNC4H17SHSH2NHFeH2C4H5C2H2FeHSHC4HFeC4HCHCHFe2S2HSH6NSCHCFeCHFeHC2HCH2SHSNH2CHCHCFeHSHC2HFe2C2H2CSH2CH2CH2CSCSHC2FeSH7C2SFeCHSH3C2HCHCNH3C2SFeCHC2HSHC2HCH4CNH2C3HCFeHFeS2HSH2SCS3CH5CHC7H4C2H5C2H3C2H4CHSH4SH3CH2N2H5NHCHCH5C2H5C3FeCH2C3NFeSH3C3H2CH2FeHC2H3CHC2HCHSHSCH5S2HSH2CH2CSH2SC2FeSFeHFeSHC3HCH2Fe2HC3HFeC3HSH2SCHNH2CH4S3CFeC4H6SNH4CH3CHCH3CFeS2HSHSCHCS2HC2H2C6H3C2HCH4CH4CH2CNC2H2C2SH2NH3C3HNH2CH4FeH3FeCH2NS2H3FeSH4SC7H4C2H2SH2NCHCFeHCH5SH2CHNC2H2FeHCH3SC3H2SHFeSCSH2SC6H3SH4C2NFe2C2H6CH4CSCH2CHFeSH5CSNHC2HCH2CH3CHC6H6CS2HCNH3C2HSCSH3CH2CSH5SHSH4CHSCH2C2FeSCHC2H2CNHC2HC2HCHCHFeSFeS2FeSFeS4H2Fe2SFeSCFeSFeS2FeSHFeS2CFeCSCH2C6H5C3H3C2H3CHC6H4CHCSC2H6CHNSNSCH3SNC4H12SCH5C3H4CH3NC4H4CH3SHC3H4SHNCHC2FeH2S2H2SHCH5CH4SHC6H4CHC3HCH6CFeH2NH2CH2SH2SH3CNH4NH4S2C5H6C2HSH2CH3NCH3CHFeSFeS2FeSFeS4FeCSFeSHFeS2FeHCSFeS2FeS2FeS3CNCH8C6H5CH3CHCH2NH3C3H2CH2C6H4CHSC3H2CNCHCHSHSCH5CH3NC4H12C4SC2HCH4CHFeCH2CH3NCHNCH3CH3CHCH3CFeCHNHCH2C5HC2HC4NHSHCSHCH2CH4C2HCH2C2H2CH3FeH3CH3SH6NSCSHFeSHCS2FeHSCH2CSCH3CHNH2C2H2NH2C6H3C2HC3H6CH3CH4NH4CHFeH8CHCH3Fe3S2HS2FeSFeS2CHC7H3CH3C7H4FeHS2HSH2C2SCFeHC3H3CH2CHNH2NCSH3CH2CH2CH3CHCH6FeHSC2HFeSHCSCFeS2FeHSFeS4H2SC3SCHC7H3SCNC3FeCHSC6H4FeC3HCH2C3HC2HCH2C3HFeH2CHC3HSCH3C2HFeHFeCHC2NHSHSCHCH2NHC2H3CH4SFeH3C2SC3H3CHCNC4H2CH7SHCHNCH3NH3SHC2H5C2SH2SCH4FeHC2HSHC2HCNHSH3CHCSH2NSC2SH4FeC2H3SH2SH4CHSH2FeSHFeH2SHCH2CH3FeH3CHFeSH6CH4CHSH5NH3SC2HSCSHCSHFeHCH4CH2SH5SCH2SHCSH2FeS2CFeCH4CSH2NH6CH2CHC7H2C5FeH3CSH2CH3NC2SHCHC2FeNHCHCSH3CHFeHC2Fe2SFeCFeS3FeSFeSHC6H3CH2C6H4CFeCHSHFeCFeH2C3NH2SHCH4CH3S2CHCH2CHSCH2CH3CH5CH5FeHSCH2FeSCHSHFeHSFeHSFeCHS2NSH2CH3C2FeCH2C6H5C2SH3C8H5C4HSH2C2H3C2H2CNHS2FeC2S2C2H2NCNC3FeHS2H3SHCH3CHCSHCSH2CHCH4CHC2SHFeCSNHC3HCHC3HSH5CHC2H2FeH7CHC2FeH2SHC2H3CSHCH2NHCH3SC2S2NH4CH2C2HCHNCH2FeSCNCH2S2H2FeHSHCH5CH2SH8CH2CSFeC2H3SFeCHNFe2S2FeS2FeSFeHS2H5SFe2H2CFeSCFeHSHC6H4C6H8NH3SH2C3HCH2C2H5SCHNH2C2HCSC8H3C2SH2SCH2NH2FeHSHC2NHCH4SH3S2CHCHCH2FeSNHCNCHSFeH4C2H2CH3SNH3C2SC3H3CH2CH8CHC2HCH7C4SHSH4C2HCH2SCHSH3SCH4SC2HNHSC2HCHSCHC2HCFeHC2HCS2HC2FeCFeCSHSHCFe2H3CH4CHCHCH2CH2C2HCH3CH3NH2CH3S2FeS2FeSCFe2S3CHC4HCH2C6HCH4FeHNHS2NH3CH3NH3CH2C2SCH3CH4CH2CHCSH4CHC2H3C2NHNHCHSH4SH4C5HNH5SH3C3H2CH2SCH2FeH3FeS2FeS2FeSFe2S2HCH4C3HSFeSHSFeSHC6H4C6H4CSHNC2H6SCHC3H2C2HC2HCHSH4C5NHC6H4SHSCH4NCHSFeH3SCHSH5CHCHNCHSC2HCSHC2HCH2SHCHNHCH4CH5SCH4FeSHCFeNCHSH4NH2CH2NCH6SH4CH2NH3SHFeH2C2H4C2HCH2CHC2H2C2FeH3FeHCHCH2CSH2CHCHCHCSHC2H4CH2C2NCHCH2C2SH3FeHSNCH2CH2CHSHSFeHCH2SCH2SH3CH7C3HCH2C2HSHSFeS2FeSHFe2S3C6H2C7H7CH4SHFeNCH3C2H3CFeC2HCH3NCHSCHCH4CSCH4CH4CH4C2H2CFeHCH2SHCHCHSHC2SHSH3SFeSFeSFeS3HFeS2CHFeSHSFeC5HNHC6H4C3H3C2SC2HSFeHSHCHSC2HSHCHCHCH3SHNSFeCNC2HSC3H4SFeCHCNSH2CHCH2Fe2H3CH3CH6CH4SFeCH2CHSH8CHFeHSCFeS2C2S2FeSFeHS2C3H3C2FeHC2H2SCSH3CHSFeH2C6H3CS2HCH2C2HCSH2C2H2C3H4C2NCH2NC2H2NC4H9SCHCH2SH3CH2FeHC2H3SC4H8CH5FeS2HCHCFeHCHCH2CHFeH2CFeH2NHNH4CH2NHSHCHSCFe2HCH2FeCFeSHCH2NHC4H2C3SC2H3SCSCSCH2CH5C2H9CH2CHC2FeC2H3SC2H3FeSHFeSFeS2HCFeSH3FeS2C2HC4HC6H4C3SH4SHCH2FeHFeHSFeCHC2SH2FeH2CH5CH2CSHSHCSCH2FeH5CHCNHFeC2H2SH3NCHCHSC2SCFeH2SHNH2FeH6C2HFeS2CS3FeSHS3H5CSHCHCHCH2C8H3CNHSH2CHC2H2SC2HCH2SH3SC4H2CHCH3SFeHCH2CSC2H2C2SHC2FeHCH2NCSH2FeH2FeCSCHCHC2HCH3CH2CH2FeS4H2C2SHC2H4CHSH4CHC2NC3H3FeH3CHCFeCSH7FeCHSH2NH3NFeCHCHSHSCHCHCHC2H2CH5SCH2SHNC2H3CSHCHFeC2H4CH5NHCH6SHCHCNCNHCH2C2HCFe2S2HFeSHFeHSCH5CHFeC6H3C6HNH4SCH5FeHCNHCHS2HCH4SHS3CHFe2S2FeSFeS2FeH2C6HCHC6H5CH5SH2NCH6CHCHCH2FeHCSNS2CSFeSHNHC2H5CH5CSHNCHSC3HCH2S2C2HFeC2SHCH2C2HSHFeHCH3CS2H3FeS2H2C2H3FeHSHCSHCFeNHNHCHC2HC7H2CH3FeHCSH2SH3C3HSHFeCH7NHCH5CH5C2HNC2HCSHNHC2SCH2CHC3H6C2H4C2HSHCHCHSH3SNHCHNHFeHCH2NFeHCH3SC2H2CSH2FeHSCHCH3CSC3FeH3CH3CH4CHCS2FeC4SH2CS2FeCHSFeCH2FeSC3HCH4CH3CSFeS2FeSFeS2FeS2FeSFeS3CFeS3HC2SHC6H6C7H4C6H5CHSCH2C2H2CSNCSC2H2CSCH2CH4S2CFeHCSH3FeCS2CSC2SH5C3HSC2NFeCH5CFeNH4CFeH2SH2CH2SH2CHCSCNHCNCHC2NH2CHC2FeCH3C2HCHSHFeC2HCFeC2FeH6CHC2HSFeCH2C2H3SFeH2FeHSH2CHCHCH2CFeCFeSNHCH4SH5FeSH6CSHCH4CH2CH5SHCHCHFeH2CH3NCHSHC2FeCSHCSCSCSC2HSNCH9CH9FeHSHS2FeSFeS2FeS2FeSFeSH2CH2FeS3CH3C6H5CFeC6H4C6H9CH2CH2SHSCHS2HCNC4H12SCNC4H11SCHC2SCH2NFeH3FeC3HCHCS3C3H2C2SCFeHSH2SHCH2CHNHSH4CHSFeH2CHCHCNFeC2HSHSNHCH2C2HCFeCSH6NFeCHNSH2SFeCFeC2H2CH2FeHC2HCSCS2HFeS2H3CHCH3FeH2CH4CS2H4CHFeH3C2HFeCHCSCH3SH2C2SHCHSC2HFeCH7FeH2C2H2CSHC2HCH4C2HC2SFeHSFeS2FeSFeHS2FeSFeSHFeS3H5C2H2SCHC2H2CH7C3HSHC2H2NC2SH3N2CH3CH9C2NH4C2SHC2H3C6H3C6H5SH3C2H4CFeNHCH5C2HCH3C2HC2H8FeCNH3C3HSCHCH3FeS2FeS2FeS2FeHFeS3H3SH2C2H5CHCHC7H3C6H2FeCH2SHNH3SC3H2SFeHCHCH2C3H4CH3FeH2FeS2FeSCHS2FeSFeCHFeS3H3C2HNHC2HSCNCH4CH3CH2FeH2CHSFeHNHSH2C2H8CH2CSC2H12C3H2CH3C6SH3C6H2CHCS2CH3S2HFeHNC2HC4H5CSH2CFeS2FeS2FeS2FeHFeS3CHCH10SH4C6H3C6H2CH3NHCH6NHCNCHCS2H4FeH4CFeCSHCHC2H7C2NC5HCHCH2SH2C2H3C3N
_chemical_formula_sum              "C1920 H3072 N192 Fe384 S768"
_cell_length_a       119.749
_cell_length_b       119.437
_cell_length_c       48.8553
_cell_angle_alpha    78.1733
_cell_angle_beta     78.3267
_cell_angle_gamma    101.882

_space_group_name_H-M_alt    "P 1"
_space_group_IT_number       1

loop_
  _space_group_symop_operation_xyz
  'x, y, z'

loop_
  _atom_site_type_symbol
  _atom_site_label
  _atom_site_symmetry_multiplicity
  _atom_site_fract_x
  _atom_site_fract_y
  _atom_site_fract_z
  _atom_site_occupancy
  C   C1        1.0  0.04342  0.50035  0.09040  1.0000
  H   H1        1.0  0.03294  0.47716  0.10259  1.0000
  H   H2        1.0  0.02634  0.48110  0.15534  1.0000
  C   C2        1.0  0.01576  0.49353  0.15039  1.0000
  C   C3        1.0  0.01798  0.48237  0.15219  1.0000
  H   H3        1.0  0.01095  0.46411  0.15237  1.0000
  C   C4        1.0  0.04269  0.47954  0.09975  1.0000
  H   H4        1.0  0.03371  0.49850  0.09292  1.0000
  H   H5        1.0  0.01047  0.60307  0.06135  1.0000
  H   H6        1.0  0.11740  0.66636  0.34567  1.0000
  H   H7        1.0  0.04427  0.47935  0.12153  1.0000
  H   H8        1.0  0.16816  0.60387  0.35876  1.0000
  H   H9        1.0  0.04753  0.50936  0.07571  1.0000
  H   H10       1.0  0.05027  0.49996  0.03490  1.0000
  N   N1        1.0  0.04836  0.49130  0.07934  1.0000
  H   H11       1.0  0.03645  0.48909  0.05219  1.0000
  H   H12       1.0  0.04489  0.50060  0.11205  1.0000
  C   C5        1.0  0.04609  0.49119  0.05076  1.0000
  H   H13       1.0  0.04614  0.47246  0.09208  1.0000
  H   H14       1.0  0.04970  0.48445  0.04173  1.0000
  Fe  Fe1       1.0  0.15111  0.63060  0.41299  1.0000
  S   S1        1.0  0.16064  0.64495  0.37294  1.0000
  S   S2        1.0  0.15443  0.61255  0.41749  1.0000
  Fe  Fe2       1.0  0.13724  0.64595  0.43983  1.0000
  S   S3        1.0  0.14584  0.66160  0.40055  1.0000
  Fe  Fe3       1.0  0.14275  0.64833  0.37337  1.0000
  S   S4        1.0  0.13622  0.65118  0.33115  1.0000
  Fe  Fe4       1.0  0.16315  0.65679  0.40322  1.0000
  S   S5        1.0  0.13321  0.63333  0.41242  1.0000
  S   S6        1.0  0.15443  0.64181  0.44354  1.0000
  Fe  Fe5       1.0  0.07149  0.52099  0.11140  1.0000
  S   S7        1.0  0.08503  0.51940  0.07304  1.0000
  Fe  Fe6       1.0  0.06101  0.53833  0.13877  1.0000
  S   S8        1.0  0.05069  0.52482  0.17973  1.0000
  S   S9        1.0  0.06071  0.55729  0.13242  1.0000
  Fe  Fe7       1.0  0.06745  0.51889  0.17741  1.0000
  S   S10       1.0  0.07597  0.51498  0.21561  1.0000
  H   H15       1.0  0.11170  0.60717  0.02406  1.0000
  C   C6        1.0  0.02338  0.59307  0.20289  1.0000
  S   S11       1.0  0.07795  0.53315  0.13760  1.0000
  S   S12       1.0  0.05541  0.52756  0.10918  1.0000
  Fe  Fe8       1.0  0.07629  0.61626  0.19264  1.0000
  S   S13       1.0  0.08720  0.61255  0.15398  1.0000
  S   S14       1.0  0.05589  0.61250  0.20366  1.0000
  Fe  Fe9       1.0  0.09795  0.62163  0.22057  1.0000
  S   S15       1.0  0.10981  0.61778  0.18350  1.0000
  S   S16       1.0  0.10364  0.62229  0.26357  1.0000
  Fe  Fe10      1.0  0.10143  0.62826  0.15340  1.0000
  S   S17       1.0  0.11536  0.64024  0.11269  1.0000
  Fe  Fe11      1.0  0.09491  0.60252  0.18621  1.0000
  S   S18       1.0  0.09726  0.58411  0.18857  1.0000
  S   S19       1.0  0.09006  0.63305  0.19049  1.0000
  S   S20       1.0  0.08340  0.60538  0.22490  1.0000
  Fe  Fe12      1.0  0.11843  0.56704  0.35607  1.0000
  S   S21       1.0  0.10002  0.55621  0.36336  1.0000
  S   S22       1.0  0.12304  0.58682  0.34793  1.0000
  Fe  Fe13      1.0  0.12870  0.54631  0.35840  1.0000
  S   S23       1.0  0.11083  0.53316  0.36633  1.0000
  S   S24       1.0  0.14774  0.54484  0.34985  1.0000
  Fe  Fe14      1.0  0.10728  0.54669  0.33132  1.0000
  S   S25       1.0  0.09766  0.54645  0.29449  1.0000
  Fe  Fe15      1.0  0.10429  0.54338  0.39802  1.0000
  C   C7        1.0  0.09712  0.52878  0.48743  1.0000
  S   S26       1.0  0.12553  0.55888  0.32150  1.0000
  S   S27       1.0  0.12228  0.55515  0.39251  1.0000
  H   H16       1.0  0.11187  0.53381  0.20791  1.0000
  C   C8        1.0  0.15869  0.55374  0.36171  1.0000
  H   H17       1.0  0.09866  0.57903  0.41918  1.0000
  C   C9        1.0  0.15582  0.55755  0.38686  1.0000
  N   N2        1.0  0.01769  0.53668  0.16769  1.0000
  H   H18       1.0  0.14674  0.55520  0.39931  1.0000
  C   C10       1.0  0.09122  0.53724  0.27394  1.0000
  C   C11       1.0  0.08519  0.54195  0.25424  1.0000
  C   C12       1.0  0.08013  0.53518  0.23706  1.0000
  C   C13       1.0  0.08117  0.52360  0.23887  1.0000
  C   C14       1.0  0.08709  0.51884  0.25878  1.0000
  C   C15       1.0  0.09207  0.52558  0.27616  1.0000
  H   H19       1.0  0.08440  0.55093  0.25229  1.0000
  H   H20       1.0  0.07547  0.53894  0.22231  1.0000
  H   H21       1.0  0.01327  0.52462  0.14200  1.0000
  H   H22       1.0  0.09661  0.52174  0.29120  1.0000
  C   C16       1.0  0.08633  0.52470  0.03530  1.0000
  C   C17       1.0  0.09718  0.52622  0.01545  1.0000
  H   H23       1.0  0.06148  0.58055  0.18637  1.0000
  H   H24       1.0  0.11242  0.57562  0.40731  1.0000
  H   H25       1.0  0.10311  0.54864  0.18573  1.0000
  C   C18       1.0  0.07667  0.52653  0.02457  1.0000
  H   H26       1.0  0.12827  0.53960  0.14529  1.0000
  C   C19       1.0  0.09667  0.65867  0.38748  1.0000
  H   H27       1.0  0.06828  0.52545  0.03946  1.0000
  H   H28       1.0  0.03061  0.60480  0.22697  1.0000
  C   C20       1.0  0.07179  0.56456  0.14592  1.0000
  C   C21       1.0  0.07625  0.57683  0.13589  1.0000
  C   C22       1.0  0.08472  0.58278  0.14758  1.0000
  C   C23       1.0  0.08849  0.57655  0.16991  1.0000
  C   C24       1.0  0.08434  0.56422  0.17926  1.0000
  C   C25       1.0  0.07601  0.55821  0.16723  1.0000
  H   H29       1.0  0.07315  0.58175  0.11911  1.0000
  H   H30       1.0  0.08832  0.59218  0.13921  1.0000
  H   H31       1.0  0.08720  0.55941  0.19662  1.0000
  H   H32       1.0  0.07249  0.54874  0.17527  1.0000
  C   C26       1.0  0.10791  0.64452  0.37944  1.0000
  H   H33       1.0  0.06333  0.49467  0.09747  1.0000
  S   S28       1.0  0.12138  0.64445  0.47715  1.0000
  H   H34       1.0  0.09736  0.52248  0.15582  1.0000
  H   H35       1.0  0.09821  0.60761  0.01356  1.0000
  C   C27       1.0  0.11970  0.64466  0.01457  1.0000
  C   C28       1.0  0.12951  0.64534  0.02623  1.0000
  C   C29       1.0  0.12800  0.64362  0.05639  1.0000
  C   C30       1.0  0.11667  0.64071  0.07542  1.0000
  C   C31       1.0  0.10685  0.63948  0.06381  1.0000
  C   C32       1.0  0.10838  0.64161  0.03359  1.0000
  H   H36       1.0  0.13827  0.64750  0.01210  1.0000
  H   H37       1.0  0.13565  0.64464  0.06511  1.0000
  H   H38       1.0  0.09810  0.63745  0.07804  1.0000
  H   H39       1.0  0.10072  0.64111  0.02492  1.0000
  C   C33       1.0  0.12739  0.64276  0.31251  1.0000
  C   C34       1.0  0.12705  0.64813  0.28421  1.0000
  C   C35       1.0  0.12002  0.64205  0.26888  1.0000
  C   C36       1.0  0.11299  0.63046  0.28166  1.0000
  C   C37       1.0  0.11327  0.62512  0.31008  1.0000
  C   C38       1.0  0.12041  0.63114  0.32527  1.0000
  H   H40       1.0  0.13232  0.65709  0.27388  1.0000
  H   H41       1.0  0.11999  0.64641  0.24718  1.0000
  H   H42       1.0  0.10790  0.61621  0.32054  1.0000
  H   H43       1.0  0.12043  0.62679  0.34696  1.0000
  C   C39       1.0  0.14634  0.60526  0.39720  1.0000
  C   C40       1.0  0.14441  0.59300  0.40102  1.0000
  C   C41       1.0  0.13744  0.58720  0.38560  1.0000
  C   C42       1.0  0.13242  0.59366  0.36639  1.0000
  C   C43       1.0  0.13474  0.60594  0.36187  1.0000
  C   C44       1.0  0.14170  0.61173  0.37714  1.0000
  H   H44       1.0  0.14819  0.58799  0.41612  1.0000
  H   H45       1.0  0.13601  0.57777  0.38859  1.0000
  H   H46       1.0  0.13108  0.61101  0.34658  1.0000
  H   H47       1.0  0.14350  0.62124  0.37317  1.0000
  H   H48       1.0  0.03965  0.58626  0.14623  1.0000
  C   C45       1.0  0.11782  0.66529  0.36862  1.0000
  H   H49       1.0  0.11257  0.52357  0.14016  1.0000
  S   S29       1.0  0.02650  0.50617  0.15164  1.0000
  N   N3        1.0  0.05417  0.57211  0.23173  1.0000
  C   C46       1.0  0.05624  0.56058  0.22886  1.0000
  C   C47       1.0  0.04195  0.57222  0.23052  1.0000
  C   C48       1.0  0.06254  0.58166  0.20785  1.0000
  C   C49       1.0  0.05599  0.57407  0.25960  1.0000
  H   H50       1.0  0.05009  0.55313  0.24653  1.0000
  C   C50       1.0  0.06123  0.49416  0.07648  1.0000
  H   H51       1.0  0.05502  0.55893  0.20788  1.0000
  H   H52       1.0  0.03536  0.56495  0.24777  1.0000
  H   H53       1.0  0.04004  0.58070  0.23337  1.0000
  H   H54       1.0  0.04042  0.57124  0.20928  1.0000
  H   H55       1.0  0.15336  0.58729  0.33112  1.0000
  H   H56       1.0  0.00458  0.54422  0.18831  1.0000
  H   H57       1.0  0.01204  0.53937  0.12828  1.0000
  H   H58       1.0  0.06513  0.57402  0.26116  1.0000
  H   H59       1.0  0.01438  0.59140  0.21539  1.0000
  H   H60       1.0  0.04975  0.56710  0.27824  1.0000
  H   H61       1.0  0.10906  0.62112  0.00915  1.0000
  H   H62       1.0  0.10049  0.63705  0.39362  1.0000
  N   N4        1.0  0.10970  0.53631  0.16449  1.0000
  C   C51       1.0  0.11012  0.52864  0.19197  1.0000
  H   H63       1.0  0.11707  0.52379  0.18855  1.0000
  C   C52       1.0  0.10102  0.54325  0.17045  1.0000
  H   H64       1.0  0.09199  0.53737  0.18032  1.0000
  H   H65       1.0  0.12143  0.55044  0.12943  1.0000
  H   H66       1.0  0.03228  0.54778  0.13271  1.0000
  H   H67       1.0  0.10881  0.55400  0.45541  1.0000
  H   H68       1.0  0.16243  0.56649  0.41674  1.0000
  Fe  Fe16      1.0  0.04607  0.51323  0.15017  1.0000
  H   H69       1.0  0.10065  0.54939  0.15034  1.0000
  S   S30       1.0  0.01445  0.57822  0.17007  1.0000
  H   H70       1.0  0.10475  0.52816  0.47215  1.0000
  N   N5        1.0  0.10956  0.58870  0.26598  1.0000
  C   C53       1.0  0.09684  0.58757  0.26889  1.0000
  C   C54       1.0  0.11641  0.59686  0.23781  1.0000
  C   C55       1.0  0.11192  0.57694  0.26793  1.0000
  C   C56       1.0  0.11305  0.59346  0.28946  1.0000
  H   H71       1.0  0.09142  0.58111  0.28946  1.0000
  H   H72       1.0  0.09399  0.58449  0.25076  1.0000
  H   H73       1.0  0.09472  0.59622  0.26892  1.0000
  H   H74       1.0  0.12605  0.59785  0.23484  1.0000
  H   H75       1.0  0.11388  0.59368  0.21949  1.0000
  H   H76       1.0  0.11493  0.60586  0.23608  1.0000
  H   H77       1.0  0.12148  0.57745  0.26514  1.0000
  H   H78       1.0  0.10894  0.57285  0.25121  1.0000
  H   H79       1.0  0.10719  0.57074  0.28941  1.0000
  H   H80       1.0  0.11167  0.60246  0.28828  1.0000
  H   H81       1.0  0.12254  0.59418  0.28846  1.0000
  H   H82       1.0  0.10779  0.58771  0.31106  1.0000
  H   H83       1.0  0.11787  0.65166  0.41961  1.0000
  H   H84       1.0  0.03593  0.54352  0.16642  1.0000
  C   C57       1.0  0.01074  0.53237  0.14838  1.0000
  C   C58       1.0  0.10617  0.52886  0.14537  1.0000
  H   H85       1.0  0.16055  0.60821  0.33191  1.0000
  C   C59       1.0  0.11190  0.58286  0.45619  1.0000
  H   H86       1.0  0.08923  0.55817  0.47261  1.0000
  C   C60       1.0  0.01401  0.54686  0.17590  1.0000
  N   N6        1.0  0.10574  0.57123  0.45342  1.0000
  H   H87       1.0  0.13140  0.67034  0.00243  1.0000
  H   H88       1.0  0.16459  0.60233  0.28566  1.0000
  S   S31       1.0  0.08947  0.53860  0.43982  1.0000
  H   H89       1.0  0.16363  0.57843  0.32582  1.0000
  C   C61       1.0  0.02577  0.58778  0.18002  1.0000
  H   H90       1.0  0.01931  0.55059  0.18970  1.0000
  H   H91       1.0  0.01829  0.51922  0.18878  1.0000
  H   H92       1.0  0.12060  0.58651  0.43997  1.0000
  C   C62       1.0  0.03265  0.60072  0.20938  1.0000
  C   C63       1.0  0.04450  0.60309  0.19355  1.0000
  C   C64       1.0  0.03036  0.54039  0.15244  1.0000
  H   H93       1.0  0.11355  0.58219  0.47800  1.0000
  H   H94       1.0  0.01170  0.59426  0.11118  1.0000
  H   H95       1.0  0.06128  0.59049  0.20932  1.0000
  C   C65       1.0  0.03761  0.59021  0.16405  1.0000
  C   C66       1.0  0.00463  0.49484  0.14730  1.0000
  N   N7        1.0  0.10795  0.65561  0.38846  1.0000
  C   C67       1.0  0.16901  0.60633  0.33501  1.0000
  H   H96       1.0  0.05588  0.59950  0.15811  1.0000
  C   C68       1.0  0.09417  0.56676  0.47493  1.0000
  H   H97       1.0  0.10552  0.53430  0.12459  1.0000
  H   H98       1.0  0.12434  0.55022  0.16419  1.0000
  S   S32       1.0  0.06206  0.50590  0.15111  1.0000
  H   H99       1.0  0.05464  0.58282  0.26208  1.0000
  H   H100      1.0  0.10469  0.52475  0.02341  1.0000
  H   H101      1.0  0.07182  0.58193  0.20830  1.0000
  H   H102      1.0  0.10714  0.64552  0.35676  1.0000
  C   C69       1.0  0.08847  0.53343  0.47732  1.0000
  H   H103      1.0  0.03335  0.53294  0.14553  1.0000
  H   H104      1.0  0.06582  0.50288  0.06086  1.0000
  H   H105      1.0  0.12193  0.56601  0.44315  1.0000
  C   C70       1.0  0.07777  0.52936  0.99443  1.0000
  H   H106      1.0  0.12649  0.66348  0.36969  1.0000
  C   C71       1.0  0.16190  0.58591  0.33488  1.0000
  C   C72       1.0  0.00919  0.47272  0.15069  1.0000
  H   H107      1.0  0.06528  0.48743  0.06868  1.0000
  C   C73       1.0  0.01565  0.52707  0.19406  1.0000
  H   H108      1.0  0.06540  0.56024  0.22961  1.0000
  C   C74       1.0  0.16477  0.56392  0.39678  1.0000
  C   C75       1.0  0.10389  0.57253  0.42405  1.0000
  H   H109      1.0  0.08902  0.65154  0.40214  1.0000
  H   H110      1.0  0.09535  0.66000  0.36522  1.0000
  H   H111      1.0  0.11623  0.64187  0.38028  1.0000
  C   C76       1.0  0.04688  0.59773  0.17079  1.0000
  C   C77       1.0  0.11299  0.56275  0.45842  1.0000
  C   C78       1.0  0.12147  0.54450  0.15020  1.0000
  H   H112      1.0  0.10161  0.52183  0.20228  1.0000
  H   H113      1.0  0.02074  0.52998  0.20915  1.0000
  H   H114      1.0  0.01506  0.55417  0.15655  1.0000
  H   H115      1.0  0.08793  0.50989  0.26067  1.0000
  H   H116      1.0  0.09912  0.56396  0.42127  1.0000
  H   H117      1.0  0.00392  0.58133  0.08157  1.0000
  C   C79       1.0  0.10942  0.65397  0.41823  1.0000
  H   H118      1.0  0.09637  0.66698  0.39424  1.0000
  H   H119      1.0  0.10668  0.58948  0.45259  1.0000
  H   H120      1.0  0.11418  0.56116  0.48078  1.0000
  C   C80       1.0  0.10787  0.61179  0.00751  1.0000
  H   H121      1.0  0.16066  0.58302  0.35869  1.0000
  H   H122      1.0  0.08854  0.57304  0.47221  1.0000
  H   H123      1.0  0.00614  0.52400  0.20591  1.0000
  H   H124      1.0  0.10222  0.64668  0.43393  1.0000
  H   H125      1.0  0.11549  0.59370  0.99221  1.0000
  H   H126      1.0  0.10956  0.66215  0.42586  1.0000
  H   H127      1.0  0.01308  0.52489  0.69715  1.0000
  H   H128      1.0  0.05850  0.49921  0.53364  1.0000
  H   H129      1.0  0.02720  0.48516  0.65190  1.0000
  H   H130      1.0  0.01135  0.46860  0.64883  1.0000
  C   C81       1.0  0.01854  0.48640  0.65157  1.0000
  H   H131      1.0  0.15003  0.58560  0.85525  1.0000
  H   H132      1.0  0.06073  0.48071  0.60283  1.0000
  C   C82       1.0  0.05847  0.48920  0.60406  1.0000
  H   H133      1.0  0.09864  0.61390  0.96163  1.0000
  H   H134      1.0  0.03830  0.48779  0.56398  1.0000
  C   C83       1.0  0.01622  0.49728  0.65355  1.0000
  H   H135      1.0  0.04414  0.47610  0.58009  1.0000
  H   H136      1.0  0.07035  0.50197  0.55062  1.0000
  H   H137      1.0  0.03568  0.48317  0.60253  1.0000
  C   C84       1.0  0.04239  0.48476  0.58176  1.0000
  H   H138      1.0  0.05228  0.48774  0.62557  1.0000
  N   N8        1.0  0.05331  0.49358  0.58021  1.0000
  H   H139      1.0  0.06609  0.50489  0.89360  1.0000
  H   H140      1.0  0.04651  0.50842  0.56540  1.0000
  C   C85       1.0  0.05050  0.50485  0.58287  1.0000
  C   C86       1.0  0.00950  0.47700  0.65002  1.0000
  C   C87       1.0  0.06191  0.49555  0.55218  1.0000
  Fe  Fe17      1.0  0.15011  0.63705  0.90366  1.0000
  S   S33       1.0  0.15917  0.65256  0.86552  1.0000
  S   S34       1.0  0.15274  0.61871  0.90768  1.0000
  Fe  Fe18      1.0  0.13609  0.65086  0.93653  1.0000
  C   C88       1.0  0.11470  0.65956  0.70089  1.0000
  H   H141      1.0  0.00703  0.54152  0.67013  1.0000
  Fe  Fe19      1.0  0.14096  0.65567  0.86949  1.0000
  S   S35       1.0  0.13209  0.65947  0.83180  1.0000
  Fe  Fe20      1.0  0.16141  0.66306  0.89882  1.0000
  S   S36       1.0  0.13200  0.63966  0.90629  1.0000
  S   S37       1.0  0.15355  0.64689  0.93672  1.0000
  Fe  Fe21      1.0  0.07213  0.52255  0.61353  1.0000
  H   H142      1.0  0.08629  0.51337  0.86114  1.0000
  S   S38       1.0  0.08400  0.51888  0.57518  1.0000
  Fe  Fe22      1.0  0.06329  0.54119  0.63857  1.0000
  S   S39       1.0  0.05252  0.52840  0.68026  1.0000
  S   S40       1.0  0.06264  0.56013  0.63185  1.0000
  Fe  Fe23      1.0  0.06871  0.52151  0.67894  1.0000
  S   S41       1.0  0.07619  0.51733  0.71894  1.0000
  Fe  Fe24      1.0  0.04694  0.51640  0.65242  1.0000
  H   H143      1.0  0.05645  0.59721  0.69144  1.0000
  S   S42       1.0  0.07973  0.53495  0.63799  1.0000
  S   S43       1.0  0.05661  0.53009  0.61068  1.0000
  Fe  Fe25      1.0  0.07608  0.62193  0.69218  1.0000
  S   S44       1.0  0.08580  0.61496  0.65780  1.0000
  S   S45       1.0  0.05660  0.62154  0.69439  1.0000
  Fe  Fe26      1.0  0.09734  0.62628  0.72068  1.0000
  S   S46       1.0  0.10781  0.61917  0.68782  1.0000
  S   S47       1.0  0.10758  0.62817  0.75591  1.0000
  Fe  Fe27      1.0  0.10148  0.62977  0.65340  1.0000
  S   S48       1.0  0.11670  0.63880  0.61285  1.0000
  Fe  Fe28      1.0  0.09138  0.60514  0.69478  1.0000
  S   S49       1.0  0.09277  0.58643  0.70237  1.0000
  S   S50       1.0  0.09167  0.63786  0.68566  1.0000
  S   S51       1.0  0.08100  0.61127  0.72943  1.0000
  Fe  Fe29      1.0  0.11501  0.56960  0.86329  1.0000
  S   S52       1.0  0.09826  0.55617  0.86841  1.0000
  S   S53       1.0  0.11568  0.58892  0.85706  1.0000
  Fe  Fe30      1.0  0.12978  0.55240  0.85827  1.0000
  S   S54       1.0  0.11401  0.53713  0.86256  1.0000
  S   S55       1.0  0.14942  0.55299  0.84639  1.0000
  Fe  Fe31      1.0  0.10792  0.55015  0.83203  1.0000
  S   S56       1.0  0.09799  0.54976  0.79601  1.0000
  Fe  Fe32      1.0  0.10486  0.54388  0.89884  1.0000
  H   H144      1.0  0.09116  0.52890  0.84382  1.0000
  S   S57       1.0  0.12437  0.56468  0.82498  1.0000
  S   S58       1.0  0.12101  0.55805  0.89657  1.0000
  H   H145      1.0  0.06318  0.53578  0.87441  1.0000
  H   H146      1.0  0.11232  0.61752  0.93447  1.0000
  C   C89       1.0  0.16089  0.56185  0.85691  1.0000
  H   H147      1.0  0.08897  0.52383  0.88229  1.0000
  C   C90       1.0  0.15850  0.56715  0.87971  1.0000
  H   H148      1.0  0.07786  0.54183  0.85132  1.0000
  H   H149      1.0  0.14948  0.56565  0.89190  1.0000
  C   C91       1.0  0.09247  0.54067  0.77403  1.0000
  C   C92       1.0  0.09323  0.52894  0.77705  1.0000
  C   C93       1.0  0.08825  0.52200  0.76004  1.0000
  C   C94       1.0  0.08256  0.52666  0.73941  1.0000
  C   C95       1.0  0.08186  0.53840  0.73635  1.0000
  C   C96       1.0  0.08672  0.54530  0.75354  1.0000
  H   H150      1.0  0.09766  0.52518  0.79243  1.0000
  H   H151      1.0  0.08890  0.51296  0.76268  1.0000
  H   H152      1.0  0.07745  0.54213  0.72088  1.0000
  H   H153      1.0  0.08600  0.55432  0.75085  1.0000
  C   C97       1.0  0.08584  0.52522  0.53772  1.0000
  C   C98       1.0  0.09571  0.52455  0.51745  1.0000
  C   C99       1.0  0.08540  0.52222  0.86368  1.0000
  C   C100      1.0  0.07734  0.53014  0.52760  1.0000
  H   H154      1.0  0.10230  0.52067  0.52501  1.0000
  C   C101      1.0  0.11168  0.59886  0.97650  1.0000
  H   H155      1.0  0.06968  0.53071  0.54282  1.0000
  H   H156      1.0  0.14917  0.60960  0.82063  1.0000
  C   C102      1.0  0.07003  0.56675  0.65428  1.0000
  C   C103      1.0  0.06863  0.57767  0.65831  1.0000
  C   C104      1.0  0.07515  0.58340  0.67459  1.0000
  C   C105      1.0  0.08330  0.57841  0.68613  1.0000
  C   C106      1.0  0.08441  0.56731  0.68296  1.0000
  C   C107      1.0  0.07766  0.56141  0.66735  1.0000
  H   H157      1.0  0.06253  0.58172  0.64885  1.0000
  H   H158      1.0  0.07386  0.59167  0.67817  1.0000
  H   H159      1.0  0.09065  0.56335  0.69207  1.0000
  H   H160      1.0  0.07862  0.55288  0.66499  1.0000
  C   C108      1.0  0.03301  0.55123  0.68631  1.0000
  H   H161      1.0  0.09222  0.59961  0.78305  1.0000
  H   H162      1.0  0.15831  0.60733  0.84502  1.0000
  H   H163      1.0  0.09420  0.58432  0.82374  1.0000
  H   H164      1.0  0.13090  0.61672  0.94914  1.0000
  C   C109      1.0  0.12026  0.64208  0.51507  1.0000
  C   C110      1.0  0.13020  0.64335  0.52625  1.0000
  C   C111      1.0  0.12891  0.64215  0.55620  1.0000
  C   C112      1.0  0.11769  0.63947  0.57553  1.0000
  C   C113      1.0  0.10773  0.63786  0.56449  1.0000
  C   C114      1.0  0.10902  0.63923  0.53447  1.0000
  H   H165      1.0  0.13890  0.64559  0.51171  1.0000
  H   H166      1.0  0.13670  0.64348  0.56436  1.0000
  H   H167      1.0  0.09904  0.63600  0.57890  1.0000
  H   H168      1.0  0.10126  0.63832  0.52615  1.0000
  C   C115      1.0  0.12498  0.65036  0.81187  1.0000
  C   C116      1.0  0.11806  0.65492  0.79441  1.0000
  C   C117      1.0  0.11248  0.64822  0.77781  1.0000
  C   C118      1.0  0.11389  0.63686  0.77781  1.0000
  C   C119      1.0  0.12081  0.63228  0.79526  1.0000
  C   C120      1.0  0.12626  0.63893  0.81218  1.0000
  H   H169      1.0  0.11688  0.66369  0.79405  1.0000
  H   H170      1.0  0.10693  0.65180  0.76542  1.0000
  H   H171      1.0  0.12201  0.62352  0.79571  1.0000
  H   H172      1.0  0.13159  0.63528  0.82521  1.0000
  C   C121      1.0  0.14235  0.61036  0.89404  1.0000
  C   C122      1.0  0.13989  0.59798  0.90151  1.0000
  C   C123      1.0  0.13153  0.59130  0.89072  1.0000
  C   C124      1.0  0.12568  0.59696  0.87228  1.0000
  C   C125      1.0  0.12815  0.60932  0.86493  1.0000
  C   C126      1.0  0.13653  0.61601  0.87557  1.0000
  H   H173      1.0  0.14440  0.59355  0.91570  1.0000
  H   H174      1.0  0.12967  0.58178  0.89664  1.0000
  H   H175      1.0  0.12367  0.61375  0.85062  1.0000
  H   H176      1.0  0.13864  0.62556  0.86890  1.0000
  N   N9        1.0  0.02109  0.54339  0.69136  1.0000
  H   H177      1.0  0.13306  0.65928  0.72395  1.0000
  H   H178      1.0  0.12161  0.65685  0.64729  1.0000
  H   H179      1.0  0.05638  0.51433  0.89932  1.0000
  C   C127      1.0  0.01611  0.54714  0.66675  1.0000
  H   H180      1.0  0.09517  0.56523  0.49746  1.0000
  H   H181      1.0  0.08959  0.57292  0.80605  1.0000
  N   N10       1.0  0.15942  0.59715  0.81350  1.0000
  H   H182      1.0  0.01671  0.60262  0.68776  1.0000
  S   S59       1.0  0.14381  0.66754  0.90002  1.0000
  H   H183      1.0  0.03274  0.56064  0.68410  1.0000
  C   C128      1.0  0.04555  0.60938  0.69188  1.0000
  C   C129      1.0  0.02189  0.53106  0.69390  1.0000
  N   N11       1.0  0.12680  0.65997  0.68542  1.0000
  H   H184      1.0  0.11480  0.66493  0.71702  1.0000
  H   H185      1.0  0.02165  0.54652  0.64617  1.0000
  H   H186      1.0  0.05914  0.52078  0.84626  1.0000
  H   H187      1.0  0.11854  0.60290  0.76105  1.0000
  H   H188      1.0  0.06903  0.51556  0.91413  1.0000
  H   H189      1.0  0.03716  0.54866  0.70425  1.0000
  S   S60       1.0  0.08922  0.53301  0.93700  1.0000
  C   C130      1.0  0.06579  0.51401  0.89500  1.0000
  C   C131      1.0  0.09732  0.57957  0.80754  1.0000
  C   C132      1.0  0.02526  0.60129  0.68906  1.0000
  H   H190      1.0  0.03228  0.61913  0.69186  1.0000
  S   S61       1.0  0.02712  0.50950  0.65597  1.0000
  H   H191      1.0  0.07016  0.53037  0.98644  1.0000
  H   H192      1.0  0.10674  0.53037  0.97043  1.0000
  H   H193      1.0  0.15067  0.57855  0.82612  1.0000
  H   H194      1.0  0.08757  0.58819  0.76553  1.0000
  C   C133      1.0  0.10755  0.58109  0.75852  1.0000
  H   H195      1.0  0.04418  0.50378  0.60400  1.0000
  H   H196      1.0  0.01685  0.54131  0.73730  1.0000
  C   C134      1.0  0.15246  0.67097  0.96841  1.0000
  C   C135      1.0  0.15894  0.59841  0.78306  1.0000
  H   H197      1.0  0.04100  0.58071  0.68754  1.0000
  C   C136      1.0  0.11377  0.59638  0.78207  1.0000
  H   H198      1.0  0.11095  0.60151  0.79769  1.0000
  C   C137      1.0  0.10832  0.61777  0.95694  1.0000
  S   S62       1.0  0.06226  0.50818  0.65440  1.0000
  H   H199      1.0  0.06412  0.48720  0.54918  1.0000
  H   H200      1.0  0.11218  0.58702  0.73665  1.0000
  C   C138      1.0  0.03416  0.61070  0.69119  1.0000
  H   H201      1.0  0.09986  0.60062  0.74673  1.0000
  C   C139      1.0  0.08863  0.53083  0.97458  1.0000
  C   C140      1.0  0.02758  0.59034  0.68779  1.0000
  H   H202      1.0  0.13060  0.61225  0.98668  1.0000
  C   C141      1.0  0.01337  0.54413  0.71829  1.0000
  C   C142      1.0  0.07238  0.53488  0.87109  1.0000
  C   C143      1.0  0.09540  0.59433  0.76822  1.0000
  C   C144      1.0  0.00477  0.49859  0.65390  1.0000
  C   C145      1.0  0.04783  0.59844  0.69068  1.0000
  H   H203      1.0  0.01562  0.55651  0.66387  1.0000
  H   H204      1.0  0.12008  0.59179  0.79029  1.0000
  C   C146      1.0  0.14986  0.58691  0.83216  1.0000
  H   H205      1.0  0.05862  0.51169  0.58133  1.0000
  H   H206      1.0  0.03902  0.55091  0.66605  1.0000
  C   C147      1.0  0.07857  0.53404  0.49762  1.0000
  N   N12       1.0  0.10352  0.58784  0.77907  1.0000
  H   H207      1.0  0.06676  0.49568  0.60339  1.0000
  H   H208      1.0  0.10965  0.65034  0.71287  1.0000
  H   H209      1.0  0.16486  0.61596  0.80841  1.0000
  H   H210      1.0  0.12131  0.64378  0.67333  1.0000
  H   H211      1.0  0.10969  0.62726  0.95728  1.0000
  S   S63       1.0  0.01679  0.57798  0.68520  1.0000
  H   H212      1.0  0.07565  0.53686  0.88984  1.0000
  H   H213      1.0  0.01108  0.59269  0.78656  1.0000
  H   H214      1.0  0.07180  0.53758  0.49005  1.0000
  C   C148      1.0  0.03896  0.58904  0.68859  1.0000
  C   C149      1.0  0.06857  0.52065  0.84324  1.0000
  H   H215      1.0  0.16004  0.59031  0.77600  1.0000
  N   N13       1.0  0.10327  0.59967  0.59725  1.0000
  C   C150      1.0  0.10083  0.58666  0.60226  1.0000
  C   C151      1.0  0.10789  0.60323  0.62088  1.0000
  C   C152      1.0  0.09222  0.60329  0.59660  1.0000
  C   C153      1.0  0.11210  0.60549  0.56934  1.0000
  H   H216      1.0  0.09427  0.58206  0.62331  1.0000
  H   H217      1.0  0.10894  0.58355  0.60289  1.0000
  H   H218      1.0  0.09712  0.58357  0.58519  1.0000
  H   H219      1.0  0.11621  0.60062  0.62211  1.0000
  H   H220      1.0  0.10979  0.61300  0.61793  1.0000
  H   H221      1.0  0.10146  0.59898  0.64224  1.0000
  H   H222      1.0  0.09367  0.61304  0.59337  1.0000
  H   H223      1.0  0.08531  0.59894  0.61719  1.0000
  H   H224      1.0  0.08852  0.60084  0.57886  1.0000
  H   H225      1.0  0.11416  0.61532  0.56510  1.0000
  H   H226      1.0  0.10889  0.60310  0.55094  1.0000
  H   H227      1.0  0.12055  0.60295  0.56905  1.0000
  H   H228      1.0  0.11361  0.57595  0.76612  1.0000
  H   H229      1.0  0.10328  0.57459  0.81613  1.0000
  N   N14       1.0  0.07302  0.52293  0.86823  1.0000
  H   H230      1.0  0.06936  0.51191  0.83961  1.0000
  H   H231      1.0  0.11593  0.59825  0.95451  1.0000
  H   H232      1.0  0.09998  0.57459  0.75581  1.0000
  H   H233      1.0  0.07364  0.52750  0.82293  1.0000
  C   C154      1.0  0.13286  0.65469  0.70628  1.0000
  H   H234      1.0  0.10966  0.66300  0.68573  1.0000
  H   H235      1.0  0.14212  0.65512  0.69557  1.0000
  H   H236      1.0  0.15033  0.59984  0.78000  1.0000
  C   C155      1.0  0.09838  0.52944  0.98531  1.0000
  C   C156      1.0  0.12621  0.65320  0.66334  1.0000
  H   H237      1.0  0.02555  0.52783  0.71232  1.0000
  H   H238      1.0  0.12830  0.64519  0.71677  1.0000
  C   C157      1.0  0.15788  0.60800  0.82220  1.0000
  H   H239      1.0  0.13515  0.65327  0.65110  1.0000
  H   H240      1.0  0.02777  0.53029  0.67399  1.0000
  H   H241      1.0  0.01262  0.55335  0.71702  1.0000
  H   H242      1.0  0.14100  0.58807  0.83064  1.0000
  H   H243      1.0  0.16581  0.57828  0.90480  1.0000
  H   H244      1.0  0.15656  0.66711  0.98533  1.0000
  C   C158      1.0  0.16780  0.57430  0.88702  1.0000
  H   H245      1.0  0.01533  0.59026  0.75125  1.0000
  H   H246      1.0  0.00428  0.53837  0.72255  1.0000
  H   H247      1.0  0.14510  0.66382  0.96733  1.0000
  S   S64       1.0  0.12103  0.64816  0.97654  1.0000
  H   H248      1.0  0.16606  0.60603  0.76826  1.0000
  C   C159      1.0  0.00921  0.59402  0.76489  1.0000
  C   C160      1.0  0.12634  0.61689  0.97124  1.0000
  H   H249      1.0  0.01157  0.60373  0.75487  1.0000
  H   H250      1.0  0.12809  0.62630  0.97220  1.0000
  N   N15       1.0  0.11355  0.61132  0.97807  1.0000
  H   H251      1.0  0.10212  0.59437  0.98137  1.0000
  C   C161      1.0  0.13920  0.67718  0.00291  1.0000
  H   H252      1.0  0.16240  0.68718  0.99319  1.0000
  H   H253      1.0  0.13591  0.68465  0.00878  1.0000
  H   H254      1.0  0.11788  0.67390  0.37402  1.0000
  H   H255      1.0  0.14281  0.67319  0.02075  1.0000
  H   H256      1.0  0.13940  0.69355  0.95575  1.0000
  H   H257      1.0  0.13513  0.67899  0.95039  1.0000
  C   C162      1.0  0.15818  0.69045  0.97591  1.0000
  H   H258      1.0  0.14922  0.68880  0.93015  1.0000
  N   N16       1.0  0.14815  0.68112  0.97478  1.0000
  H   H259      1.0  0.15531  0.69833  0.98035  1.0000
  C   C163      1.0  0.14275  0.68584  0.95175  1.0000
  H   H260      1.0  0.13405  0.67774  0.68729  1.0000
  H   H261      1.0  0.12896  0.67666  0.65548  1.0000
  H   H262      1.0  0.16514  0.69348  0.95506  1.0000
  H   H263      1.0  0.15923  0.67361  0.94731  1.0000
  H   H264      1.0  0.14252  0.67303  0.65908  1.0000
  C   C164      1.0  0.13338  0.67241  0.67119  1.0000
  N   N17       1.0  0.30236  0.60768  0.10281  1.0000
  H   H265      1.0  0.31525  0.62245  0.07208  1.0000
  S   S65       1.0  0.18756  0.57443  0.39579  1.0000
  H   H266      1.0  0.23611  0.58562  0.00297  1.0000
  C   C165      1.0  0.33662  0.63655  0.23833  1.0000
  C   C166      1.0  0.17956  0.56336  0.35571  1.0000
  C   C167      1.0  0.17667  0.56689  0.38130  1.0000
  H   H267      1.0  0.31341  0.60897  0.06103  1.0000
  H   H268      1.0  0.18869  0.56545  0.34370  1.0000
  H   H269      1.0  0.22483  0.66542  0.01243  1.0000
  H   H270      1.0  0.20948  0.56624  0.38990  1.0000
  C   C168      1.0  0.31098  0.60391  0.11803  1.0000
  Fe  Fe33      1.0  0.33240  0.62080  0.36322  1.0000
  H   H271      1.0  0.18017  0.60854  0.27966  1.0000
  C   C169      1.0  0.29650  0.61536  0.11763  1.0000
  C   C170      1.0  0.18117  0.63225  0.44082  1.0000
  C   C171      1.0  0.19111  0.61892  0.42111  1.0000
  H   H272      1.0  0.24200  0.59992  0.47164  1.0000
  H   H273      1.0  0.28670  0.59973  0.09153  1.0000
  C   C172      1.0  0.18279  0.59444  0.32693  1.0000
  C   C173      1.0  0.29337  0.59715  0.10278  1.0000
  C   C174      1.0  0.23358  0.60976  0.44374  1.0000
  H   H274      1.0  0.29914  0.61572  0.45458  1.0000
  N   N18       1.0  0.19006  0.63125  0.41623  1.0000
  S   S66       1.0  0.18279  0.66602  0.39931  1.0000
  H   H275      1.0  0.30304  0.63069  0.00988  1.0000
  C   C175      1.0  0.27599  0.60815  0.48150  1.0000
  H   H276      1.0  0.21028  0.53732  0.43427  1.0000
  C   C176      1.0  0.18635  0.63452  0.38925  1.0000
  H   H277      1.0  0.17296  0.55369  0.32687  1.0000
  H   H278      1.0  0.31557  0.59812  0.10737  1.0000
  H   H279      1.0  0.20186  0.55208  0.38758  1.0000
  H   H280      1.0  0.19286  0.63385  0.37027  1.0000
  H   H281      1.0  0.22777  0.56513  0.35782  1.0000
  H   H282      1.0  0.22571  0.67095  0.07097  1.0000
  H   H283      1.0  0.32877  0.60655  0.26296  1.0000
  H   H284      1.0  0.29200  0.61078  0.14067  1.0000
  H   H285      1.0  0.29034  0.63366  0.33493  1.0000
  Fe  Fe34      1.0  0.32833  0.65296  0.12406  1.0000
  C   C177      1.0  0.29434  0.62273  0.45582  1.0000
  S   S67       1.0  0.31302  0.66076  0.12093  1.0000
  H   H286      1.0  0.29122  0.62450  0.43579  1.0000
  H   H287      1.0  0.21009  0.53480  0.39935  1.0000
  H   H288      1.0  0.17473  0.59334  0.27977  1.0000
  H   H289      1.0  0.28853  0.59193  0.12522  1.0000
  S   S68       1.0  0.32373  0.60132  0.37258  1.0000
  H   H290      1.0  0.19412  0.61621  0.44101  1.0000
  H   H291      1.0  0.28252  0.60778  0.33458  1.0000
  H   H292      1.0  0.22034  0.55093  0.35491  1.0000
  Fe  Fe35      1.0  0.30962  0.60467  0.40602  1.0000
  S   S69       1.0  0.28962  0.60209  0.41562  1.0000
  S   S70       1.0  0.31784  0.62421  0.39427  1.0000
  Fe  Fe36      1.0  0.23303  0.59117  0.35939  1.0000
  S   S71       1.0  0.23611  0.61081  0.34256  1.0000
  S   S72       1.0  0.24838  0.58265  0.35922  1.0000
  C   C178      1.0  0.22564  0.55880  0.41508  1.0000
  Fe  Fe37      1.0  0.22151  0.60593  0.32109  1.0000
  S   S73       1.0  0.22039  0.61588  0.27742  1.0000
  S   S74       1.0  0.21942  0.58632  0.33465  1.0000
  Fe  Fe38      1.0  0.26386  0.62761  0.07044  1.0000
  S   S75       1.0  0.25328  0.60875  0.08190  1.0000
  S   S76       1.0  0.28363  0.63186  0.05270  1.0000
  Fe  Fe39      1.0  0.24232  0.63646  0.08731  1.0000
  S   S77       1.0  0.22975  0.61832  0.10058  1.0000
  S   S78       1.0  0.23641  0.65287  0.09188  1.0000
  Fe  Fe40      1.0  0.24341  0.61263  0.12162  1.0000
  S   S79       1.0  0.24106  0.60026  0.16528  1.0000
  Fe  Fe41      1.0  0.24054  0.61589  0.05971  1.0000
  S   S80       1.0  0.23234  0.60498  0.03237  1.0000
  S   S81       1.0  0.25500  0.63089  0.11195  1.0000
  S   S82       1.0  0.25202  0.63454  0.04475  1.0000
  C   C179      1.0  0.17063  0.55668  0.34622  1.0000
  H   H293      1.0  0.22073  0.55702  0.43811  1.0000
  S   S83       1.0  0.20730  0.60599  0.35885  1.0000
  C   C180      1.0  0.24704  0.66275  0.10144  1.0000
  C   C181      1.0  0.25873  0.66199  0.09595  1.0000
  H   H294      1.0  0.30295  0.62360  0.11722  1.0000
  H   H295      1.0  0.27231  0.60962  0.46227  1.0000
  H   H296      1.0  0.26143  0.65596  0.08384  1.0000
  C   C182      1.0  0.22904  0.62705  0.45698  1.0000
  H   H297      1.0  0.30231  0.61712  0.06038  1.0000
  C   C183      1.0  0.22548  0.61086  0.24683  1.0000
  C   C184      1.0  0.22381  0.61619  0.22006  1.0000
  C   C185      1.0  0.22842  0.61290  0.19493  1.0000
  C   C186      1.0  0.23465  0.60418  0.19652  1.0000
  C   C187      1.0  0.23611  0.59869  0.22338  1.0000
  C   C188      1.0  0.23160  0.60206  0.24846  1.0000
  H   H298      1.0  0.21901  0.62294  0.21871  1.0000
  H   H299      1.0  0.22717  0.61709  0.17433  1.0000
  H   H300      1.0  0.24090  0.59193  0.22472  1.0000
  H   H301      1.0  0.23298  0.59794  0.26894  1.0000
  C   C189      1.0  0.22995  0.61143  0.99889  1.0000
  H   H302      1.0  0.18253  0.61258  0.42334  1.0000
  N   N19       1.0  0.28441  0.61902  0.48202  1.0000
  C   C190      1.0  0.27861  0.59681  0.39853  1.0000
  C   C191      1.0  0.27957  0.58846  0.38242  1.0000
  C   C192      1.0  0.27028  0.58421  0.37039  1.0000
  C   C193      1.0  0.26003  0.58838  0.37401  1.0000
  C   C194      1.0  0.25919  0.59687  0.38969  1.0000
  C   C195      1.0  0.26837  0.60096  0.40209  1.0000
  H   H303      1.0  0.28730  0.58504  0.37986  1.0000
  H   H304      1.0  0.27099  0.57760  0.35839  1.0000
  H   H305      1.0  0.25135  0.60012  0.39278  1.0000
  H   H306      1.0  0.26745  0.60735  0.41465  1.0000
  H   H307      1.0  0.20736  0.67141  0.39973  1.0000
  H   H308      1.0  0.22818  0.56855  0.40586  1.0000
  H   H309      1.0  0.31801  0.61164  0.11793  1.0000
  H   H310      1.0  0.27458  0.63044  0.46377  1.0000
  H   H311      1.0  0.20486  0.63689  0.43331  1.0000
  H   H312      1.0  0.20216  0.55483  0.42226  1.0000
  C   C196      1.0  0.30505  0.65370  0.10007  1.0000
  C   C197      1.0  0.31066  0.64869  0.07952  1.0000
  C   C198      1.0  0.30413  0.64260  0.06382  1.0000
  C   C199      1.0  0.29190  0.64110  0.06937  1.0000
  C   C200      1.0  0.28639  0.64646  0.08925  1.0000
  C   C201      1.0  0.29296  0.65279  0.10451  1.0000
  H   H313      1.0  0.32005  0.64953  0.07561  1.0000
  H   H314      1.0  0.30859  0.63892  0.04774  1.0000
  H   H315      1.0  0.27711  0.64581  0.09281  1.0000
  H   H316      1.0  0.28864  0.65673  0.12025  1.0000
  C   C202      1.0  0.20754  0.55658  0.39965  1.0000
  S   S84       1.0  0.31887  0.60116  0.44166  1.0000
  Fe  Fe42      1.0  0.22167  0.60895  0.38186  1.0000
  N   N20       1.0  0.25411  0.64398  0.19245  1.0000
  C   C203      1.0  0.24783  0.64251  0.22283  1.0000
  C   C204      1.0  0.25817  0.63328  0.18975  1.0000
  C   C205      1.0  0.26441  0.65438  0.18349  1.0000
  C   C206      1.0  0.24605  0.64580  0.17366  1.0000
  H   H317      1.0  0.24463  0.65042  0.22558  1.0000
  H   H318      1.0  0.25361  0.64105  0.23770  1.0000
  H   H319      1.0  0.23999  0.63475  0.23032  1.0000
  H   H320      1.0  0.26430  0.63165  0.20353  1.0000
  H   H321      1.0  0.25064  0.62525  0.19648  1.0000
  H   H322      1.0  0.26284  0.63405  0.16702  1.0000
  H   H323      1.0  0.26168  0.66262  0.18522  1.0000
  H   H324      1.0  0.26930  0.65582  0.16057  1.0000
  H   H325      1.0  0.27075  0.65334  0.19703  1.0000
  H   H326      1.0  0.25041  0.64666  0.15073  1.0000
  H   H327      1.0  0.24309  0.65401  0.17441  1.0000
  H   H328      1.0  0.23805  0.63826  0.18002  1.0000
  C   C207      1.0  0.22539  0.55545  0.36811  1.0000
  H   H329      1.0  0.23403  0.55610  0.41457  1.0000
  H   H330      1.0  0.24052  0.67032  0.99689  1.0000
  C   C208      1.0  0.29556  0.62746  0.34216  1.0000
  H   H331      1.0  0.29007  0.62116  0.36293  1.0000
  H   H332      1.0  0.30345  0.63267  0.34696  1.0000
  H   H333      1.0  0.28301  0.62011  0.30608  1.0000
  H   H334      1.0  0.31440  0.63524  0.29674  1.0000
  S   S85       1.0  0.21931  0.58957  0.39996  1.0000
  N   N21       1.0  0.29903  0.62113  0.32011  1.0000
  C   C209      1.0  0.30639  0.62977  0.29303  1.0000
  C   C210      1.0  0.28835  0.61426  0.31449  1.0000
  H   H335      1.0  0.30948  0.62526  0.27621  1.0000
  H   H336      1.0  0.31407  0.61798  0.33486  1.0000
  H   H337      1.0  0.30073  0.60649  0.35150  1.0000
  S   S86       1.0  0.22219  0.62215  0.40925  1.0000
  H   H338      1.0  0.30856  0.60795  0.31497  1.0000
  H   H339      1.0  0.29066  0.60918  0.29839  1.0000
  C   C211      1.0  0.30588  0.61301  0.33082  1.0000
  H   H340      1.0  0.28471  0.62001  0.00099  1.0000
  H   H341      1.0  0.30147  0.63592  0.28388  1.0000
  N   N22       1.0  0.21851  0.55264  0.39854  1.0000
  Fe  Fe43      1.0  0.20596  0.58662  0.37374  1.0000
  H   H342      1.0  0.29746  0.59120  0.09160  1.0000
  H   H343      1.0  0.24950  0.58291  0.01008  1.0000
  C   C212      1.0  0.22875  0.61945  0.43849  1.0000
  C   C213      1.0  0.26693  0.66890  0.10654  1.0000
  C   C214      1.0  0.17283  0.60042  0.29031  1.0000
  H   H344      1.0  0.30091  0.63089  0.45558  1.0000
  C   C215      1.0  0.23345  0.66889  0.01690  1.0000
  C   C216      1.0  0.24350  0.58169  0.99565  1.0000
  H   H345      1.0  0.23385  0.55281  0.36645  1.0000
  H   H346      1.0  0.27589  0.66806  0.10284  1.0000
  H   H347      1.0  0.23353  0.60392  0.42955  1.0000
  H   H348      1.0  0.22356  0.53644  0.41081  1.0000
  H   H349      1.0  0.23973  0.62917  0.99519  1.0000
  H   H350      1.0  0.19772  0.61786  0.40290  1.0000
  H   H351      1.0  0.22539  0.63461  0.45298  1.0000
  C   C217      1.0  0.21548  0.53972  0.41131  1.0000
  H   H352      1.0  0.30672  0.59904  0.14101  1.0000
  Fe  Fe44      1.0  0.32780  0.62050  0.42771  1.0000
  C   C218      1.0  0.23856  0.61500  0.48633  1.0000
  S   S87       1.0  0.32425  0.63327  0.13434  1.0000
  C   C219      1.0  0.30856  0.61432  0.07270  1.0000
  H   H353      1.0  0.28975  0.61813  0.10702  1.0000
  H   H354      1.0  0.23475  0.67177  0.11979  1.0000
  H   H355      1.0  0.21969  0.59481  0.99607  1.0000
  H   H356      1.0  0.17766  0.62863  0.39045  1.0000
  H   H357      1.0  0.23476  0.66182  0.03381  1.0000
  H   H358      1.0  0.18547  0.64378  0.38496  1.0000
  C   C220      1.0  0.24377  0.67108  0.11572  1.0000
  H   H359      1.0  0.18494  0.58712  0.31773  1.0000
  C   C221      1.0  0.33151  0.61575  0.26315  1.0000
  C   C222      1.0  0.20158  0.63934  0.41372  1.0000
  C   C223      1.0  0.33370  0.61866  0.28834  1.0000
  H   H360      1.0  0.19039  0.60238  0.31686  1.0000
  C   C224      1.0  0.23842  0.60753  0.46759  1.0000
  Fe  Fe45      1.0  0.33575  0.63477  0.16489  1.0000
  H   H361      1.0  0.20098  0.64867  0.41077  1.0000
  H   H362      1.0  0.28973  0.64189  0.99033  1.0000
  H   H363      1.0  0.28030  0.60077  0.48048  1.0000
  H   H364      1.0  0.23970  0.57202  0.99937  1.0000
  H   H365      1.0  0.20844  0.63901  0.39495  1.0000
  S   S88       1.0  0.32933  0.63299  0.45675  1.0000
  H   H366      1.0  0.17235  0.62629  0.44322  1.0000
  C   C225      1.0  0.33300  0.62468  0.23808  1.0000
  H   H367      1.0  0.18018  0.64146  0.43781  1.0000
  C   C226      1.0  0.23396  0.62486  0.48082  1.0000
  H   H368      1.0  0.17610  0.61470  0.32548  1.0000
  N   N23       1.0  0.17164  0.59678  0.32178  1.0000
  H   H369      1.0  0.18226  0.59183  0.35048  1.0000
  H   H370      1.0  0.33272  0.61172  0.30741  1.0000
  H   H371      1.0  0.18369  0.62982  0.46154  1.0000
  H   H372      1.0  0.28432  0.63689  0.48331  1.0000
  Fe  Fe46      1.0  0.33387  0.59964  0.40714  1.0000
  S   S89       1.0  0.32966  0.62076  0.20736  1.0000
  C   C227      1.0  0.27827  0.62854  0.48288  1.0000
  S   S90       1.0  0.19086  0.58579  0.88140  1.0000
  H   H373      1.0  0.30992  0.62486  0.93786  1.0000
  C   C228      1.0  0.18204  0.57102  0.84880  1.0000
  C   C229      1.0  0.17963  0.57632  0.87160  1.0000
  C   C230      1.0  0.29468  0.64220  0.96814  1.0000
  H   H374      1.0  0.19107  0.57243  0.83677  1.0000
  H   H375      1.0  0.33569  0.64715  0.49458  1.0000
  N   N24       1.0  0.18819  0.61597  0.91483  1.0000
  C   C231      1.0  0.18293  0.61269  0.89176  1.0000
  C   C232      1.0  0.22794  0.62037  0.94245  1.0000
  C   C233      1.0  0.24553  0.66777  0.59791  1.0000
  H   H376      1.0  0.28370  0.62068  0.96440  1.0000
  H   H377      1.0  0.19307  0.63467  0.89451  1.0000
  H   H378      1.0  0.33615  0.64223  0.54614  1.0000
  C   C234      1.0  0.32563  0.61448  0.53950  1.0000
  C   C235      1.0  0.32961  0.62346  0.55258  1.0000
  H   H379      1.0  0.17842  0.60268  0.80249  1.0000
  C   C236      1.0  0.25451  0.60014  0.96126  1.0000
  H   H380      1.0  0.26122  0.66872  0.52214  1.0000
  H   H381      1.0  0.18754  0.59793  0.93479  1.0000
  C   C237      1.0  0.24140  0.58557  0.94666  1.0000
  H   H382      1.0  0.29348  0.60936  0.50817  1.0000
  C   C238      1.0  0.17272  0.56376  0.84167  1.0000
  H   H383      1.0  0.29571  0.62465  0.50834  1.0000
  S   S91       1.0  0.31657  0.66812  0.61237  1.0000
  C   C239      1.0  0.25230  0.66604  0.64181  1.0000
  H   H384      1.0  0.20136  0.63015  0.91978  1.0000
  H   H385      1.0  0.23404  0.63067  0.49514  1.0000
  C   C240      1.0  0.32537  0.61725  0.51021  1.0000
  H   H386      1.0  0.20429  0.62720  0.88505  1.0000
  H   H387      1.0  0.25897  0.60478  0.93835  1.0000
  H   H388      1.0  0.30033  0.63270  0.92324  1.0000
  H   H389      1.0  0.26986  0.67012  0.56386  1.0000
  H   H390      1.0  0.29342  0.66736  0.60328  1.0000
  Fe  Fe47      1.0  0.32570  0.63523  0.67663  1.0000
  S   S92       1.0  0.31728  0.63656  0.63973  1.0000
  C   C241      1.0  0.32915  0.62903  0.49379  1.0000
  H   H391      1.0  0.27072  0.62599  0.50243  1.0000
  S   S93       1.0  0.31479  0.62541  0.72175  1.0000
  C   C242      1.0  0.23378  0.62789  0.95669  1.0000
  H   H392      1.0  0.31363  0.64069  0.92980  1.0000
  H   H393      1.0  0.20109  0.60597  0.90885  1.0000
  C   C243      1.0  0.31468  0.65564  0.57181  1.0000
  S   S94       1.0  0.32650  0.60116  0.87021  1.0000
  H   H394      1.0  0.23766  0.63715  0.94575  1.0000
  S   S95       1.0  0.32305  0.60472  0.93594  1.0000
  H   H395      1.0  0.26835  0.60513  0.50098  1.0000
  Fe  Fe48      1.0  0.31422  0.60826  0.89956  1.0000
  S   S96       1.0  0.29459  0.60753  0.91063  1.0000
  S   S97       1.0  0.32508  0.62707  0.88131  1.0000
  Fe  Fe49      1.0  0.23745  0.59526  0.85685  1.0000
  S   S98       1.0  0.24253  0.61501  0.84246  1.0000
  S   S99       1.0  0.25263  0.58669  0.85943  1.0000
  Fe  Fe50      1.0  0.21083  0.59361  0.86231  1.0000
  S   S100      1.0  0.21482  0.61345  0.84733  1.0000
  Fe  Fe51      1.0  0.23022  0.61246  0.81393  1.0000
  S   S101      1.0  0.23553  0.62481  0.76896  1.0000
  Fe  Fe52      1.0  0.22665  0.61378  0.87741  1.0000
  H   H396      1.0  0.31283  0.64519  0.54112  1.0000
  S   S102      1.0  0.22567  0.59258  0.82647  1.0000
  Fe  Fe53      1.0  0.26958  0.63746  0.55585  1.0000
  S   S103      1.0  0.26047  0.61828  0.56979  1.0000
  S   S104      1.0  0.28905  0.64229  0.53643  1.0000
  Fe  Fe54      1.0  0.24688  0.64440  0.57230  1.0000
  S   S105      1.0  0.23569  0.62549  0.58716  1.0000
  S   S106      1.0  0.24101  0.66127  0.57138  1.0000
  Fe  Fe55      1.0  0.25011  0.62215  0.60872  1.0000
  S   S107      1.0  0.24900  0.60965  0.65153  1.0000
  Fe  Fe56      1.0  0.24715  0.62328  0.54672  1.0000
  S   S108      1.0  0.24443  0.61152  0.51646  1.0000
  S   S109      1.0  0.26049  0.64108  0.59642  1.0000
  S   S110      1.0  0.25707  0.64239  0.53028  1.0000
  H   H397      1.0  0.24742  0.60444  0.96804  1.0000
  S   S111      1.0  0.22227  0.59411  0.89396  1.0000
  C   C244      1.0  0.22282  0.60845  0.95685  1.0000
  H   H398      1.0  0.28850  0.64264  0.95398  1.0000
  C   C245      1.0  0.24731  0.66076  0.62247  1.0000
  C   C246      1.0  0.19392  0.60681  0.92613  1.0000
  H   H399      1.0  0.24471  0.65123  0.62684  1.0000
  H   H400      1.0  0.25378  0.66054  0.66060  1.0000
  C   C247      1.0  0.23904  0.62029  0.73668  1.0000
  C   C248      1.0  0.24144  0.62864  0.71000  1.0000
  C   C249      1.0  0.24439  0.62546  0.68380  1.0000
  C   C250      1.0  0.24511  0.61391  0.68406  1.0000
  C   C251      1.0  0.24291  0.60559  0.71074  1.0000
  C   C252      1.0  0.23980  0.60874  0.73698  1.0000
  H   H401      1.0  0.24091  0.63762  0.70958  1.0000
  H   H402      1.0  0.24610  0.63196  0.66345  1.0000
  H   H403      1.0  0.24340  0.59662  0.71109  1.0000
  H   H404      1.0  0.23792  0.60222  0.75738  1.0000
  S   S112      1.0  0.33026  0.61959  0.58904  1.0000
  H   H405      1.0  0.26612  0.58331  0.96914  1.0000
  C   C253      1.0  0.28450  0.60304  0.89055  1.0000
  C   C254      1.0  0.28418  0.59286  0.88041  1.0000
  C   C255      1.0  0.27455  0.58815  0.87002  1.0000
  C   C256      1.0  0.26521  0.59358  0.86954  1.0000
  C   C257      1.0  0.26585  0.60408  0.87832  1.0000
  C   C258      1.0  0.27544  0.60876  0.88875  1.0000
  H   H406      1.0  0.29103  0.58828  0.88197  1.0000
  H   H407      1.0  0.27416  0.58004  0.86321  1.0000
  H   H408      1.0  0.25875  0.60839  0.87808  1.0000
  H   H409      1.0  0.27564  0.61666  0.89643  1.0000
  H   H410      1.0  0.18240  0.61922  0.95641  1.0000
  H   H411      1.0  0.27921  0.66236  0.52318  1.0000
  N   N25       1.0  0.29959  0.63181  0.96809  1.0000
  C   C259      1.0  0.19707  0.62751  0.90303  1.0000
  C   C260      1.0  0.32379  0.62576  0.74602  1.0000
  C   C261      1.0  0.31877  0.62175  0.77594  1.0000
  C   C262      1.0  0.32598  0.62234  0.79531  1.0000
  Fe  Fe57      1.0  0.33435  0.62323  0.91639  1.0000
  H   H412      1.0  0.23767  0.57600  0.94875  1.0000
  H   H413      1.0  0.30931  0.61833  0.78415  1.0000
  H   H414      1.0  0.32204  0.61944  0.81838  1.0000
  C   C263      1.0  0.30925  0.66193  0.58930  1.0000
  H   H415      1.0  0.17229  0.58696  0.81086  1.0000
  C   C264      1.0  0.30858  0.65002  0.55468  1.0000
  C   C265      1.0  0.29691  0.65031  0.55581  1.0000
  C   C266      1.0  0.29149  0.65664  0.57319  1.0000
  C   C267      1.0  0.29770  0.66260  0.58962  1.0000
  H   H416      1.0  0.19799  0.60899  0.94360  1.0000
  C   C268      1.0  0.25952  0.58197  0.95625  1.0000
  H   H417      1.0  0.28253  0.65696  0.57401  1.0000
  H   H418      1.0  0.28187  0.61429  0.52810  1.0000
  N   N26       1.0  0.28819  0.61596  0.61787  1.0000
  C   C269      1.0  0.28276  0.62598  0.61839  1.0000
  C   C270      1.0  0.29029  0.61161  0.64648  1.0000
  C   C271      1.0  0.29951  0.61993  0.59536  1.0000
  C   C272      1.0  0.28016  0.60628  0.61127  1.0000
  H   H419      1.0  0.28874  0.63360  0.62240  1.0000
  H   H420      1.0  0.27430  0.62339  0.63550  1.0000
  H   H421      1.0  0.28074  0.62922  0.59743  1.0000
  H   H422      1.0  0.29496  0.60445  0.64648  1.0000
  H   H423      1.0  0.29581  0.61880  0.65288  1.0000
  H   H424      1.0  0.28183  0.60805  0.66360  1.0000
  H   H425      1.0  0.30579  0.62729  0.59941  1.0000
  H   H426      1.0  0.29824  0.62327  0.57350  1.0000
  H   H427      1.0  0.30397  0.61266  0.59447  1.0000
  H   H428      1.0  0.27883  0.60908  0.58929  1.0000
  H   H429      1.0  0.27129  0.60351  0.62690  1.0000
  H   H430      1.0  0.28373  0.59836  0.61212  1.0000
  C   C273      1.0  0.33288  0.63800  0.50706  1.0000
  N   N27       1.0  0.27156  0.61386  0.77453  1.0000
  C   C274      1.0  0.26660  0.62367  0.76315  1.0000
  C   C275      1.0  0.27555  0.61577  0.80034  1.0000
  C   C276      1.0  0.28172  0.61347  0.75209  1.0000
  C   C277      1.0  0.26238  0.60254  0.78255  1.0000
  H   H431      1.0  0.26337  0.62246  0.74385  1.0000
  H   H432      1.0  0.27326  0.63237  0.75673  1.0000
  H   H433      1.0  0.25894  0.62427  0.77953  1.0000
  H   H434      1.0  0.27921  0.60844  0.80967  1.0000
  H   H435      1.0  0.28256  0.62418  0.79508  1.0000
  H   H436      1.0  0.26813  0.61616  0.81766  1.0000
  H   H437      1.0  0.28882  0.62189  0.74553  1.0000
  H   H438      1.0  0.27906  0.61203  0.73229  1.0000
  H   H439      1.0  0.28575  0.60623  0.75998  1.0000
  H   H440      1.0  0.26568  0.59494  0.79192  1.0000
  H   H441      1.0  0.25925  0.60073  0.76355  1.0000
  H   H442      1.0  0.25453  0.60263  0.79914  1.0000
  H   H443      1.0  0.25626  0.57228  0.95895  1.0000
  H   H444      1.0  0.24579  0.58976  0.92334  1.0000
  H   H445      1.0  0.17185  0.60835  0.94757  1.0000
  H   H446      1.0  0.32362  0.65515  0.57133  1.0000
  H   H447      1.0  0.21804  0.60265  0.94644  1.0000
  S   S113      1.0  0.33659  0.63712  0.94160  1.0000
  H   H448      1.0  0.17470  0.55964  0.82413  1.0000
  S   S114      1.0  0.22689  0.62608  0.90701  1.0000
  H   H449      1.0  0.32219  0.61033  0.50035  1.0000
  H   H450      1.0  0.17434  0.62375  0.93065  1.0000
  N   N28       1.0  0.24973  0.58734  0.96495  1.0000
  H   H451      1.0  0.32280  0.60535  0.55208  1.0000
  Fe  Fe58      1.0  0.32716  0.65562  0.62625  1.0000
  H   H452      1.0  0.26429  0.58595  0.93311  1.0000
  H   H453      1.0  0.18974  0.61189  0.87356  1.0000
  C   C278      1.0  0.30613  0.63260  0.93841  1.0000
  C   C279      1.0  0.28905  0.61670  0.50787  1.0000
  C   C280      1.0  0.17096  0.59524  0.81662  1.0000
  C   C281      1.0  0.28988  0.62085  0.97863  1.0000
  H   H454      1.0  0.17167  0.59440  0.83928  1.0000
  H   H455      1.0  0.30180  0.65061  0.96032  1.0000
  H   H456      1.0  0.17846  0.61937  0.88288  1.0000
  H   H457      1.0  0.23390  0.58949  0.95255  1.0000
  H   H458      1.0  0.33347  0.59574  0.50331  1.0000
  C   C282      1.0  0.33313  0.63524  0.53631  1.0000
  C   C283      1.0  0.17880  0.61686  0.93847  1.0000
  H   H459      1.0  0.26098  0.60181  0.97436  1.0000
  H   H460      1.0  0.17624  0.60397  0.89997  1.0000
  Fe  Fe59      1.0  0.33363  0.63356  0.61407  1.0000
  H   H461      1.0  0.29334  0.61287  0.97883  1.0000
  S   S115      1.0  0.33405  0.65469  0.66574  1.0000
  H   H462      1.0  0.31497  0.63988  0.98022  1.0000
  C   C284      1.0  0.23490  0.62341  0.98474  1.0000
  C   C285      1.0  0.30771  0.63159  0.98717  1.0000
  C   C286      1.0  0.22371  0.60404  0.98506  1.0000
  C   C287      1.0  0.33603  0.63014  0.73555  1.0000
  H   H463      1.0  0.31191  0.62410  0.98687  1.0000
  Fe  Fe60      1.0  0.33659  0.59960  0.90463  1.0000
  C   C288      1.0  0.28434  0.67158  0.51163  1.0000
  C   C289      1.0  0.20429  0.67907  0.40280  1.0000
  C   C290      1.0  0.19236  0.67887  0.40404  1.0000
  C   C291      1.0  0.18862  0.68891  0.40815  1.0000
  H   H464      1.0  0.17953  0.68901  0.40917  1.0000
  C   C292      1.0  0.28905  0.80890  0.38308  1.0000
  H   H465      1.0  0.19363  0.70668  0.41337  1.0000
  C   C293      1.0  0.19668  0.69897  0.41054  1.0000
  H   H466      1.0  0.21524  0.71746  0.32134  1.0000
  Fe  Fe61      1.0  0.29048  0.72486  0.13720  1.0000
  Fe  Fe62      1.0  0.27273  0.70218  0.14165  1.0000
  S   S116      1.0  0.25733  0.71030  0.14701  1.0000
  S   S117      1.0  0.27349  0.68378  0.13912  1.0000
  H   H467      1.0  0.22365  0.70608  0.27222  1.0000
  S   S118      1.0  0.30968  0.73385  0.12844  1.0000
  H   H468      1.0  0.30725  0.77318  0.47243  1.0000
  H   H469      1.0  0.29143  0.75092  0.35440  1.0000
  H   H470      1.0  0.23826  0.70713  0.27688  1.0000
  H   H471      1.0  0.33471  0.83809  0.01820  1.0000
  H   H472      1.0  0.26593  0.73080  0.47058  1.0000
  H   H473      1.0  0.30951  0.80332  0.38641  1.0000
  N   N29       1.0  0.30092  0.76769  0.14326  1.0000
  S   S119      1.0  0.27242  0.72728  0.40239  1.0000
  C   C294      1.0  0.21376  0.70768  0.32553  1.0000
  H   H474      1.0  0.28122  0.75919  0.03514  1.0000
  C   C295      1.0  0.23345  0.70906  0.33174  1.0000
  Fe  Fe63      1.0  0.23850  0.71888  0.40743  1.0000
  C   C296      1.0  0.33374  0.79697  0.36190  1.0000
  H   H475      1.0  0.22525  0.68366  0.48001  1.0000
  Fe  Fe64      1.0  0.33255  0.79194  0.18532  1.0000
  H   H476      1.0  0.20713  0.70441  0.31407  1.0000
  C   C297      1.0  0.30474  0.76281  0.01587  1.0000
  C   C298      1.0  0.33631  0.83378  0.03908  1.0000
  H   H477      1.0  0.26834  0.71376  0.06426  1.0000
  C   C299      1.0  0.26556  0.71822  0.04626  1.0000
  H   H478      1.0  0.31522  0.70922  0.14166  1.0000
  H   H479      1.0  0.20972  0.70386  0.34913  1.0000
  S   S120      1.0  0.24938  0.70569  0.40834  1.0000
  H   H480      1.0  0.31122  0.81879  0.38319  1.0000
  S   S121      1.0  0.28426  0.71677  0.10384  1.0000
  N   N30       1.0  0.31157  0.69435  0.12325  1.0000
  H   H481      1.0  0.22397  0.69858  0.46916  1.0000
  H   H482      1.0  0.26627  0.70444  0.02409  1.0000
  C   C300      1.0  0.30635  0.69134  0.09989  1.0000
  H   H483      1.0  0.25784  0.74351  0.02135  1.0000
  C   C301      1.0  0.25831  0.72959  0.99943  1.0000
  H   H484      1.0  0.32813  0.69570  0.13473  1.0000
  C   C302      1.0  0.32431  0.74502  0.15615  1.0000
  Fe  Fe65      1.0  0.26289  0.71981  0.37239  1.0000
  H   H485      1.0  0.28085  0.74223  0.34061  1.0000
  S   S122      1.0  0.27328  0.71582  0.33308  1.0000
  H   H486      1.0  0.30641  0.77904  0.16965  1.0000
  C   C303      1.0  0.22982  0.70942  0.28469  1.0000
  C   C304      1.0  0.25967  0.73496  0.02202  1.0000
  H   H487      1.0  0.30278  0.73106  0.23223  1.0000
  Fe  Fe66      1.0  0.26600  0.71903  0.17702  1.0000
  Fe  Fe67      1.0  0.26075  0.73971  0.40221  1.0000
  C   C305      1.0  0.33137  0.79504  0.31462  1.0000
  C   C306      1.0  0.22259  0.69135  0.32285  1.0000
  H   H488      1.0  0.24188  0.70651  0.32580  1.0000
  H   H489      1.0  0.22142  0.68901  0.40429  1.0000
  C   C307      1.0  0.26918  0.71856  0.30010  1.0000
  S   S123      1.0  0.21853  0.71250  0.41060  1.0000
  H   H490      1.0  0.31611  0.71312  0.10366  1.0000
  H   H491      1.0  0.24582  0.69228  0.03995  1.0000
  C   C308      1.0  0.33008  0.79824  0.11387  1.0000
  H   H492      1.0  0.30155  0.75907  0.03972  1.0000
  H   H493      1.0  0.31366  0.76025  0.12049  1.0000
  C   C309      1.0  0.32703  0.74850  0.18023  1.0000
  H   H494      1.0  0.30202  0.70739  0.12938  1.0000
  H   H495      1.0  0.30347  0.76966  0.29575  1.0000
  C   C310      1.0  0.26429  0.71290  0.02356  1.0000
  S   S124      1.0  0.25606  0.72258  0.21772  1.0000
  C   C311      1.0  0.31367  0.73680  0.15933  1.0000
  S   S125      1.0  0.24604  0.72740  0.43966  1.0000
  H   H496      1.0  0.27984  0.70815  0.28155  1.0000
  C   C312      1.0  0.31124  0.70653  0.12451  1.0000
  C   C313      1.0  0.26044  0.71846  0.00035  1.0000
  Fe  Fe68      1.0  0.25762  0.71487  0.43806  1.0000
  S   S126      1.0  0.25184  0.73279  0.36985  1.0000
  H   H497      1.0  0.31292  0.76007  0.00829  1.0000
  H   H498      1.0  0.31847  0.81386  0.35366  1.0000
  H   H499      1.0  0.33082  0.82450  0.04575  1.0000
  H   H500      1.0  0.24940  0.68425  0.13799  1.0000
  H   H501      1.0  0.27341  0.71081  0.23596  1.0000
  H   H502      1.0  0.22991  0.70568  0.35561  1.0000
  H   H503      1.0  0.23559  0.71890  0.32678  1.0000
  C   C314      1.0  0.29234  0.74576  0.00758  1.0000
  C   C315      1.0  0.26319  0.72924  0.04562  1.0000
  S   S127      1.0  0.28033  0.70947  0.17469  1.0000
  Fe  Fe69      1.0  0.26955  0.72555  0.11131  1.0000
  C   C316      1.0  0.27373  0.71352  0.27819  1.0000
  H   H504      1.0  0.31140  0.69732  0.07839  1.0000
  S   S128      1.0  0.26500  0.73624  0.07342  1.0000
  H   H505      1.0  0.33520  0.75494  0.17759  1.0000
  H   H506      1.0  0.23276  0.69769  0.00907  1.0000
  H   H507      1.0  0.28420  0.75809  0.33004  1.0000
  C   C317      1.0  0.27016  0.71508  0.25225  1.0000
  C   C318      1.0  0.26204  0.72175  0.24803  1.0000
  H   H508      1.0  0.25819  0.72989  0.31165  1.0000
  C   C319      1.0  0.26147  0.72567  0.29534  1.0000
  H   H509      1.0  0.25185  0.73265  0.26600  1.0000
  C   C320      1.0  0.25791  0.72724  0.26942  1.0000
  N   N31       1.0  0.22490  0.70438  0.31620  1.0000
  H   H510      1.0  0.29772  0.72536  0.18950  1.0000
  H   H511      1.0  0.33030  0.74899  0.13493  1.0000
  H   H512      1.0  0.32453  0.68448  0.11622  1.0000
  C   C321      1.0  0.23194  0.68904  0.00333  1.0000
  C   C322      1.0  0.32395  0.69355  0.11742  1.0000
  S   S129      1.0  0.27680  0.73502  0.14159  1.0000
  Fe  Fe70      1.0  0.33056  0.76790  0.22467  1.0000
  C   C323      1.0  0.30472  0.68601  0.15123  1.0000
  H   H513      1.0  0.30662  0.74102  0.33653  1.0000
  C   C324      1.0  0.30598  0.73166  0.18683  1.0000
  C   C325      1.0  0.31925  0.74352  0.20763  1.0000
  H   H514      1.0  0.23082  0.68858  0.31591  1.0000
  S   S130      1.0  0.32217  0.74841  0.23747  1.0000
  H   H515      1.0  0.21896  0.68725  0.34645  1.0000
  C   C326      1.0  0.30119  0.82280  0.33859  1.0000
  C   C327      1.0  0.21233  0.68909  0.40537  1.0000
  H   H516      1.0  0.32936  0.69977  0.09651  1.0000
  C   C328      1.0  0.30883  0.73493  0.21103  1.0000
  H   H517      1.0  0.29536  0.68647  0.15630  1.0000
  H   H518      1.0  0.21607  0.68750  0.31176  1.0000
  H   H519      1.0  0.22308  0.68635  0.99932  1.0000
  H   H520      1.0  0.30727  0.77266  0.01157  1.0000
  C   C329      1.0  0.28812  0.75046  0.33483  1.0000
  N   N32       1.0  0.29561  0.75883  0.00110  1.0000
  H   H521      1.0  0.31070  0.76304  0.32097  1.0000
  H   H522      1.0  0.22448  0.68586  0.06065  1.0000
  C   C330      1.0  0.20863  0.69921  0.40900  1.0000
  C   C331      1.0  0.31019  0.81186  0.37108  1.0000
  C   C332      1.0  0.22815  0.69278  0.48252  1.0000
  H   H523      1.0  0.29365  0.75937  0.11346  1.0000
  C   C333      1.0  0.29341  0.76712  0.12277  1.0000
  Fe  Fe71      1.0  0.33068  0.78901  0.25008  1.0000
  H   H524      1.0  0.28728  0.75633  0.18007  1.0000
  Fe  Fe72      1.0  0.31915  0.80369  0.44738  1.0000
  S   S131      1.0  0.33156  0.79204  0.44775  1.0000
  S   S132      1.0  0.29970  0.79487  0.45093  1.0000
  H   H525      1.0  0.29959  0.74984  0.26579  1.0000
  S   S133      1.0  0.33182  0.81917  0.41263  1.0000
  H   H526      1.0  0.28099  0.80864  0.37495  1.0000
  H   H527      1.0  0.28866  0.74167  0.03122  1.0000
  S   S134      1.0  0.31904  0.78041  0.22549  1.0000
  C   C334      1.0  0.24543  0.68423  0.03171  1.0000
  S   S135      1.0  0.32577  0.80065  0.14845  1.0000
  S   S136      1.0  0.32471  0.81165  0.48245  1.0000
  S   S137      1.0  0.32185  0.79200  0.29235  1.0000
  C   C335      1.0  0.27392  0.77032  0.43609  1.0000
  H   H528      1.0  0.30220  0.83020  0.34928  1.0000
  H   H529      1.0  0.26439  0.76749  0.44336  1.0000
  H   H530      1.0  0.29166  0.77813  0.16579  1.0000
  H   H531      1.0  0.29076  0.80119  0.33465  1.0000
  H   H532      1.0  0.29678  0.76802  0.38564  1.0000
  C   C336      1.0  0.29266  0.74964  0.28499  1.0000
  H   H533      1.0  0.29708  0.69207  0.10335  1.0000
  C   C337      1.0  0.29641  0.75701  0.16778  1.0000
  C   C338      1.0  0.30692  0.76183  0.30242  1.0000
  C   C339      1.0  0.29258  0.78306  0.43780  1.0000
  C   C340      1.0  0.28026  0.77858  0.44801  1.0000
  C   C341      1.0  0.27974  0.76640  0.41344  1.0000
  C   C342      1.0  0.29213  0.77065  0.40365  1.0000
  C   C343      1.0  0.29854  0.77874  0.41609  1.0000
  H   H534      1.0  0.29611  0.74884  0.16013  1.0000
  H   H535      1.0  0.30845  0.68798  0.16932  1.0000
  H   H536      1.0  0.30801  0.78200  0.40796  1.0000
  H   H537      1.0  0.30232  0.75735  0.48456  1.0000
  C   C344      1.0  0.32651  0.79372  0.34404  1.0000
  C   C345      1.0  0.28505  0.76290  0.01143  1.0000
  H   H538      1.0  0.31713  0.79014  0.35309  1.0000
  H   H539      1.0  0.32989  0.79605  0.38450  1.0000
  H   H540      1.0  0.30619  0.68209  0.09877  1.0000
  H   H541      1.0  0.28857  0.75702  0.27874  1.0000
  H   H542      1.0  0.25269  0.68659  0.01158  1.0000
  C   C346      1.0  0.32436  0.80202  0.09263  1.0000
  C   C347      1.0  0.32753  0.80013  0.06491  1.0000
  H   H543      1.0  0.31744  0.80641  0.09764  1.0000
  H   H544      1.0  0.32298  0.80294  0.04880  1.0000
  H   H545      1.0  0.27548  0.78184  0.46461  1.0000
  C   C348      1.0  0.29852  0.80180  0.34406  1.0000
  C   C349      1.0  0.31315  0.76832  0.12823  1.0000
  H   H546      1.0  0.28577  0.74116  0.28989  1.0000
  H   H547      1.0  0.23172  0.71926  0.27872  1.0000
  H   H548      1.0  0.29346  0.82276  0.32920  1.0000
  H   H549      1.0  0.30648  0.80327  0.32604  1.0000
  C   C350      1.0  0.30074  0.77830  0.15428  1.0000
  H   H550      1.0  0.29597  0.73193  0.32373  1.0000
  S   S138      1.0  0.27150  0.75914  0.39231  1.0000
  H   H551      1.0  0.28760  0.80020  0.39866  1.0000
  H   H552      1.0  0.31668  0.77602  0.10895  1.0000
  H   H553      1.0  0.28402  0.76625  0.13353  1.0000
  H   H554      1.0  0.30213  0.75697  0.18315  1.0000
  S   S139      1.0  0.26074  0.70523  0.47944  1.0000
  H   H555      1.0  0.30412  0.78656  0.13643  1.0000
  H   H556      1.0  0.29642  0.77521  0.10438  1.0000
  H   H557      1.0  0.31921  0.76921  0.14266  1.0000
  C   C351      1.0  0.30275  0.74054  0.31780  1.0000
  H   H558      1.0  0.30918  0.82483  0.32029  1.0000
  H   H559      1.0  0.30986  0.74034  0.29940  1.0000
  N   N33       1.0  0.29973  0.81133  0.35921  1.0000
  N   N34       1.0  0.29762  0.75063  0.31002  1.0000
  H   H560      1.0  0.28978  0.81572  0.39559  1.0000
  H   H561      1.0  0.31435  0.76211  0.28420  1.0000
  H   H562      1.0  0.29731  0.79299  0.35900  1.0000
  H   H563      1.0  0.28718  0.77274  0.00689  1.0000
  H   H564      1.0  0.28547  0.74252  0.99666  1.0000
  N   N35       1.0  0.23381  0.67994  0.02626  1.0000
  H   H565      1.0  0.33301  0.83833  0.05552  1.0000
  C   C352      1.0  0.22445  0.67766  0.05314  1.0000
  H   H566      1.0  0.23784  0.69590  0.47300  1.0000
  C   C353      1.0  0.25205  0.67815  0.12600  1.0000
  H   H567      1.0  0.27799  0.76008  0.00069  1.0000
  H   H568      1.0  0.30008  0.74233  0.00029  1.0000
  H   H569      1.0  0.24737  0.67742  0.04803  1.0000
  H   H570      1.0  0.21555  0.67426  0.05002  1.0000
  H   H571      1.0  0.30465  0.67670  0.15097  1.0000
  C   C354      1.0  0.26356  0.67681  0.12207  1.0000
  C   C355      1.0  0.33653  0.79456  0.05818  1.0000
  H   H572      1.0  0.28677  0.69367  0.48028  1.0000
  H   H573      1.0  0.28600  0.67225  0.48804  1.0000
  H   H574      1.0  0.31639  0.76496  0.48810  1.0000
  H   H575      1.0  0.26772  0.67974  0.48831  1.0000
  H   H576      1.0  0.29663  0.74748  0.53677  1.0000
  C   C356      1.0  0.18954  0.68710  0.90131  1.0000
  C   C357      1.0  0.18650  0.69793  0.89757  1.0000
  C   C358      1.0  0.20085  0.68692  0.90543  1.0000
  Fe  Fe73      1.0  0.33645  0.80244  0.98456  1.0000
  C   C359      1.0  0.20594  0.70818  0.90192  1.0000
  H   H577      1.0  0.28823  0.67742  0.67605  1.0000
  H   H578      1.0  0.19216  0.71665  0.89471  1.0000
  C   C360      1.0  0.27583  0.67893  0.55135  1.0000
  C   C361      1.0  0.19463  0.70835  0.89785  1.0000
  C   C362      1.0  0.31257  0.69796  0.63125  1.0000
  N   N36       1.0  0.23051  0.70689  0.82116  1.0000
  Fe  Fe74      1.0  0.26786  0.70455  0.64937  1.0000
  S   S140      1.0  0.26233  0.68470  0.66060  1.0000
  H   H579      1.0  0.23445  0.70321  0.77939  1.0000
  H   H580      1.0  0.26105  0.68375  0.51989  1.0000
  H   H581      1.0  0.25199  0.74299  0.75703  1.0000
  C   C363      1.0  0.25540  0.67837  0.63690  1.0000
  C   C364      1.0  0.25312  0.68540  0.61305  1.0000
  C   C365      1.0  0.24809  0.68008  0.59369  1.0000
  H   H582      1.0  0.25527  0.69491  0.60956  1.0000
  H   H583      1.0  0.24644  0.68552  0.57517  1.0000
  C   C366      1.0  0.26047  0.73525  0.78840  1.0000
  H   H584      1.0  0.21427  0.69982  0.81098  1.0000
  H   H585      1.0  0.27465  0.75927  0.68973  1.0000
  Fe  Fe75      1.0  0.33140  0.79179  0.74316  1.0000
  H   H586      1.0  0.32730  0.80485  0.87523  1.0000
  C   C367      1.0  0.20895  0.69733  0.90585  1.0000
  C   C368      1.0  0.31699  0.74326  0.71297  1.0000
  H   H587      1.0  0.31951  0.68872  0.67793  1.0000
  H   H588      1.0  0.24081  0.68868  0.52177  1.0000
  H   H589      1.0  0.28314  0.74944  0.67957  1.0000
  C   C369      1.0  0.30115  0.69834  0.67759  1.0000
  H   H590      1.0  0.24707  0.71032  0.78976  1.0000
  C   C370      1.0  0.23104  0.68549  0.52986  1.0000
  C   C371      1.0  0.30659  0.73449  0.71723  1.0000
  H   H591      1.0  0.23865  0.69071  0.98249  1.0000
  C   C372      1.0  0.33578  0.79258  0.55470  1.0000
  H   H592      1.0  0.31455  0.67724  0.66130  1.0000
  S   S141      1.0  0.24933  0.74095  0.86606  1.0000
  H   H593      1.0  0.28280  0.75853  0.73322  1.0000
  S   S142      1.0  0.25670  0.71746  0.64390  1.0000
  C   C373      1.0  0.26344  0.71449  0.50253  1.0000
  H   H594      1.0  0.28426  0.76713  0.54138  1.0000
  H   H595      1.0  0.30346  0.77371  0.96410  1.0000
  H   H596      1.0  0.21246  0.70431  0.84413  1.0000
  H   H597      1.0  0.31564  0.69240  0.61708  1.0000
  H   H598      1.0  0.28421  0.67990  0.55826  1.0000
  S   S143      1.0  0.30946  0.72799  0.63823  1.0000
  S   S144      1.0  0.27624  0.71251  0.68038  1.0000
  H   H599      1.0  0.31121  0.75473  0.80823  1.0000
  S   S145      1.0  0.28265  0.71449  0.61036  1.0000
  H   H600      1.0  0.26126  0.69999  0.53919  1.0000
  H   H601      1.0  0.28873  0.77489  0.50365  1.0000
  C   C374      1.0  0.26322  0.70945  0.53123  1.0000
  H   H602      1.0  0.22994  0.71397  0.85830  1.0000
  H   H603      1.0  0.25546  0.73403  0.98154  1.0000
  C   C375      1.0  0.26556  0.71664  0.54984  1.0000
  S   S146      1.0  0.24291  0.73479  0.93627  1.0000
  H   H604      1.0  0.26544  0.71268  0.57190  1.0000
  H   H605      1.0  0.33349  0.75336  0.68292  1.0000
  S   S147      1.0  0.25865  0.73459  0.70657  1.0000
  C   C376      1.0  0.26791  0.72793  0.79416  1.0000
  C   C377      1.0  0.33148  0.80245  0.85631  1.0000
  Fe  Fe76      1.0  0.25798  0.74710  0.89960  1.0000
  S   S148      1.0  0.24594  0.71343  0.90326  1.0000
  Fe  Fe77      1.0  0.27218  0.72804  0.60666  1.0000
  H   H606      1.0  0.30792  0.76056  0.96072  1.0000
  Fe  Fe78      1.0  0.25408  0.72183  0.93433  1.0000
  S   S149      1.0  0.25796  0.71109  0.97345  1.0000
  H   H607      1.0  0.20951  0.68883  0.54819  1.0000
  C   C378      1.0  0.28905  0.76689  0.51954  1.0000
  C   C379      1.0  0.25797  0.73754  0.76114  1.0000
  C   C380      1.0  0.26798  0.72893  0.53999  1.0000
  H   H608      1.0  0.22601  0.69265  0.85964  1.0000
  C   C381      1.0  0.26797  0.73400  0.51143  1.0000
  H   H609      1.0  0.30021  0.73156  0.73806  1.0000
  H   H610      1.0  0.29611  0.72319  0.69773  1.0000
  Fe  Fe79      1.0  0.25987  0.72755  0.86825  1.0000
  Fe  Fe80      1.0  0.26659  0.72646  0.67159  1.0000
  H   H611      1.0  0.26972  0.74350  0.50368  1.0000
  C   C382      1.0  0.26287  0.73251  0.73953  1.0000
  C   C383      1.0  0.23512  0.71593  0.83549  1.0000
  C   C384      1.0  0.21806  0.70655  0.82160  1.0000
  H   H612      1.0  0.20898  0.67933  0.52407  1.0000
  Fe  Fe81      1.0  0.23551  0.72704  0.90275  1.0000
  C   C385      1.0  0.31247  0.73351  0.66736  1.0000
  C   C386      1.0  0.27323  0.72339  0.77210  1.0000
  C   C387      1.0  0.30424  0.72978  0.69433  1.0000
  H   H613      1.0  0.24446  0.71635  0.83588  1.0000
  S   S150      1.0  0.27039  0.72375  0.82879  1.0000
  H   H614      1.0  0.25651  0.73900  0.80503  1.0000
  H   H615      1.0  0.22692  0.70595  0.53817  1.0000
  S   S151      1.0  0.27115  0.73803  0.56306  1.0000
  C   C388      1.0  0.27072  0.72567  0.74493  1.0000
  H   H616      1.0  0.28053  0.69912  0.50962  1.0000
  N   N37       1.0  0.30491  0.69059  0.65958  1.0000
  H   H617      1.0  0.27962  0.75320  0.83979  1.0000
  H   H618      1.0  0.17793  0.69833  0.89416  1.0000
  C   C389      1.0  0.31152  0.68318  0.67433  1.0000
  H   H619      1.0  0.27474  0.72194  0.72843  1.0000
  H   H620      1.0  0.27913  0.71785  0.77623  1.0000
  H   H621      1.0  0.20334  0.67863  0.90850  1.0000
  H   H622      1.0  0.29343  0.76171  0.95773  1.0000
  S   S152      1.0  0.21593  0.72178  0.90131  1.0000
  S   S153      1.0  0.28106  0.73821  0.63359  1.0000
  S   S154      1.0  0.26919  0.73424  0.89939  1.0000
  C   C390      1.0  0.23760  0.70988  0.79088  1.0000
  Fe  Fe82      1.0  0.29008  0.72366  0.64080  1.0000
  C   C391      1.0  0.29439  0.68292  0.65515  1.0000
  C   C392      1.0  0.21216  0.68864  0.52512  1.0000
  C   C393      1.0  0.23129  0.69519  0.83674  1.0000
  C   C394      1.0  0.33689  0.79097  0.60459  1.0000
  H   H623      1.0  0.27406  0.78031  0.97647  1.0000
  H   H624      1.0  0.29692  0.67681  0.64204  1.0000
  H   H625      1.0  0.30785  0.70369  0.61962  1.0000
  H   H626      1.0  0.22793  0.68813  0.82650  1.0000
  H   H627      1.0  0.21752  0.69696  0.90931  1.0000
  H   H628      1.0  0.24058  0.69522  0.83695  1.0000
  S   S155      1.0  0.32113  0.79701  0.64511  1.0000
  N   N38       1.0  0.27794  0.68023  0.51982  1.0000
  H   H629      1.0  0.21718  0.71529  0.81023  1.0000
  H   H630      1.0  0.32052  0.70398  0.63378  1.0000
  H   H631      1.0  0.23720  0.71864  0.77839  1.0000
  H   H632      1.0  0.23476  0.72492  0.82435  1.0000
  C   C395      1.0  0.30131  0.75583  0.54078  1.0000
  H   H633      1.0  0.29303  0.67293  0.51709  1.0000
  H   H634      1.0  0.27157  0.68571  0.55807  1.0000
  H   H635      1.0  0.29098  0.74870  0.72135  1.0000
  C   C396      1.0  0.32310  0.74189  0.66348  1.0000
  H   H636      1.0  0.20739  0.69409  0.51284  1.0000
  C   C397      1.0  0.28791  0.75356  0.82398  1.0000
  H   H637      1.0  0.28669  0.77452  0.83351  1.0000
  H   H638      1.0  0.29857  0.76188  0.72848  1.0000
  H   H639      1.0  0.33572  0.83751  0.53744  1.0000
  C   C398      1.0  0.22893  0.70538  0.51530  1.0000
  Fe  Fe83      1.0  0.31687  0.80571  0.95428  1.0000
  S   S156      1.0  0.32844  0.79318  0.95483  1.0000
  S   S157      1.0  0.29718  0.79633  0.96244  1.0000
  H   H640      1.0  0.30884  0.70438  0.68115  1.0000
  S   S158      1.0  0.32955  0.82007  0.91669  1.0000
  H   H641      1.0  0.28430  0.77777  0.70000  1.0000
  S   S159      1.0  0.31831  0.78167  0.72453  1.0000
  C   C399      1.0  0.32530  0.74686  0.68615  1.0000
  H   H642      1.0  0.30800  0.78524  0.50791  1.0000
  C   C400      1.0  0.32120  0.79800  0.58841  1.0000
  S   S160      1.0  0.32340  0.79749  0.78225  1.0000
  S   S161      1.0  0.31918  0.74999  0.74090  1.0000
  H   H643      1.0  0.28968  0.74467  0.82917  1.0000
  C   C401      1.0  0.32681  0.79512  0.61053  1.0000
  C   C402      1.0  0.30789  0.77716  0.52423  1.0000
  H   H644      1.0  0.31196  0.76801  0.68022  1.0000
  H   H645      1.0  0.31045  0.75526  0.54118  1.0000
  C   C403      1.0  0.29003  0.78757  0.94210  1.0000
  C   C404      1.0  0.27851  0.78026  0.95492  1.0000
  C   C405      1.0  0.27256  0.77301  0.94000  1.0000
  C   C406      1.0  0.27783  0.77334  0.91141  1.0000
  C   C407      1.0  0.28931  0.78076  0.89846  1.0000
  C   C408      1.0  0.29547  0.78759  0.91386  1.0000
  H   H646      1.0  0.29625  0.70406  0.66683  1.0000
  H   H647      1.0  0.29343  0.78146  0.87615  1.0000
  H   H648      1.0  0.30427  0.79323  0.90345  1.0000
  C   C409      1.0  0.32572  0.79682  0.56050  1.0000
  C   C410      1.0  0.32559  0.80133  0.83448  1.0000
  H   H649      1.0  0.29525  0.69315  0.69906  1.0000
  C   C411      1.0  0.26651  0.67801  0.51213  1.0000
  H   H650      1.0  0.31690  0.80288  0.83680  1.0000
  H   H651      1.0  0.28929  0.68824  0.64370  1.0000
  H   H652      1.0  0.22881  0.68535  0.55320  1.0000
  H   H653      1.0  0.22853  0.67615  0.52848  1.0000
  C   C412      1.0  0.33096  0.79841  0.80954  1.0000
  H   H654      1.0  0.31725  0.77709  0.52340  1.0000
  H   H655      1.0  0.31340  0.80125  0.59282  1.0000
  H   H656      1.0  0.30000  0.78176  0.69522  1.0000
  H   H657      1.0  0.28463  0.76325  0.65430  1.0000
  C   C413      1.0  0.29282  0.77712  0.68712  1.0000
  H   H658      1.0  0.28618  0.75502  0.80217  1.0000
  H   H659      1.0  0.29186  0.76013  0.87108  1.0000
  C   C414      1.0  0.26573  0.72679  0.49269  1.0000
  N   N39       1.0  0.30134  0.76632  0.51857  1.0000
  C   C415      1.0  0.29989  0.76054  0.85435  1.0000
  C   C416      1.0  0.28509  0.69235  0.50413  1.0000
  H   H660      1.0  0.31626  0.77048  0.80336  1.0000
  H   H661      1.0  0.30597  0.67747  0.69570  1.0000
  C   C417      1.0  0.28346  0.75895  0.67752  1.0000
  C   C418      1.0  0.30454  0.76430  0.67145  1.0000
  S   S162      1.0  0.26987  0.76601  0.88992  1.0000
  H   H662      1.0  0.26364  0.76766  0.95011  1.0000
  H   H663      1.0  0.32954  0.74475  0.64274  1.0000
  N   N40       1.0  0.29304  0.76466  0.68888  1.0000
  H   H664      1.0  0.32134  0.79906  0.54367  1.0000
  H   H665      1.0  0.29406  0.77700  0.79602  1.0000
  H   H666      1.0  0.30212  0.78178  0.82049  1.0000
  C   C419      1.0  0.30865  0.76324  0.80365  1.0000
  C   C420      1.0  0.30030  0.76388  0.96953  1.0000
  C   C421      1.0  0.29504  0.77455  0.81846  1.0000
  H   H667      1.0  0.29418  0.78220  0.66435  1.0000
  N   N41       1.0  0.29787  0.76297  0.82509  1.0000
  H   H668      1.0  0.30735  0.76474  0.78144  1.0000
  H   H669      1.0  0.30722  0.76759  0.85607  1.0000
  C   C422      1.0  0.29127  0.75821  0.71934  1.0000
  H   H670      1.0  0.30478  0.75508  0.67105  1.0000
  H   H671      1.0  0.30643  0.76956  0.64864  1.0000
  H   H672      1.0  0.30214  0.75192  0.86000  1.0000
  H   H673      1.0  0.23862  0.70906  0.50621  1.0000
  Fe  Fe84      1.0  0.33004  0.79146  0.68065  1.0000
  H   H674      1.0  0.29670  0.75603  0.56281  1.0000
  H   H675      1.0  0.30386  0.77812  0.54596  1.0000
  H   H676      1.0  0.29377  0.69431  0.50949  1.0000
  Fe  Fe85      1.0  0.32960  0.76898  0.72410  1.0000
  C   C423      1.0  0.30709  0.76539  0.48965  1.0000
  H   H677      1.0  0.28397  0.75901  0.51446  1.0000
  H   H678      1.0  0.22459  0.71135  0.50307  1.0000
  N   N42       1.0  0.22508  0.69307  0.51320  1.0000
  S   S163      1.0  0.17968  0.67357  0.90104  1.0000
  S   S164      1.0  0.32417  0.81422  0.98679  1.0000
  H   H679      1.0  0.47387  0.07406  0.04679  1.0000
  H   H680      1.0  0.47875  0.06316  0.13156  1.0000
  H   H681      1.0  0.46273  0.07389  0.07788  1.0000
  Fe  Fe86      1.0  0.49183  0.06703  0.17110  1.0000
  S   S165      1.0  0.48555  0.04681  0.17730  1.0000
  H   H682      1.0  0.47318  0.09155  0.39813  1.0000
  H   H683      1.0  0.48946  0.11368  0.27045  1.0000
  H   H684      1.0  0.49373  0.06302  0.08894  1.0000
  H   H685      1.0  0.49191  0.06809  0.05316  1.0000
  S   S166      1.0  0.48385  0.08270  0.17039  1.0000
  C   C424      1.0  0.47238  0.07522  0.06916  1.0000
  C   C425      1.0  0.45689  0.01731  0.16288  1.0000
  C   C426      1.0  0.46719  0.01507  0.16958  1.0000
  C   C427      1.0  0.47579  0.02419  0.17380  1.0000
  C   C428      1.0  0.47430  0.03573  0.17142  1.0000
  C   C429      1.0  0.46399  0.03797  0.16478  1.0000
  C   C430      1.0  0.45542  0.02886  0.16039  1.0000
  H   H686      1.0  0.48364  0.02225  0.17918  1.0000
  H   H687      1.0  0.46243  0.04662  0.16376  1.0000
  H   H688      1.0  0.44745  0.03071  0.15556  1.0000
  H   H689      1.0  0.48139  0.08271  0.41593  1.0000
  C   C431      1.0  0.47113  0.05460  0.08950  1.0000
  C   C432      1.0  0.48990  0.06918  0.07558  1.0000
  H   H690      1.0  0.50135  0.09636  0.34256  1.0000
  H   H691      1.0  0.47249  0.05282  0.06775  1.0000
  S   S167      1.0  0.49343  0.09899  0.23131  1.0000
  H   H692      1.0  0.46531  0.06698  0.12749  1.0000
  H   H693      1.0  0.49464  0.07836  0.07464  1.0000
  N   N43       1.0  0.49203  0.09827  0.38313  1.0000
  C   C433      1.0  0.48123  0.09196  0.40638  1.0000
  H   H694      1.0  0.49010  0.11532  0.38806  1.0000
  C   C434      1.0  0.49775  0.11159  0.27164  1.0000
  Fe  Fe87      1.0  0.49724  0.09006  0.19376  1.0000
  H   H695      1.0  0.48561  0.09174  0.34972  1.0000
  C   C435      1.0  0.49137  0.11045  0.37100  1.0000
  H   H696      1.0  0.48029  0.09645  0.42430  1.0000
  H   H697      1.0  0.50057  0.12149  0.30326  1.0000
  H   H698      1.0  0.46849  0.00629  0.17165  1.0000
  H   H699      1.0  0.50308  0.08977  0.40534  1.0000
  H   H700      1.0  0.47454  0.04819  0.10340  1.0000
  S   S168      1.0  0.49354  0.10162  0.08873  1.0000
  H   H701      1.0  0.47893  0.07825  0.11649  1.0000
  H   H702      1.0  0.47676  0.08463  0.06751  1.0000
  C   C436      1.0  0.47491  0.06890  0.11714  1.0000
  H   H703      1.0  0.46144  0.05256  0.09903  1.0000
  N   N44       1.0  0.47707  0.06696  0.08782  1.0000
  C   C437      1.0  0.49695  0.11092  0.03031  1.0000
  C   C438      1.0  0.49311  0.09196  0.36003  1.0000
  H   H704      1.0  0.50116  0.03441  0.21147  1.0000
  H   H705      1.0  0.48908  0.11386  0.03672  1.0000
  Fe  Fe88      1.0  0.49812  0.09182  0.12883  1.0000
  H   H706      1.0  0.50215  0.10382  0.41195  1.0000
  C   C439      1.0  0.50245  0.09876  0.39514  1.0000
  H   H707      1.0  0.48396  0.11048  0.36048  1.0000
  H   H708      1.0  0.49341  0.08267  0.36849  1.0000
  H   H709      1.0  0.49964  0.11564  0.35438  1.0000
  S   S169      1.0  0.44571  0.00610  0.15721  1.0000
  C   C440      1.0  0.50242  0.11300  0.00063  1.0000
  C   C441      1.0  0.50209  0.10461  0.25406  1.0000
  C   C442      1.0  0.50132  0.10473  0.05173  1.0000
  H   H710      1.0  0.49992  0.14023  0.01071  1.0000
  H   H711      1.0  0.46849  0.10941  0.70189  1.0000
  S   S170      1.0  0.50353  0.07135  0.69744  1.0000
  H   H712      1.0  0.49430  0.12667  0.63983  1.0000
  Fe  Fe89      1.0  0.49049  0.06658  0.67124  1.0000
  S   S171      1.0  0.48123  0.04657  0.68494  1.0000
  C   C443      1.0  0.48230  0.13147  0.68742  1.0000
  S   S172      1.0  0.49389  0.09376  0.74098  1.0000
  H   H713      1.0  0.47983  0.10187  0.70477  1.0000
  H   H714      1.0  0.47911  0.11838  0.64944  1.0000
  S   S173      1.0  0.48328  0.08250  0.67507  1.0000
  C   C444      1.0  0.45688  0.01690  0.65929  1.0000
  C   C445      1.0  0.46343  0.01420  0.67931  1.0000
  C   C446      1.0  0.47086  0.02337  0.68662  1.0000
  C   C447      1.0  0.47204  0.03541  0.67373  1.0000
  C   C448      1.0  0.46566  0.03811  0.65331  1.0000
  C   C449      1.0  0.45807  0.02892  0.64640  1.0000
  H   H715      1.0  0.47570  0.02110  0.70248  1.0000
  H   H716      1.0  0.46636  0.04726  0.64326  1.0000
  H   H717      1.0  0.45303  0.03117  0.63099  1.0000
  S   S174      1.0  0.44666  0.00569  0.65079  1.0000
  H   H718      1.0  0.49811  0.15745  0.97434  1.0000
  H   H719      1.0  0.49038  0.11095  0.65412  1.0000
  H   H720      1.0  0.50088  0.03058  0.70044  1.0000
  H   H721      1.0  0.48959  0.09774  0.79814  1.0000
  C   C450      1.0  0.47736  0.11025  0.70624  1.0000
  C   C451      1.0  0.49849  0.10282  0.78672  1.0000
  N   N45       1.0  0.48623  0.12063  0.68572  1.0000
  Fe  Fe90      1.0  0.49730  0.08780  0.69855  1.0000
  Fe  Fe91      1.0  0.49729  0.09214  0.63324  1.0000
  C   C452      1.0  0.50074  0.09778  0.54833  1.0000
  C   C453      1.0  0.48756  0.11913  0.65602  1.0000
  H   H722      1.0  0.48121  0.13281  0.70962  1.0000
  H   H723      1.0  0.47368  0.13102  0.68185  1.0000
  H   H724      1.0  0.47653  0.11074  0.72907  1.0000
  H   H725      1.0  0.49695  0.12242  0.71586  1.0000
  H   H726      1.0  0.48880  0.13947  0.67221  1.0000
  H   H727      1.0  0.49779  0.08915  0.56359  1.0000
  C   C454      1.0  0.49769  0.12164  0.69325  1.0000
  H   H728      1.0  0.50243  0.04348  0.71419  1.0000
  H   H729      1.0  0.50100  0.11370  0.69179  1.0000
  H   H730      1.0  0.50156  0.10995  0.82281  1.0000
  H   H731      1.0  0.50026  0.13887  0.96091  1.0000
  C   C455      1.0  0.50130  0.10797  0.55846  1.0000
  S   S175      1.0  0.49712  0.10724  0.59611  1.0000
  C   C456      1.0  0.50308  0.10239  0.75811  1.0000
  H   H732      1.0  0.50261  0.09073  0.51079  1.0000
  H   H733      1.0  0.49854  0.11719  0.98452  1.0000
  C   C457      1.0  0.50346  0.09870  0.51831  1.0000
  H   H734      1.0  0.49547  0.00564  0.58826  1.0000
  Fe  Fe92      1.0  0.35403  0.65575  0.12192  1.0000
  S   S176      1.0  0.35214  0.63609  0.13132  1.0000
  H   H735      1.0  0.48382  0.46000  0.03598  1.0000
  H   H736      1.0  0.45587  0.58692  0.01873  1.0000
  H   H737      1.0  0.47033  0.59625  0.47978  1.0000
  H   H738      1.0  0.47780  0.60109  0.05399  1.0000
  H   H739      1.0  0.37306  0.65751  0.29062  1.0000
  C   C458      1.0  0.42685  0.55227  0.48441  1.0000
  S   S177      1.0  0.34332  0.61894  0.39545  1.0000
  N   N46       1.0  0.37303  0.66413  0.24623  1.0000
  H   H740      1.0  0.34460  0.61407  0.46549  1.0000
  C   C459      1.0  0.33888  0.63875  0.02258  1.0000
  C   C460      1.0  0.44703  0.56062  0.48571  1.0000
  H   H741      1.0  0.45932  0.59833  0.03667  1.0000
  C   C461      1.0  0.33911  0.62726  0.03561  1.0000
  H   H742      1.0  0.41520  0.53569  0.00652  1.0000
  H   H743      1.0  0.42858  0.61815  0.41887  1.0000
  C   C462      1.0  0.35185  0.60973  0.46010  1.0000
  H   H744      1.0  0.48860  0.59718  0.99594  1.0000
  H   H745      1.0  0.36233  0.64834  0.27832  1.0000
  H   H746      1.0  0.45485  0.58298  0.05664  1.0000
  C   C463      1.0  0.47322  0.57668  0.02793  1.0000
  H   H747      1.0  0.47730  0.47995  0.08316  1.0000
  C   C464      1.0  0.38240  0.58695  0.38157  1.0000
  C   C465      1.0  0.37762  0.59632  0.37131  1.0000
  C   C466      1.0  0.36572  0.59600  0.38285  1.0000
  C   C467      1.0  0.35843  0.58625  0.40476  1.0000
  C   C468      1.0  0.36324  0.57694  0.41528  1.0000
  C   C469      1.0  0.37516  0.57728  0.40382  1.0000
  H   H748      1.0  0.38310  0.60382  0.35403  1.0000
  H   H749      1.0  0.36217  0.60323  0.37449  1.0000
  H   H750      1.0  0.35769  0.56934  0.43220  1.0000
  H   H751      1.0  0.37870  0.57000  0.41192  1.0000
  H   H752      1.0  0.45171  0.51184  0.23472  1.0000
  H   H753      1.0  0.47921  0.47327  0.02514  1.0000
  C   C470      1.0  0.50180  0.62336  0.10942  1.0000
  S   S178      1.0  0.34413  0.65592  0.08720  1.0000
  S   S179      1.0  0.33923  0.63458  0.32027  1.0000
  H   H754      1.0  0.45894  0.56915  0.18188  1.0000
  C   C471      1.0  0.49940  0.57900  0.15905  1.0000
  N   N47       1.0  0.43540  0.51400  0.22510  1.0000
  H   H755      1.0  0.37763  0.64863  0.26701  1.0000
  H   H756      1.0  0.45592  0.56575  0.47431  1.0000
  H   H757      1.0  0.49816  0.58683  0.11635  1.0000
  C   C472      1.0  0.49367  0.62787  0.09618  1.0000
  C   C473      1.0  0.50006  0.61753  0.31256  1.0000
  H   H758      1.0  0.33932  0.64540  0.03468  1.0000
  S   S180      1.0  0.39744  0.58787  0.36573  1.0000
  C   C474      1.0  0.49182  0.46566  0.08015  1.0000
  S   S181      1.0  0.47841  0.66974  0.47309  1.0000
  H   H759      1.0  0.39753  0.66687  0.03446  1.0000
  H   H760      1.0  0.46909  0.57395  0.01103  1.0000
  H   H761      1.0  0.43899  0.61432  0.34514  1.0000
  C   C475      1.0  0.44842  0.51751  0.21877  1.0000
  H   H762      1.0  0.47036  0.59035  0.20263  1.0000
  H   H763      1.0  0.48729  0.59143  0.04869  1.0000
  C   C476      1.0  0.33822  0.64169  0.99365  1.0000
  S   S182      1.0  0.41588  0.54940  0.46525  1.0000
  H   H764      1.0  0.48623  0.62975  0.10937  1.0000
  H   H765      1.0  0.46943  0.57325  0.14738  1.0000
  H   H766      1.0  0.37658  0.65368  0.21601  1.0000
  H   H767      1.0  0.48896  0.63388  0.05614  1.0000
  H   H768      1.0  0.33859  0.60978  0.02970  1.0000
  S   S183      1.0  0.34339  0.58548  0.42022  1.0000
  H   H769      1.0  0.43309  0.50966  0.27122  1.0000
  S   S184      1.0  0.50255  0.65223  0.44562  1.0000
  H   H770      1.0  0.36139  0.65385  0.22693  1.0000
  H   H771      1.0  0.42168  0.51941  0.20745  1.0000
  H   H772      1.0  0.50000  0.48519  0.01392  1.0000
  H   H773      1.0  0.46842  0.57007  0.04874  1.0000
  C   C477      1.0  0.49539  0.62232  0.35941  1.0000
  H   H774      1.0  0.44716  0.48624  0.15784  1.0000
  S   S185      1.0  0.48551  0.47755  0.14023  1.0000
  C   C478      1.0  0.45657  0.49021  0.15039  1.0000
  H   H775      1.0  0.48385  0.59241  0.48230  1.0000
  H   H776      1.0  0.34101  0.64862  0.26403  1.0000
  C   C479      1.0  0.47654  0.48771  0.14048  1.0000
  C   C480      1.0  0.46432  0.48289  0.14985  1.0000
  Fe  Fe93      1.0  0.34076  0.63611  0.09987  1.0000
  S   S186      1.0  0.33989  0.62312  0.07187  1.0000
  C   C481      1.0  0.37063  0.65934  0.22178  1.0000
  H   H777      1.0  0.42168  0.49861  0.22842  1.0000
  C   C482      1.0  0.42934  0.61063  0.35512  1.0000
  C   C483      1.0  0.37147  0.65423  0.27164  1.0000
  H   H778      1.0  0.43526  0.50034  0.20242  1.0000
  H   H779      1.0  0.47436  0.57462  0.17915  1.0000
  C   C484      1.0  0.43145  0.50155  0.22411  1.0000
  N   N48       1.0  0.48987  0.47387  0.05557  1.0000
  H   H780      1.0  0.35037  0.60562  0.44223  1.0000
  C   C485      1.0  0.47915  0.59726  0.00151  1.0000
  C   C486      1.0  0.48097  0.50010  0.13124  1.0000
  H   H781      1.0  0.46078  0.47338  0.15697  1.0000
  C   C487      1.0  0.43837  0.56547  0.99198  1.0000
  C   C488      1.0  0.48092  0.46734  0.04373  1.0000
  H   H782      1.0  0.38311  0.55633  0.00723  1.0000
  C   C489      1.0  0.49665  0.57866  0.13272  1.0000
  H   H783      1.0  0.43425  0.49546  0.24030  1.0000
  C   C490      1.0  0.46082  0.50254  0.14129  1.0000
  H   H784      1.0  0.49040  0.50394  0.12387  1.0000
  Fe  Fe94      1.0  0.45239  0.53071  0.12824  1.0000
  S   S187      1.0  0.43601  0.53752  0.12834  1.0000
  Fe  Fe95      1.0  0.46839  0.55507  0.11027  1.0000
  S   S188      1.0  0.45356  0.56361  0.10978  1.0000
  S   S189      1.0  0.48612  0.56789  0.09737  1.0000
  Fe  Fe96      1.0  0.44419  0.55021  0.15167  1.0000
  S   S190      1.0  0.43425  0.55714  0.18687  1.0000
  Fe  Fe97      1.0  0.44683  0.55044  0.08614  1.0000
  S   S191      1.0  0.44376  0.56056  0.04442  1.0000
  S   S192      1.0  0.45969  0.54265  0.15410  1.0000
  S   S193      1.0  0.46248  0.54264  0.08445  1.0000
  S   S194      1.0  0.49615  0.59947  0.21756  1.0000
  H   H785      1.0  0.48446  0.59600  0.15491  1.0000
  H   H786      1.0  0.35544  0.66588  0.26106  1.0000
  Fe  Fe98      1.0  0.49593  0.63517  0.48101  1.0000
  Fe  Fe99      1.0  0.47348  0.62855  0.46186  1.0000
  S   S195      1.0  0.49097  0.62441  0.45038  1.0000
  Fe  Fe100     1.0  0.48405  0.65443  0.45780  1.0000
  S   S196      1.0  0.49767  0.60706  0.29165  1.0000
  C   C491      1.0  0.43025  0.51526  0.25414  1.0000
  Fe  Fe101     1.0  0.49585  0.64151  0.41610  1.0000
  S   S197      1.0  0.47783  0.64506  0.42592  1.0000
  Fe  Fe102     1.0  0.42536  0.56035  0.35304  1.0000
  S   S198      1.0  0.42586  0.57956  0.34021  1.0000
  S   S199      1.0  0.43406  0.55151  0.31999  1.0000
  Fe  Fe103     1.0  0.41887  0.55966  0.41837  1.0000
  S   S200      1.0  0.41909  0.57891  0.40935  1.0000
  H   H787      1.0  0.48249  0.57595  0.02310  1.0000
  Fe  Fe104     1.0  0.43534  0.58129  0.37454  1.0000
  S   S201      1.0  0.45178  0.59593  0.36313  1.0000
  S   S202      1.0  0.43592  0.56244  0.38588  1.0000
  C   C492      1.0  0.47793  0.59193  0.05258  1.0000
  Fe  Fe105     1.0  0.40925  0.57556  0.37605  1.0000
  C   C493      1.0  0.46014  0.58929  0.03578  1.0000
  S   S203      1.0  0.40786  0.55581  0.38689  1.0000
  C   C494      1.0  0.33842  0.61869  0.01974  1.0000
  H   H788      1.0  0.45257  0.51667  0.19695  1.0000
  H   H789      1.0  0.42989  0.60441  0.41086  1.0000
  C   C495      1.0  0.45650  0.60805  0.44326  1.0000
  C   C496      1.0  0.44836  0.59737  0.44612  1.0000
  C   C497      1.0  0.44739  0.59322  0.42164  1.0000
  C   C498      1.0  0.45436  0.59990  0.39426  1.0000
  C   C499      1.0  0.46278  0.61034  0.39156  1.0000
  C   C500      1.0  0.46391  0.61437  0.41609  1.0000
  H   H790      1.0  0.42461  0.61183  0.33774  1.0000
  H   H791      1.0  0.44111  0.58497  0.42398  1.0000
  H   H792      1.0  0.46825  0.61548  0.37043  1.0000
  H   H793      1.0  0.47036  0.62251  0.41375  1.0000
  H   H794      1.0  0.46199  0.60001  0.18897  1.0000
  C   C501      1.0  0.47309  0.50753  0.13162  1.0000
  C   C502      1.0  0.48566  0.48349  0.06566  1.0000
  C   C503      1.0  0.49363  0.61448  0.34171  1.0000
  H   H795      1.0  0.49040  0.61982  0.38179  1.0000
  H   H796      1.0  0.48721  0.60600  0.35076  1.0000
  H   H797      1.0  0.42787  0.60095  0.36372  1.0000
  C   C504      1.0  0.43144  0.61404  0.40106  1.0000
  C   C505      1.0  0.43616  0.55695  0.01836  1.0000
  H   H798      1.0  0.40724  0.61211  0.37410  1.0000
  H   H799      1.0  0.42431  0.63352  0.38286  1.0000
  H   H800      1.0  0.49842  0.47036  0.08969  1.0000
  C   C506      1.0  0.42784  0.54615  0.02337  1.0000
  H   H801      1.0  0.42601  0.53952  0.04357  1.0000
  C   C507      1.0  0.43483  0.55596  0.22342  1.0000
  C   C508      1.0  0.44228  0.55007  0.23576  1.0000
  C   C509      1.0  0.44202  0.54891  0.26525  1.0000
  C   C510      1.0  0.43446  0.55378  0.28262  1.0000
  C   C511      1.0  0.42735  0.56005  0.26997  1.0000
  C   C512      1.0  0.42750  0.56108  0.24059  1.0000
  H   H802      1.0  0.44815  0.54632  0.22270  1.0000
  H   H803      1.0  0.44763  0.54412  0.27478  1.0000
  H   H804      1.0  0.42148  0.56383  0.28301  1.0000
  H   H805      1.0  0.42172  0.56569  0.23128  1.0000
  C   C513      1.0  0.49139  0.56788  0.12819  1.0000
  H   H806      1.0  0.44063  0.56292  0.44712  1.0000
  C   C514      1.0  0.33861  0.63945  0.26366  1.0000
  S   S204      1.0  0.50152  0.56908  0.21274  1.0000
  C   C515      1.0  0.49259  0.55767  0.17550  1.0000
  C   C516      1.0  0.48937  0.55736  0.14953  1.0000
  H   H807      1.0  0.47315  0.58575  0.07401  1.0000
  H   H808      1.0  0.45481  0.58464  0.20642  1.0000
  H   H809      1.0  0.49111  0.54953  0.19189  1.0000
  H   H810      1.0  0.48543  0.54898  0.14588  1.0000
  H   H811      1.0  0.42043  0.51265  0.25961  1.0000
  H   H812      1.0  0.36024  0.61683  0.45151  1.0000
  C   C517      1.0  0.43147  0.52168  0.20324  1.0000
  H   H813      1.0  0.44115  0.61774  0.39227  1.0000
  N   N49       1.0  0.42510  0.61616  0.37826  1.0000
  S   S205      1.0  0.33834  0.65439  0.15790  1.0000
  N   N50       1.0  0.47261  0.58878  0.02949  1.0000
  S   S206      1.0  0.45725  0.61359  0.47354  1.0000
  C   C518      1.0  0.42736  0.62904  0.36598  1.0000
  H   H814      1.0  0.47625  0.60562  0.14067  1.0000
  H   H815      1.0  0.45175  0.52687  0.21918  1.0000
  H   H816      1.0  0.39181  0.66657  0.23207  1.0000
  S   S207      1.0  0.47634  0.63722  0.99892  1.0000
  N   N51       1.0  0.46806  0.58041  0.30066  1.0000
  C   C519      1.0  0.46868  0.59317  0.29616  1.0000
  C   C520      1.0  0.46413  0.57613  0.27697  1.0000
  C   C521      1.0  0.45953  0.57381  0.32845  1.0000
  C   C522      1.0  0.47982  0.57851  0.30127  1.0000
  H   H817      1.0  0.47168  0.59666  0.31369  1.0000
  H   H818      1.0  0.45990  0.59494  0.29627  1.0000
  H   H819      1.0  0.47503  0.59851  0.27538  1.0000
  H   H820      1.0  0.45525  0.57745  0.27605  1.0000
  H   H821      1.0  0.47044  0.58081  0.25568  1.0000
  H   H822      1.0  0.46336  0.56647  0.28015  1.0000
  H   H823      1.0  0.45863  0.56410  0.33262  1.0000
  H   H824      1.0  0.45061  0.57517  0.32861  1.0000
  H   H825      1.0  0.46216  0.57680  0.34693  1.0000
  H   H826      1.0  0.48302  0.58173  0.31886  1.0000
  H   H827      1.0  0.48651  0.58343  0.28064  1.0000
  H   H828      1.0  0.47968  0.56897  0.30478  1.0000
  S   S208      1.0  0.45013  0.51092  0.14344  1.0000
  C   C523      1.0  0.36174  0.59501  0.47678  1.0000
  H   H829      1.0  0.43297  0.52459  0.25544  1.0000
  H   H830      1.0  0.43503  0.52074  0.18120  1.0000
  H   H831      1.0  0.44277  0.59233  0.46719  1.0000
  H   H832      1.0  0.43444  0.53119  0.20288  1.0000
  H   H833      1.0  0.48358  0.46171  0.09789  1.0000
  C   C524      1.0  0.43836  0.55903  0.47019  1.0000
  C   C525      1.0  0.49520  0.63023  0.06592  1.0000
  C   C526      1.0  0.42170  0.54401  0.00233  1.0000
  H   H834      1.0  0.41032  0.60119  0.40034  1.0000
  H   H835      1.0  0.43697  0.63321  0.35633  1.0000
  H   H836      1.0  0.40874  0.61490  0.40824  1.0000
  H   H837      1.0  0.42272  0.63094  0.34866  1.0000
  C   C527      1.0  0.41230  0.61091  0.39082  1.0000
  H   H838      1.0  0.47650  0.51705  0.12456  1.0000
  H   H839      1.0  0.33766  0.64347  0.21919  1.0000
  H   H840      1.0  0.48403  0.48987  0.04781  1.0000
  N   N52       1.0  0.46585  0.58793  0.16354  1.0000
  C   C528      1.0  0.45611  0.58883  0.14950  1.0000
  C   C529      1.0  0.47694  0.59630  0.14481  1.0000
  C   C530      1.0  0.46721  0.57571  0.16821  1.0000
  C   C531      1.0  0.46311  0.59085  0.19170  1.0000
  H   H841      1.0  0.44762  0.58252  0.16295  1.0000
  H   H842      1.0  0.45793  0.58673  0.12814  1.0000
  H   H843      1.0  0.45475  0.59790  0.14586  1.0000
  H   H844      1.0  0.47943  0.59428  0.12348  1.0000
  C   C532      1.0  0.49754  0.56853  0.18034  1.0000
  H   H845      1.0  0.47236  0.46339  0.06041  1.0000
  H   H846      1.0  0.39202  0.66914  0.06931  1.0000
  H   H847      1.0  0.49512  0.45832  0.07347  1.0000
  S   S209      1.0  0.49950  0.62090  0.14769  1.0000
  H   H848      1.0  0.47875  0.60644  0.00208  1.0000
  C   C533      1.0  0.38527  0.67165  0.23791  1.0000
  C   C534      1.0  0.33767  0.62161  0.99088  1.0000
  C   C535      1.0  0.50109  0.47893  0.03285  1.0000
  H   H849      1.0  0.36005  0.59038  0.45982  1.0000
  H   H850      1.0  0.37198  0.66655  0.20206  1.0000
  H   H851      1.0  0.37048  0.60156  0.46772  1.0000
  H   H852      1.0  0.33869  0.58731  0.47940  1.0000
  S   S210      1.0  0.37208  0.66829  0.11369  1.0000
  H   H853      1.0  0.49218  0.48857  0.07489  1.0000
  N   N53       1.0  0.35227  0.60078  0.48544  1.0000
  C   C536      1.0  0.36474  0.67131  0.25361  1.0000
  H   H854      1.0  0.50268  0.58743  0.16294  1.0000
  C   C537      1.0  0.33714  0.63053  0.28870  1.0000
  C   C538      1.0  0.43238  0.56326  0.97082  1.0000
  Fe  Fe106     1.0  0.34943  0.65049  0.63881  1.0000
  H   H855      1.0  0.37529  0.59316  0.79206  1.0000
  H   H856      1.0  0.39441  0.67171  0.60511  1.0000
  S   S211      1.0  0.45862  0.61082  0.97650  1.0000
  S   S212      1.0  0.34744  0.62804  0.80828  1.0000
  H   H857      1.0  0.47918  0.45619  0.52227  1.0000
  H   H858      1.0  0.44476  0.57386  0.98783  1.0000
  S   S213      1.0  0.34852  0.61798  0.88792  1.0000
  H   H859      1.0  0.49193  0.62157  0.88477  1.0000
  C   C539      1.0  0.39039  0.56253  0.93385  1.0000
  H   H860      1.0  0.40114  0.58216  0.94713  1.0000
  H   H861      1.0  0.34661  0.67123  0.77516  1.0000
  H   H862      1.0  0.38010  0.57933  0.94667  1.0000
  H   H863      1.0  0.48445  0.52910  0.65520  1.0000
  H   H864      1.0  0.39771  0.55811  0.93141  1.0000
  C   C540      1.0  0.34879  0.59978  0.79596  1.0000
  H   H865      1.0  0.47902  0.51384  0.65635  1.0000
  H   H866      1.0  0.36242  0.58827  0.49539  1.0000
  H   H867      1.0  0.47415  0.57495  0.54181  1.0000
  H   H868      1.0  0.35270  0.63376  0.74644  1.0000
  S   S214      1.0  0.49831  0.61056  0.79253  1.0000
  H   H869      1.0  0.49232  0.50072  0.65547  1.0000
  C   C541      1.0  0.38265  0.58490  0.87327  1.0000
  C   C542      1.0  0.37916  0.59543  0.87306  1.0000
  C   C543      1.0  0.36754  0.59520  0.88674  1.0000
  C   C544      1.0  0.35922  0.58440  0.90064  1.0000
  C   C545      1.0  0.36280  0.57385  0.90167  1.0000
  C   C546      1.0  0.37442  0.57408  0.88783  1.0000
  H   H870      1.0  0.36500  0.60339  0.88606  1.0000
  H   H871      1.0  0.35640  0.56544  0.91209  1.0000
  H   H872      1.0  0.37682  0.56588  0.88705  1.0000
  H   H873      1.0  0.35815  0.60898  0.83511  1.0000
  C   C547      1.0  0.42408  0.54735  0.51448  1.0000
  H   H874      1.0  0.48495  0.66396  0.52794  1.0000
  C   C548      1.0  0.48706  0.46321  0.52140  1.0000
  C   C549      1.0  0.48552  0.52008  0.66314  1.0000
  C   C550      1.0  0.35842  0.65838  0.80377  1.0000
  H   H875      1.0  0.50031  0.53206  0.61117  1.0000
  C   C551      1.0  0.36439  0.60743  0.81690  1.0000
  H   H876      1.0  0.48959  0.65026  0.56636  1.0000
  H   H877      1.0  0.36502  0.65099  0.75641  1.0000
  H   H878      1.0  0.34086  0.58474  0.51523  1.0000
  H   H879      1.0  0.45829  0.59095  0.55894  1.0000
  H   H880      1.0  0.34206  0.60150  0.81281  1.0000
  H   H881      1.0  0.48300  0.51782  0.68719  1.0000
  C   C552      1.0  0.49668  0.62449  0.86220  1.0000
  Fe  Fe107     1.0  0.49536  0.63761  0.98297  1.0000
  H   H882      1.0  0.36333  0.61333  0.50097  1.0000
  H   H883      1.0  0.42926  0.52553  0.52427  1.0000
  N   N54       1.0  0.49773  0.51943  0.65173  1.0000
  H   H884      1.0  0.48093  0.46461  0.57605  1.0000
  H   H885      1.0  0.47691  0.58546  0.56272  1.0000
  C   C553      1.0  0.34082  0.59175  0.49638  1.0000
  H   H886      1.0  0.48411  0.47133  0.52329  1.0000
  H   H887      1.0  0.48954  0.60794  0.85303  1.0000
  S   S215      1.0  0.47799  0.63794  0.49483  1.0000
  H   H888      1.0  0.35097  0.65419  0.75740  1.0000
  H   H889      1.0  0.48796  0.60719  0.51021  1.0000
  S   S216      1.0  0.39649  0.58559  0.85060  1.0000
  H   H890      1.0  0.33998  0.63322  0.71252  1.0000
  H   H891      1.0  0.38542  0.60383  0.86163  1.0000
  H   H892      1.0  0.43949  0.49915  0.58005  1.0000
  C   C554      1.0  0.49539  0.61675  0.84414  1.0000
  N   N55       1.0  0.36271  0.66577  0.77363  1.0000
  H   H893      1.0  0.49324  0.46521  0.49960  1.0000
  H   H894      1.0  0.42953  0.51285  0.60042  1.0000
  H   H895      1.0  0.38057  0.66449  0.77044  1.0000
  H   H896      1.0  0.34782  0.61130  0.51484  1.0000
  N   N56       1.0  0.47268  0.59232  0.52291  1.0000
  H   H897      1.0  0.48845  0.45437  0.59114  1.0000
  H   H898      1.0  0.34812  0.58796  0.85011  1.0000
  H   H899      1.0  0.45285  0.52169  0.53115  1.0000
  H   H900      1.0  0.47652  0.44935  0.57577  1.0000
  S   S217      1.0  0.48201  0.47075  0.62898  1.0000
  S   S218      1.0  0.49518  0.56947  0.73167  1.0000
  C   C555      1.0  0.45829  0.49662  0.62738  1.0000
  C   C556      1.0  0.47061  0.50119  0.61775  1.0000
  C   C557      1.0  0.47813  0.49343  0.61811  1.0000
  C   C558      1.0  0.47332  0.48112  0.62815  1.0000
  C   C559      1.0  0.46104  0.47668  0.63717  1.0000
  H   H901      1.0  0.48758  0.49687  0.61015  1.0000
  H   H902      1.0  0.44415  0.48069  0.64408  1.0000
  H   H903      1.0  0.39723  0.57594  0.98556  1.0000
  H   H904      1.0  0.48910  0.44126  0.54242  1.0000
  H   H905      1.0  0.48777  0.58629  0.53054  1.0000
  H   H906      1.0  0.39238  0.55011  0.98427  1.0000
  C   C560      1.0  0.37091  0.66919  0.65880  1.0000
  C   C561      1.0  0.45362  0.48434  0.63677  1.0000
  H   H907      1.0  0.44560  0.53136  0.54715  1.0000
  S   S219      1.0  0.34314  0.65292  0.59792  1.0000
  H   H908      1.0  0.35171  0.60781  0.77741  1.0000
  H   H909      1.0  0.34432  0.59228  0.78851  1.0000
  C   C562      1.0  0.39864  0.57371  0.96431  1.0000
  H   H910      1.0  0.45722  0.46721  0.64479  1.0000
  H   H911      1.0  0.36726  0.61574  0.79918  1.0000
  H   H912      1.0  0.44252  0.50028  0.54194  1.0000
  N   N57       1.0  0.49278  0.45943  0.54457  1.0000
  C   C563      1.0  0.47433  0.59044  0.49351  1.0000
  H   H913      1.0  0.47527  0.59521  0.98363  1.0000
  H   H914      1.0  0.37108  0.60301  0.76525  1.0000
  H   H915      1.0  0.42515  0.52394  0.57726  1.0000
  C   C564      1.0  0.35466  0.60661  0.50836  1.0000
  H   H916      1.0  0.47507  0.60010  0.69344  1.0000
  Fe  Fe108     1.0  0.45319  0.52533  0.62291  1.0000
  S   S220      1.0  0.44034  0.53646  0.61588  1.0000
  Fe  Fe109     1.0  0.47278  0.54634  0.61824  1.0000
  S   S221      1.0  0.46210  0.55931  0.60921  1.0000
  S   S222      1.0  0.49168  0.55254  0.61903  1.0000
  Fe  Fe110     1.0  0.44786  0.54630  0.64589  1.0000
  S   S223      1.0  0.43768  0.55486  0.67689  1.0000
  Fe  Fe111     1.0  0.45546  0.54860  0.58014  1.0000
  S   S224      1.0  0.45580  0.55734  0.53376  1.0000
  S   S225      1.0  0.45902  0.53382  0.65639  1.0000
  S   S226      1.0  0.46782  0.53693  0.58561  1.0000
  S   S227      1.0  0.49406  0.60156  0.72490  1.0000
  Fe  Fe112     1.0  0.33791  0.61978  0.85509  1.0000
  C   C565      1.0  0.35452  0.58658  0.83190  1.0000
  S   S228      1.0  0.49536  0.61975  0.65096  1.0000
  Fe  Fe113     1.0  0.47326  0.62729  0.96586  1.0000
  S   S229      1.0  0.49194  0.62640  0.95218  1.0000
  H   H917      1.0  0.42758  0.49486  0.56408  1.0000
  Fe  Fe114     1.0  0.47980  0.65358  0.96224  1.0000
  S   S230      1.0  0.49929  0.65479  0.94843  1.0000
  S   S231      1.0  0.34417  0.58369  0.91515  1.0000
  Fe  Fe115     1.0  0.49433  0.64323  0.91896  1.0000
  H   H918      1.0  0.45009  0.52010  0.56942  1.0000
  C   C566      1.0  0.47812  0.58441  0.54029  1.0000
  S   S232      1.0  0.47521  0.64332  0.93042  1.0000
  Fe  Fe116     1.0  0.42923  0.56379  0.83919  1.0000
  S   S233      1.0  0.42843  0.58271  0.82727  1.0000
  S   S234      1.0  0.43858  0.55478  0.80757  1.0000
  Fe  Fe117     1.0  0.42048  0.56182  0.90470  1.0000
  S   S235      1.0  0.41904  0.58061  0.89686  1.0000
  S   S236      1.0  0.46943  0.66698  0.97236  1.0000
  Fe  Fe118     1.0  0.43637  0.58476  0.86427  1.0000
  S   S237      1.0  0.45206  0.59978  0.85904  1.0000
  S   S238      1.0  0.41113  0.55757  0.87067  1.0000
  S   S239      1.0  0.43840  0.56630  0.87440  1.0000
  C   C567      1.0  0.33768  0.63315  0.97766  1.0000
  N   N58       1.0  0.43476  0.51366  0.55511  1.0000
  C   C568      1.0  0.47836  0.60477  0.52107  1.0000
  H   H919      1.0  0.43423  0.56990  0.95066  1.0000
  H   H920      1.0  0.36372  0.58747  0.77633  1.0000
  H   H921      1.0  0.45188  0.57994  0.67310  1.0000
  H   H922      1.0  0.46162  0.57237  0.65651  1.0000
  H   H923      1.0  0.48177  0.62575  0.61052  1.0000
  H   H924      1.0  0.35976  0.66374  0.81954  1.0000
  H   H925      1.0  0.46392  0.62479  0.83172  1.0000
  H   H926      1.0  0.48269  0.66045  0.82297  1.0000
  C   C569      1.0  0.45710  0.60702  0.94443  1.0000
  C   C570      1.0  0.46573  0.61272  0.91862  1.0000
  C   C571      1.0  0.46431  0.61009  0.89269  1.0000
  C   C572      1.0  0.45417  0.60194  0.89233  1.0000
  C   C573      1.0  0.44571  0.59595  0.91829  1.0000
  C   C574      1.0  0.44718  0.59847  0.94438  1.0000
  H   H927      1.0  0.47347  0.61920  0.91866  1.0000
  H   H928      1.0  0.47101  0.61444  0.87285  1.0000
  H   H929      1.0  0.43796  0.58952  0.91832  1.0000
  H   H930      1.0  0.44053  0.59397  0.96436  1.0000
  H   H931      1.0  0.49670  0.50445  0.68616  1.0000
  C   C575      1.0  0.36056  0.65830  0.75361  1.0000
  H   H932      1.0  0.34884  0.65387  0.80908  1.0000
  H   H933      1.0  0.45557  0.59548  0.52402  1.0000
  H   H934      1.0  0.37228  0.60603  0.82442  1.0000
  C   C576      1.0  0.49862  0.50720  0.66215  1.0000
  H   H935      1.0  0.36192  0.58426  0.84046  1.0000
  C   C577      1.0  0.34323  0.63052  0.75483  1.0000
  H   H936      1.0  0.48402  0.59336  0.63799  1.0000
  H   H937      1.0  0.35002  0.57874  0.82565  1.0000
  N   N59       1.0  0.47166  0.64286  0.83080  1.0000
  H   H938      1.0  0.47294  0.63372  0.79700  1.0000
  H   H939      1.0  0.45965  0.59611  0.69442  1.0000
  H   H940      1.0  0.48406  0.65433  0.79203  1.0000
  C   C578      1.0  0.44434  0.55549  0.51564  1.0000
  C   C579      1.0  0.44633  0.52207  0.55048  1.0000
  C   C580      1.0  0.49840  0.62179  0.61274  1.0000
  H   H941      1.0  0.47425  0.51065  0.60959  1.0000
  H   H942      1.0  0.45532  0.58038  0.53826  1.0000
  C   C581      1.0  0.43276  0.54900  0.53007  1.0000
  H   H943      1.0  0.35475  0.60009  0.52814  1.0000
  H   H944      1.0  0.43048  0.54529  0.55320  1.0000
  C   C582      1.0  0.43827  0.55488  0.71303  1.0000
  C   C583      1.0  0.44525  0.54890  0.72710  1.0000
  C   C584      1.0  0.44531  0.54907  0.75590  1.0000
  C   C585      1.0  0.43840  0.55519  0.77101  1.0000
  C   C586      1.0  0.43164  0.56139  0.75668  1.0000
  C   C587      1.0  0.43158  0.56122  0.72790  1.0000
  H   H945      1.0  0.45046  0.54400  0.71600  1.0000
  H   H946      1.0  0.45058  0.54425  0.76673  1.0000
  H   H947      1.0  0.42629  0.56614  0.76795  1.0000
  H   H948      1.0  0.42615  0.56587  0.71725  1.0000
  C   C588      1.0  0.49284  0.55679  0.65079  1.0000
  H   H949      1.0  0.43634  0.51550  0.50961  1.0000
  S   S240      1.0  0.34148  0.63073  0.65243  1.0000
  C   C589      1.0  0.49452  0.56437  0.70080  1.0000
  C   C590      1.0  0.48496  0.55524  0.70168  1.0000
  C   C591      1.0  0.48402  0.55159  0.67657  1.0000
  H   H950      1.0  0.47809  0.55120  0.72154  1.0000
  H   H951      1.0  0.47651  0.54471  0.67741  1.0000
  C   C592      1.0  0.47206  0.63206  0.82068  1.0000
  N   N60       1.0  0.35882  0.59723  0.80722  1.0000
  C   C593      1.0  0.46866  0.59675  0.68154  1.0000
  H   H952      1.0  0.48556  0.62915  0.55706  1.0000
  C   C594      1.0  0.42394  0.55255  0.97594  1.0000
  H   H953      1.0  0.41752  0.50861  0.58466  1.0000
  S   S241      1.0  0.36828  0.65813  0.64007  1.0000
  H   H954      1.0  0.41517  0.54226  0.52574  1.0000
  S   S242      1.0  0.41575  0.54973  0.95037  1.0000
  C   C595      1.0  0.49212  0.62681  0.56786  1.0000
  H   H955      1.0  0.36311  0.65128  0.80750  1.0000
  H   H956      1.0  0.39292  0.57061  0.91554  1.0000
  H   H957      1.0  0.42144  0.51028  0.53196  1.0000
  H   H958      1.0  0.47968  0.62869  0.82500  1.0000
  H   H959      1.0  0.46211  0.63325  0.87440  1.0000
  C   C596      1.0  0.46146  0.64705  0.82431  1.0000
  H   H960      1.0  0.46213  0.64922  0.80066  1.0000
  H   H961      1.0  0.46082  0.65514  0.83186  1.0000
  H   H962      1.0  0.45301  0.64016  0.83519  1.0000
  N   N61       1.0  0.47284  0.57589  0.80875  1.0000
  C   C597      1.0  0.46736  0.56442  0.83044  1.0000
  C   C598      1.0  0.48583  0.57835  0.80298  1.0000
  C   C599      1.0  0.46888  0.58543  0.81978  1.0000
  C   C600      1.0  0.46928  0.57536  0.78170  1.0000
  H   H963      1.0  0.45758  0.56211  0.83443  1.0000
  H   H964      1.0  0.46946  0.56461  0.85154  1.0000
  H   H965      1.0  0.47037  0.55708  0.82304  1.0000
  H   H966      1.0  0.49022  0.58689  0.78650  1.0000
  H   H967      1.0  0.48883  0.57904  0.82283  1.0000
  H   H968      1.0  0.48915  0.57133  0.79464  1.0000
  H   H969      1.0  0.45914  0.58400  0.82377  1.0000
  H   H970      1.0  0.47306  0.59427  0.80426  1.0000
  H   H971      1.0  0.47115  0.58599  0.84055  1.0000
  H   H972      1.0  0.47201  0.56816  0.77293  1.0000
  H   H973      1.0  0.47330  0.58384  0.76487  1.0000
  H   H974      1.0  0.45953  0.57363  0.78530  1.0000
  C   C601      1.0  0.43614  0.50144  0.56046  1.0000
  C   C602      1.0  0.48998  0.62484  0.59821  1.0000
  C   C603      1.0  0.43025  0.51633  0.52913  1.0000
  C   C604      1.0  0.42636  0.51482  0.58045  1.0000
  S   S243      1.0  0.44822  0.50562  0.62719  1.0000
  C   C605      1.0  0.36761  0.59512  0.78416  1.0000
  C   C606      1.0  0.47040  0.64017  0.86234  1.0000
  H   H975      1.0  0.47018  0.64816  0.87063  1.0000
  C   C607      1.0  0.48270  0.65216  0.81593  1.0000
  H   H976      1.0  0.47790  0.63690  0.86811  1.0000
  H   H977      1.0  0.49052  0.64929  0.82079  1.0000
  H   H978      1.0  0.47429  0.61094  0.50856  1.0000
  H   H979      1.0  0.47051  0.60364  0.66084  1.0000
  C   C608      1.0  0.46110  0.58112  0.66052  1.0000
  H   H980      1.0  0.48860  0.58947  0.67050  1.0000
  Fe  Fe119     1.0  0.41094  0.57685  0.86103  1.0000
  C   C609      1.0  0.45992  0.58967  0.53672  1.0000
  H   H981      1.0  0.47423  0.57886  0.71611  1.0000
  H   H982      1.0  0.46255  0.58748  0.63924  1.0000
  C   C610      1.0  0.46746  0.57643  0.70428  1.0000
  H   H983      1.0  0.46759  0.56749  0.70110  1.0000
  H   H984      1.0  0.48295  0.57808  0.65418  1.0000
  H   H985      1.0  0.45861  0.57555  0.71847  1.0000
  N   N62       1.0  0.46977  0.58522  0.67632  1.0000
  C   C611      1.0  0.48185  0.58656  0.65897  1.0000
  H   H986      1.0  0.37605  0.57354  0.98532  1.0000
  N   N63       1.0  0.38801  0.56546  0.96205  1.0000
  C   C612      1.0  0.48430  0.45680  0.57306  1.0000
  H   H987      1.0  0.47748  0.60648  0.54284  1.0000
  H   H988      1.0  0.49757  0.65090  0.51471  1.0000
  H   H989      1.0  0.38253  0.55639  0.93133  1.0000
  C   C613      1.0  0.33822  0.62683  0.78470  1.0000
  H   H990      1.0  0.40636  0.56979  0.96213  1.0000
  H   H991      1.0  0.49477  0.51695  0.61117  1.0000
  H   H992      1.0  0.38858  0.66782  0.65880  1.0000
  C   C614      1.0  0.49666  0.44872  0.54110  1.0000
  H   H993      1.0  0.47008  0.58113  0.49417  1.0000
  C   C615      1.0  0.37808  0.57109  0.96441  1.0000
  H   H994      1.0  0.36990  0.56511  0.96284  1.0000
  H   H995      1.0  0.50106  0.44567  0.55820  1.0000
  H   H996      1.0  0.50050  0.47719  0.54603  1.0000
  C   C616      1.0  0.50082  0.52284  0.61976  1.0000
  Fe  Fe120     1.0  0.50167  0.47494  0.62489  1.0000
  C   C617      1.0  0.49783  0.65703  0.56438  1.0000
  H   H997      1.0  0.49579  0.66203  0.58080  1.0000
  N   N64       1.0  0.50229  0.66495  0.53481  1.0000
  H   H998      1.0  0.36389  0.66352  0.73060  1.0000
  C   C618      1.0  0.50311  0.46905  0.54270  1.0000
  H   H999      1.0  0.37708  0.54798  0.98443  1.0000
  H   H1000     1.0  0.33818  0.65064  0.98358  1.0000
  C   C619      1.0  0.38497  0.55449  0.98557  1.0000
  C   C620      1.0  0.50136  0.62036  0.81460  1.0000
  C   C621      1.0  0.50271  0.56549  0.65034  1.0000
  C   C622      1.0  0.50278  0.62588  0.55159  1.0000
  C   C623      1.0  0.37550  0.67128  0.76734  1.0000
  H   H1001     1.0  0.50308  0.45042  0.51978  1.0000
  C   C624      1.0  0.49307  0.67065  0.52736  1.0000
  C   C625      1.0  0.50346  0.56938  0.67524  1.0000
  H   H1002     1.0  0.33726  0.61496  0.97878  1.0000
  C   C626      1.0  0.37402  0.67766  0.13691  1.0000
  C   C627      1.0  0.42788  0.75331  0.00239  1.0000
  C   C628      1.0  0.38016  0.75971  0.22919  1.0000
  C   C629      1.0  0.45815  0.88380  0.00590  1.0000
  N   N65       1.0  0.39576  0.68449  0.03373  1.0000
  H   H1003     1.0  0.45124  0.69500  0.04736  1.0000
  S   S244      1.0  0.40049  0.72287  0.22611  1.0000
  H   H1004     1.0  0.35045  0.86936  0.45424  1.0000
  C   C630      1.0  0.38367  0.68182  0.02976  1.0000
  S   S245      1.0  0.37935  0.70101  0.19912  1.0000
  H   H1005     1.0  0.35688  0.74928  0.24347  1.0000
  C   C631      1.0  0.38548  0.68340  0.13709  1.0000
  H   H1006     1.0  0.40177  0.93982  0.47130  1.0000
  H   H1007     1.0  0.42786  0.77328  0.02007  1.0000
  C   C632      1.0  0.43069  0.75299  0.05011  1.0000
  H   H1008     1.0  0.45377  0.76099  0.02073  1.0000
  H   H1009     1.0  0.39610  0.69515  0.15576  1.0000
  H   H1010     1.0  0.42911  0.85846  0.99361  1.0000
  H   H1011     1.0  0.44266  0.77588  0.02447  1.0000
  C   C633      1.0  0.37428  0.74210  0.21314  1.0000
  C   C634      1.0  0.38724  0.69086  0.15554  1.0000
  H   H1012     1.0  0.41183  0.93169  0.12910  1.0000
  C   C635      1.0  0.44786  0.92365  0.98934  1.0000
  H   H1013     1.0  0.39105  0.92547  0.20171  1.0000
  H   H1014     1.0  0.37671  0.75476  0.25234  1.0000
  C   C636      1.0  0.35078  0.82837  0.06379  1.0000
  C   C637      1.0  0.37752  0.69258  0.17396  1.0000
  H   H1015     1.0  0.35854  0.68831  0.18767  1.0000
  H   H1016     1.0  0.49633  0.96517  0.18982  1.0000
  C   C638      1.0  0.47251  0.92872  0.46878  1.0000
  H   H1017     1.0  0.47305  0.86758  0.04325  1.0000
  H   H1018     1.0  0.38365  0.74183  0.20584  1.0000
  H   H1019     1.0  0.38962  0.75975  0.22258  1.0000
  Fe  Fe121     1.0  0.39771  0.71203  0.19436  1.0000
  H   H1020     1.0  0.34738  0.83231  0.08151  1.0000
  H   H1021     1.0  0.44547  0.75987  0.47005  1.0000
  H   H1022     1.0  0.43642  0.75668  0.06318  1.0000
  C   C639      1.0  0.46622  0.71080  0.00084  1.0000
  H   H1023     1.0  0.40392  0.68394  0.99066  1.0000
  H   H1024     1.0  0.36890  0.88305  0.45580  1.0000
  H   H1025     1.0  0.37082  0.73658  0.23584  1.0000
  S   S246      1.0  0.40849  0.75570  0.18077  1.0000
  H   H1026     1.0  0.36928  0.73779  0.19955  1.0000
  H   H1027     1.0  0.36665  0.67549  0.27111  1.0000
  H   H1028     1.0  0.37982  0.76905  0.22768  1.0000
  H   H1029     1.0  0.40220  0.94732  0.05715  1.0000
  H   H1030     1.0  0.37574  0.82358  0.33496  1.0000
  H   H1031     1.0  0.41880  0.75440  0.00903  1.0000
  N   N66       1.0  0.37335  0.75440  0.21083  1.0000
  S   S247      1.0  0.39285  0.87974  0.45513  1.0000
  C   C640      1.0  0.35840  0.86634  0.45319  1.0000
  S   S248      1.0  0.39686  0.91650  0.45399  1.0000
  H   H1032     1.0  0.37699  0.67767  0.05089  1.0000
  Fe  Fe122     1.0  0.45299  0.84296  0.00623  1.0000
  S   S249      1.0  0.35238  0.81503  0.44700  1.0000
  H   H1033     1.0  0.46243  0.68698  0.01078  1.0000
  C   C641      1.0  0.42039  0.92862  0.17578  1.0000
  S   S250      1.0  0.35500  0.80580  0.37271  1.0000
  S   S251      1.0  0.47245  0.84446  0.99665  1.0000
  Fe  Fe123     1.0  0.35281  0.78749  0.21029  1.0000
  H   H1034     1.0  0.34911  0.78633  0.07446  1.0000
  S   S252      1.0  0.37215  0.78875  0.20223  1.0000
  C   C642      1.0  0.40418  0.82259  0.33151  1.0000
  H   H1035     1.0  0.35128  0.83215  0.99273  1.0000
  H   H1036     1.0  0.43842  0.92244  0.48667  1.0000
  C   C643      1.0  0.49939  0.98078  0.20582  1.0000
  S   S253      1.0  0.40245  0.82470  0.25414  1.0000
  C   C644      1.0  0.36083  0.75443  0.22057  1.0000
  H   H1037     1.0  0.42678  0.88716  0.38858  1.0000
  H   H1038     1.0  0.38813  0.82871  0.30395  1.0000
  H   H1039     1.0  0.39167  0.79999  0.34237  1.0000
  C   C645      1.0  0.42716  0.87988  0.44397  1.0000
  H   H1040     1.0  0.46122  0.89451  0.47726  1.0000
  N   N67       1.0  0.34896  0.83428  0.03595  1.0000
  H   H1041     1.0  0.36552  0.84766  0.02212  1.0000
  H   H1042     1.0  0.42979  0.74328  0.05510  1.0000
  C   C646      1.0  0.35090  0.80223  0.32132  1.0000
  C   C647      1.0  0.46880  0.87041  0.02568  1.0000
  H   H1043     1.0  0.36034  0.80556  0.31237  1.0000
  H   H1044     1.0  0.34746  0.80010  0.28066  1.0000
  N   N68       1.0  0.41068  0.95822  0.46252  1.0000
  H   H1045     1.0  0.43093  0.87587  0.46141  1.0000
  H   H1046     1.0  0.41802  0.97697  0.44529  1.0000
  C   C648      1.0  0.39347  0.81412  0.24222  1.0000
  C   C649      1.0  0.38219  0.81506  0.24001  1.0000
  C   C650      1.0  0.37536  0.80705  0.22859  1.0000
  C   C651      1.0  0.37991  0.79823  0.21902  1.0000
  C   C652      1.0  0.39099  0.79706  0.22222  1.0000
  C   C653      1.0  0.39765  0.80485  0.23428  1.0000
  H   H1047     1.0  0.37885  0.82213  0.24646  1.0000
  H   H1048     1.0  0.36677  0.80795  0.22634  1.0000
  H   H1049     1.0  0.39446  0.79014  0.21528  1.0000
  C   C654      1.0  0.37931  0.87044  0.45309  1.0000
  C   C655      1.0  0.36890  0.87416  0.45410  1.0000
  H   H1050     1.0  0.36248  0.82868  0.00996  1.0000
  C   C656      1.0  0.35808  0.85468  0.45097  1.0000
  C   C657      1.0  0.36851  0.85099  0.44973  1.0000
  C   C658      1.0  0.37897  0.85877  0.45094  1.0000
  H   H1051     1.0  0.36533  0.67859  0.23466  1.0000
  H   H1052     1.0  0.36852  0.84211  0.44796  1.0000
  H   H1053     1.0  0.38690  0.85571  0.45011  1.0000
  H   H1054     1.0  0.40874  0.81611  0.34093  1.0000
  H   H1055     1.0  0.41696  0.92570  0.29133  1.0000
  H   H1056     1.0  0.37779  0.80317  0.34014  1.0000
  C   C659      1.0  0.38748  0.81567  0.37322  1.0000
  H   H1057     1.0  0.40603  0.80368  0.23733  1.0000
  H   H1058     1.0  0.40732  0.82453  0.30758  1.0000
  H   H1059     1.0  0.40723  0.83096  0.33761  1.0000
  C   C660      1.0  0.37817  0.76138  0.18039  1.0000
  H   H1060     1.0  0.38806  0.83534  0.33382  1.0000
  H   H1061     1.0  0.39156  0.80904  0.38402  1.0000
  H   H1062     1.0  0.35989  0.76361  0.21910  1.0000
  H   H1063     1.0  0.39008  0.68920  0.07351  1.0000
  N   N69       1.0  0.39120  0.81798  0.34139  1.0000
  H   H1064     1.0  0.37325  0.75763  0.16591  1.0000
  H   H1065     1.0  0.34617  0.81879  0.07049  1.0000
  H   H1066     1.0  0.42176  0.75428  0.05791  1.0000
  H   H1067     1.0  0.39011  0.80832  0.30897  1.0000
  C   C661      1.0  0.38555  0.82681  0.32798  1.0000
  H   H1068     1.0  0.42001  0.87285  0.38466  1.0000
  Fe  Fe124     1.0  0.40192  0.89912  0.45403  1.0000
  H   H1069     1.0  0.41227  0.94671  0.18870  1.0000
  H   H1070     1.0  0.44979  0.88318  0.06177  1.0000
  H   H1071     1.0  0.47985  0.71689  0.03547  1.0000
  H   H1072     1.0  0.38761  0.76162  0.17236  1.0000
  H   H1073     1.0  0.40907  0.86146  0.44955  1.0000
  H   H1074     1.0  0.41613  0.94888  0.15006  1.0000
  H   H1075     1.0  0.40095  0.94552  0.16948  1.0000
  H   H1076     1.0  0.37768  0.77072  0.17781  1.0000
  C   C662      1.0  0.38755  0.80686  0.33290  1.0000
  H   H1077     1.0  0.35540  0.75055  0.20715  1.0000
  C   C663      1.0  0.40956  0.94353  0.17052  1.0000
  H   H1078     1.0  0.45775  0.87316  0.07634  1.0000
  H   H1079     1.0  0.43242  0.74834  0.29234  1.0000
  H   H1080     1.0  0.40392  0.97136  0.43881  1.0000
  Fe  Fe125     1.0  0.44155  0.73828  0.39097  1.0000
  Fe  Fe126     1.0  0.43758  0.73133  0.45713  1.0000
  Fe  Fe127     1.0  0.45984  0.72943  0.41914  1.0000
  S   S254      1.0  0.47356  0.71954  0.40532  1.0000
  S   S255      1.0  0.44067  0.72138  0.42287  1.0000
  H   H1081     1.0  0.42424  0.75049  0.21623  1.0000
  S   S256      1.0  0.42833  0.73260  0.18801  1.0000
  S   S257      1.0  0.41365  0.70508  0.19634  1.0000
  Fe  Fe128     1.0  0.41732  0.71725  0.22512  1.0000
  S   S258      1.0  0.42225  0.71031  0.26686  1.0000
  Fe  Fe129     1.0  0.42316  0.72103  0.15924  1.0000
  S   S259      1.0  0.43686  0.72088  0.11995  1.0000
  S   S260      1.0  0.43650  0.74734  0.42566  1.0000
  C   C664      1.0  0.43740  0.72138  0.03664  1.0000
  H   H1082     1.0  0.38259  0.67556  0.01590  1.0000
  C   C665      1.0  0.39674  0.69281  0.05226  1.0000
  C   C666      1.0  0.43120  0.73361  0.32773  1.0000
  C   C667      1.0  0.42858  0.72126  0.33715  1.0000
  C   C668      1.0  0.42583  0.71424  0.31831  1.0000
  C   C669      1.0  0.42534  0.71945  0.29017  1.0000
  C   C670      1.0  0.42762  0.73178  0.28105  1.0000
  C   C671      1.0  0.43057  0.73881  0.29973  1.0000
  H   H1083     1.0  0.42857  0.71712  0.35902  1.0000
  H   H1084     1.0  0.42391  0.70470  0.32565  1.0000
  H   H1085     1.0  0.42724  0.73590  0.25949  1.0000
  C   C672      1.0  0.43227  0.72019  0.08820  1.0000
  H   H1086     1.0  0.46413  0.70334  0.32848  1.0000
  H   H1087     1.0  0.45003  0.72379  0.06219  1.0000
  H   H1088     1.0  0.40772  0.71601  0.06264  1.0000
  C   C673      1.0  0.41248  0.96933  0.44032  1.0000
  C   C674      1.0  0.47633  0.68302  0.45299  1.0000
  C   C675      1.0  0.48192  0.68786  0.42358  1.0000
  C   C676      1.0  0.48087  0.69898  0.40923  1.0000
  C   C677      1.0  0.47401  0.70525  0.42390  1.0000
  C   C678      1.0  0.46815  0.70024  0.45308  1.0000
  C   C679      1.0  0.46943  0.68927  0.46759  1.0000
  H   H1089     1.0  0.48735  0.68323  0.41213  1.0000
  H   H1090     1.0  0.48554  0.70281  0.38675  1.0000
  H   H1091     1.0  0.46292  0.70498  0.46470  1.0000
  H   H1092     1.0  0.44399  0.72245  0.01703  1.0000
  Fe  Fe130     1.0  0.45575  0.75416  0.42178  1.0000
  H   H1093     1.0  0.44714  0.70972  0.35450  1.0000
  S   S261      1.0  0.43556  0.74294  0.34970  1.0000
  S   S262      1.0  0.45669  0.73852  0.45545  1.0000
  H   H1094     1.0  0.45111  0.87638  0.00465  1.0000
  S   S263      1.0  0.40691  0.72710  0.15532  1.0000
  H   H1095     1.0  0.40562  0.69469  0.05657  1.0000
  H   H1096     1.0  0.41369  0.71646  0.10813  1.0000
  C   C680      1.0  0.44079  0.72196  0.06231  1.0000
  C   C681      1.0  0.44751  0.75670  0.00964  1.0000
  S   S264      1.0  0.34326  0.80186  0.21006  1.0000
  C   C682      1.0  0.42548  0.71922  0.03662  1.0000
  Fe  Fe131     1.0  0.41119  0.73735  0.18708  1.0000
  H   H1097     1.0  0.47387  0.71064  0.34667  1.0000
  C   C683      1.0  0.42033  0.71796  0.08823  1.0000
  C   C684      1.0  0.47179  0.73256  0.32675  1.0000
  C   C685      1.0  0.45389  0.71775  0.35403  1.0000
  H   H1098     1.0  0.44944  0.72496  0.35587  1.0000
  H   H1099     1.0  0.46582  0.72556  0.28139  1.0000
  H   H1100     1.0  0.45387  0.72995  0.30132  1.0000
  C   C686      1.0  0.41696  0.71756  0.06246  1.0000
  H   H1101     1.0  0.45712  0.71565  0.37376  1.0000
  H   H1102     1.0  0.44709  0.86834  0.05745  1.0000
  C   C687      1.0  0.45875  0.72294  0.30189  1.0000
  H   H1103     1.0  0.47936  0.73545  0.30723  1.0000
  N   N70       1.0  0.46363  0.72131  0.32750  1.0000
  H   H1104     1.0  0.40895  0.87045  0.99245  1.0000
  H   H1105     1.0  0.45239  0.71468  0.30193  1.0000
  N   N71       1.0  0.46936  0.70268  0.02352  1.0000
  C   C688      1.0  0.47007  0.71199  0.32754  1.0000
  S   S265      1.0  0.46082  0.74586  0.38535  1.0000
  H   H1106     1.0  0.46721  0.73979  0.32656  1.0000
  H   H1107     1.0  0.47546  0.73169  0.34607  1.0000
  H   H1108     1.0  0.47750  0.71433  0.30781  1.0000
  C   C689      1.0  0.45410  0.87607  0.05763  1.0000
  H   H1109     1.0  0.42715  0.74366  0.00569  1.0000
  H   H1110     1.0  0.34806  0.81865  0.02009  1.0000
  C   C690      1.0  0.49490  0.88291  0.47849  1.0000
  H   H1111     1.0  0.44717  0.74710  0.01454  1.0000
  H   H1112     1.0  0.48319  0.00103  0.20209  1.0000
  C   C691      1.0  0.45342  0.80871  0.11460  1.0000
  H   H1113     1.0  0.45157  0.81487  0.16495  1.0000
  H   H1114     1.0  0.44329  0.94713  0.30078  1.0000
  H   H1115     1.0  0.42761  0.77982  0.34649  1.0000
  C   C692      1.0  0.41687  0.93214  0.32959  1.0000
  H   H1116     1.0  0.45877  0.97252  0.28665  1.0000
  C   C693      1.0  0.42128  0.95339  0.32133  1.0000
  H   H1117     1.0  0.41680  0.85489  0.42414  1.0000
  H   H1118     1.0  0.46231  0.80699  0.11222  1.0000
  H   H1119     1.0  0.45053  0.77762  0.28563  1.0000
  H   H1120     1.0  0.47278  0.98736  0.17807  1.0000
  H   H1121     1.0  0.45036  0.93940  0.00486  1.0000
  H   H1122     1.0  0.44765  0.95083  0.24756  1.0000
  Fe  Fe132     1.0  0.46820  0.85583  0.46742  1.0000
  H   H1123     1.0  0.46496  0.71895  0.00730  1.0000
  S   S266      1.0  0.47798  0.87547  0.44961  1.0000
  C   C694      1.0  0.36608  0.68695  0.17356  1.0000
  C   C695      1.0  0.33898  0.79255  0.10721  1.0000
  H   H1124     1.0  0.41349  0.95593  0.08883  1.0000
  Fe  Fe133     1.0  0.44701  0.84058  0.45385  1.0000
  S   S267      1.0  0.43463  0.84056  0.42424  1.0000
  H   H1125     1.0  0.39660  0.92866  0.14780  1.0000
  C   C696      1.0  0.46880  0.78980  0.47632  1.0000
  S   S268      1.0  0.46654  0.84268  0.43997  1.0000
  C   C697      1.0  0.40520  0.92691  0.14995  1.0000
  Fe  Fe134     1.0  0.44532  0.82995  0.20700  1.0000
  S   S269      1.0  0.42916  0.81599  0.21008  1.0000
  S   S270      1.0  0.45818  0.83964  0.16370  1.0000
  Fe  Fe135     1.0  0.44190  0.82404  0.27328  1.0000
  H   H1126     1.0  0.42740  0.79969  0.16608  1.0000
  S   S271      1.0  0.45126  0.82512  0.30883  1.0000
  Fe  Fe136     1.0  0.43498  0.80452  0.24389  1.0000
  S   S272      1.0  0.43650  0.78587  0.24865  1.0000
  S   S273      1.0  0.45475  0.97974  0.12827  1.0000
  S   S274      1.0  0.45188  0.81787  0.23777  1.0000
  S   S275      1.0  0.43678  0.83752  0.24198  1.0000
  H   H1127     1.0  0.42826  0.83812  0.10790  1.0000
  H   H1128     1.0  0.34352  0.78967  0.12325  1.0000
  S   S276      1.0  0.46041  0.77430  0.41319  1.0000
  C   C698      1.0  0.42786  0.77727  0.23178  1.0000
  C   C699      1.0  0.42929  0.76598  0.23137  1.0000
  C   C700      1.0  0.41820  0.94209  0.34079  1.0000
  S   S277      1.0  0.42242  0.94591  0.24256  1.0000
  C   C701      1.0  0.35290  0.82819  0.01374  1.0000
  H   H1129     1.0  0.47708  0.94263  0.11722  1.0000
  C   C702      1.0  0.48598  0.99314  0.19972  1.0000
  C   C703      1.0  0.46631  0.80088  0.46866  1.0000
  C   C704      1.0  0.46181  0.80349  0.44451  1.0000
  C   C705      1.0  0.46007  0.79524  0.42788  1.0000
  C   C706      1.0  0.46254  0.78417  0.43550  1.0000
  C   C707      1.0  0.46688  0.78146  0.45993  1.0000
  C   C708      1.0  0.42226  0.95595  0.46392  1.0000
  H   H1130     1.0  0.45992  0.81199  0.43821  1.0000
  H   H1131     1.0  0.45685  0.79752  0.40884  1.0000
  H   H1132     1.0  0.46914  0.77312  0.46558  1.0000
  S   S278      1.0  0.34100  0.79229  0.02352  1.0000
  C   C709      1.0  0.34361  0.79912  0.30334  1.0000
  N   N72       1.0  0.44535  0.80193  0.14295  1.0000
  C   C710      1.0  0.44124  0.83870  0.13280  1.0000
  C   C711      1.0  0.45322  0.84041  0.13194  1.0000
  C   C712      1.0  0.45698  0.96860  0.26868  1.0000
  Fe  Fe137     1.0  0.42094  0.82253  0.24728  1.0000
  C   C713      1.0  0.45292  0.94878  0.29912  1.0000
  H   H1133     1.0  0.43483  0.83708  0.15322  1.0000
  S   S279      1.0  0.42535  0.80975  0.28141  1.0000
  C   C714      1.0  0.43899  0.83596  0.39245  1.0000
  C   C715      1.0  0.43239  0.83669  0.37167  1.0000
  C   C716      1.0  0.43594  0.83330  0.34591  1.0000
  C   C717      1.0  0.44611  0.82919  0.34090  1.0000
  C   C718      1.0  0.45256  0.82832  0.36187  1.0000
  C   C719      1.0  0.44901  0.83166  0.38753  1.0000
  H   H1134     1.0  0.42462  0.84001  0.37535  1.0000
  H   H1135     1.0  0.43098  0.83407  0.32973  1.0000
  H   H1136     1.0  0.46043  0.82513  0.35817  1.0000
  H   H1137     1.0  0.45409  0.83093  0.40343  1.0000
  Fe  Fe138     1.0  0.40884  0.91964  0.48414  1.0000
  C   C720      1.0  0.49431  0.90669  0.46249  1.0000
  C   C721      1.0  0.48687  0.89789  0.45431  1.0000
  C   C722      1.0  0.48707  0.88595  0.46231  1.0000
  H   H1138     1.0  0.38143  0.69000  0.01949  1.0000
  C   C723      1.0  0.50278  0.89182  0.48540  1.0000
  H   H1139     1.0  0.44402  0.87984  0.39857  1.0000
  H   H1140     1.0  0.48096  0.90037  0.44150  1.0000
  C   C724      1.0  0.41056  0.94540  0.05835  1.0000
  C   C725      1.0  0.40346  0.94831  0.45475  1.0000
  C   C726      1.0  0.36433  0.67954  0.15507  1.0000
  H   H1141     1.0  0.45414  0.89128  0.00831  1.0000
  C   C727      1.0  0.46599  0.92044  0.45748  1.0000
  C   C728      1.0  0.48057  0.70870  0.02850  1.0000
  H   H1142     1.0  0.42152  0.85606  0.45613  1.0000
  C   C729      1.0  0.42102  0.87820  0.40058  1.0000
  H   H1143     1.0  0.40805  0.77852  0.19083  1.0000
  H   H1144     1.0  0.47051  0.91586  0.44373  1.0000
  C   C730      1.0  0.43769  0.87112  0.41012  1.0000
  C   C731      1.0  0.41999  0.78169  0.21775  1.0000
  C   C732      1.0  0.47264  0.95878  0.26961  1.0000
  H   H1145     1.0  0.44749  0.96770  0.26923  1.0000
  Fe  Fe139     1.0  0.45868  0.96876  0.16616  1.0000
  H   H1146     1.0  0.47503  0.96240  0.28751  1.0000
  H   H1147     1.0  0.45455  0.95231  0.31776  1.0000
  C   C733      1.0  0.43754  0.83930  0.10711  1.0000
  H   H1148     1.0  0.45922  0.94339  0.24841  1.0000
  C   C734      1.0  0.43661  0.77147  0.01307  1.0000
  C   C735      1.0  0.49342  0.97297  0.19253  1.0000
  C   C736      1.0  0.48378  0.97531  0.18263  1.0000
  H   H1149     1.0  0.42497  0.96349  0.27678  1.0000
  S   S280      1.0  0.42735  0.97168  0.16724  1.0000
  C   C737      1.0  0.48363  0.96232  0.05163  1.0000
  H   H1150     1.0  0.47862  0.96647  0.03740  1.0000
  H   H1151     1.0  0.46332  0.96490  0.08180  1.0000
  H   H1152     1.0  0.48823  0.94395  0.08496  1.0000
  C   C738      1.0  0.44576  0.84139  0.08049  1.0000
  C   C739      1.0  0.42291  0.95475  0.29123  1.0000
  H   H1153     1.0  0.43456  0.81425  0.14343  1.0000
  Fe  Fe140     1.0  0.43873  0.96449  0.13549  1.0000
  H   H1154     1.0  0.46266  0.95489  0.11521  1.0000
  Fe  Fe141     1.0  0.42768  0.91122  0.44898  1.0000
  C   C740      1.0  0.45036  0.80526  0.16632  1.0000
  H   H1155     1.0  0.46227  0.97512  0.24801  1.0000
  C   C741      1.0  0.44386  0.78911  0.14577  1.0000
  C   C742      1.0  0.48001  0.98535  0.18642  1.0000
  N   N73       1.0  0.45992  0.95707  0.27117  1.0000
  H   H1156     1.0  0.45504  0.94004  0.30190  1.0000
  S   S281      1.0  0.47653  0.96576  0.16532  1.0000
  H   H1157     1.0  0.43806  0.78377  0.16724  1.0000
  S   S282      1.0  0.44568  0.90831  0.44805  1.0000
  C   C743      1.0  0.35584  0.84681  0.02710  1.0000
  H   H1158     1.0  0.47075  0.84399  0.10451  1.0000
  C   C744      1.0  0.45717  0.95213  0.24721  1.0000
  H   H1159     1.0  0.47527  0.95031  0.27088  1.0000
  H   H1160     1.0  0.44993  0.80648  0.09639  1.0000
  N   N74       1.0  0.42596  0.87247  0.42342  1.0000
  H   H1161     1.0  0.39472  0.94977  0.45305  1.0000
  C   C745      1.0  0.41796  0.86071  0.43902  1.0000
  C   C746      1.0  0.40435  0.68994  0.00530  1.0000
  H   H1162     1.0  0.38999  0.82390  0.38036  1.0000
  H   H1163     1.0  0.35364  0.85144  0.04426  1.0000
  H   H1164     1.0  0.40243  0.92686  0.22075  1.0000
  C   C747      1.0  0.42309  0.75921  0.21636  1.0000
  H   H1165     1.0  0.41864  0.79029  0.21864  1.0000
  H   H1166     1.0  0.40434  0.91728  0.15238  1.0000
  H   H1167     1.0  0.41696  0.96873  0.41852  1.0000
  H   H1168     1.0  0.46880  0.89797  0.03423  1.0000
  S   S283      1.0  0.40626  0.93210  0.01904  1.0000
  Fe  Fe142     1.0  0.43329  0.96095  0.20292  1.0000
  H   H1169     1.0  0.37773  0.81217  0.38148  1.0000
  H   H1170     1.0  0.44045  0.93869  0.06280  1.0000
  H   H1171     1.0  0.43096  0.76629  0.34126  1.0000
  C   C748      1.0  0.45988  0.69929  0.05061  1.0000
  C   C749      1.0  0.46691  0.93548  0.98971  1.0000
  S   S284      1.0  0.43635  0.95371  0.10139  1.0000
  C   C750      1.0  0.42571  0.93580  0.04356  1.0000
  C   C751      1.0  0.41560  0.76379  0.20130  1.0000
  C   C752      1.0  0.42133  0.94478  0.28012  1.0000
  H   H1172     1.0  0.46119  0.93855  0.09139  1.0000
  H   H1173     1.0  0.43979  0.78619  0.12902  1.0000
  H   H1174     1.0  0.47815  0.96511  0.24894  1.0000
  C   C753      1.0  0.46146  0.84268  0.10526  1.0000
  H   H1175     1.0  0.46237  0.95810  0.22580  1.0000
  C   C754      1.0  0.43212  0.94067  0.06169  1.0000
  N   N75       1.0  0.44585  0.78155  0.32679  1.0000
  C   C755      1.0  0.45281  0.77625  0.30686  1.0000
  C   C756      1.0  0.44833  0.79443  0.31401  1.0000
  C   C757      1.0  0.44912  0.77948  0.35464  1.0000
  C   C758      1.0  0.43314  0.77601  0.33165  1.0000
  H   H1176     1.0  0.45107  0.76652  0.31586  1.0000
  H   H1177     1.0  0.46244  0.78023  0.30268  1.0000
  C   C759      1.0  0.34595  0.80133  0.35055  1.0000
  H   H1178     1.0  0.44318  0.79873  0.32837  1.0000
  H   H1179     1.0  0.45782  0.79898  0.31022  1.0000
  H   H1180     1.0  0.44605  0.79632  0.29284  1.0000
  H   H1181     1.0  0.44412  0.78340  0.37028  1.0000
  H   H1182     1.0  0.45867  0.78350  0.35183  1.0000
  H   H1183     1.0  0.44735  0.76984  0.36494  1.0000
  H   H1184     1.0  0.43041  0.77733  0.31098  1.0000
  S   S285      1.0  0.44377  0.95330  0.17153  1.0000
  H   H1185     1.0  0.45466  0.81840  0.11188  1.0000
  C   C760      1.0  0.48276  0.94887  0.09663  1.0000
  H   H1186     1.0  0.44160  0.86664  0.42666  1.0000
  N   N76       1.0  0.40876  0.93076  0.17452  1.0000
  C   C761      1.0  0.45773  0.84297  0.07967  1.0000
  H   H1187     1.0  0.40793  0.94710  0.43363  1.0000
  H   H1188     1.0  0.49008  0.96945  0.05601  1.0000
  H   H1189     1.0  0.45913  0.80339  0.16535  1.0000
  N   N77       1.0  0.47567  0.95418  0.07867  1.0000
  H   H1190     1.0  0.47466  0.96796  0.10058  1.0000
  H   H1191     1.0  0.48882  0.95750  0.03903  1.0000
  H   H1192     1.0  0.44451  0.80030  0.18805  1.0000
  S   S286      1.0  0.44884  0.97565  0.20032  1.0000
  H   H1193     1.0  0.42224  0.96116  0.32967  1.0000
  C   C762      1.0  0.46751  0.94475  0.07159  1.0000
  C   C763      1.0  0.46880  0.96080  0.09473  1.0000
  H   H1194     1.0  0.45247  0.78677  0.14374  1.0000
  H   H1195     1.0  0.46222  0.94853  0.05753  1.0000
  H   H1196     1.0  0.47240  0.93951  0.05958  1.0000
  H   H1197     1.0  0.42977  0.80243  0.12759  1.0000
  H   H1198     1.0  0.48900  0.95578  0.10236  1.0000
  C   C764      1.0  0.43376  0.80468  0.14509  1.0000
  C   C765      1.0  0.49585  0.99101  0.20890  1.0000
  S   S287      1.0  0.44077  0.84234  0.04869  1.0000
  H   H1199     1.0  0.46414  0.84444  0.05940  1.0000
  H   H1200     1.0  0.41846  0.88108  0.45443  1.0000
  S   S288      1.0  0.41582  0.94096  0.37871  1.0000
  C   C766      1.0  0.47079  0.69195  0.01407  1.0000
  H   H1201     1.0  0.43838  0.92209  0.99418  1.0000
  H   H1202     1.0  0.47764  0.69420  0.99323  1.0000
  H   H1203     1.0  0.46207  0.86254  0.02523  1.0000
  H   H1204     1.0  0.35396  0.85177  0.00743  1.0000
  Fe  Fe143     1.0  0.44403  0.98612  0.16261  1.0000
  H   H1205     1.0  0.42911  0.93013  0.03131  1.0000
  C   C767      1.0  0.49706  0.00034  0.11681  1.0000
  C   C768      1.0  0.42788  0.94803  0.07824  1.0000
  H   H1206     1.0  0.47672  0.88799  0.04923  1.0000
  S   S289      1.0  0.42462  0.92914  0.44719  1.0000
  H   H1207     1.0  0.41443  0.92339  0.34417  1.0000
  C   C769      1.0  0.41698  0.95031  0.07644  1.0000
  C   C770      1.0  0.45370  0.91836  0.46325  1.0000
  H   H1208     1.0  0.39534  0.70145  0.04186  1.0000
  C   C771      1.0  0.39830  0.67342  0.04769  1.0000
  N   N78       1.0  0.46340  0.88018  0.03011  1.0000
  H   H1209     1.0  0.43713  0.86561  0.39435  1.0000
  S   S290      1.0  0.34116  0.77553  0.25220  1.0000
  H   H1210     1.0  0.42329  0.87713  0.99645  1.0000
  H   H1211     1.0  0.42331  0.93139  0.19420  1.0000
  H   H1212     1.0  0.48321  0.70285  0.04555  1.0000
  C   C772      1.0  0.41831  0.93349  0.29953  1.0000
  H   H1213     1.0  0.42015  0.91908  0.17861  1.0000
  C   C773      1.0  0.41487  0.93816  0.04151  1.0000
  S   S291      1.0  0.50067  0.93950  0.02223  1.0000
  H   H1214     1.0  0.38670  0.67923  0.21887  1.0000
  H   H1215     1.0  0.41356  0.69219  0.00759  1.0000
  N   N79       1.0  0.43566  0.75862  0.01883  1.0000
  S   S292      1.0  0.41784  0.90770  0.41584  1.0000
  C   C774      1.0  0.39994  0.92405  0.20189  1.0000
  C   C775      1.0  0.45463  0.93336  0.99574  1.0000
  S   S293      1.0  0.47515  0.94839  0.99546  1.0000
  H   H1216     1.0  0.42727  0.93366  0.15553  1.0000
  H   H1217     1.0  0.43308  0.88884  0.43286  1.0000
  H   H1218     1.0  0.36030  0.82903  0.06231  1.0000
  H   H1219     1.0  0.48195  0.93031  0.46406  1.0000
  Fe  Fe144     1.0  0.41332  0.92499  0.41702  1.0000
  C   C776      1.0  0.41395  0.77500  0.20220  1.0000
  C   C777      1.0  0.47255  0.89037  0.03122  1.0000
  H   H1220     1.0  0.39915  0.91437  0.20580  1.0000
  H   H1221     1.0  0.47565  0.87301  0.00484  1.0000
  H   H1222     1.0  0.43530  0.76248  0.24243  1.0000
  S   S294      1.0  0.34312  0.77856  0.18257  1.0000
  H   H1223     1.0  0.49386  0.91578  0.45647  1.0000
  H   H1224     1.0  0.41215  0.87933  0.40988  1.0000
  S   S295      1.0  0.41112  0.90299  0.99426  1.0000
  H   H1225     1.0  0.40274  0.69837  0.99424  1.0000
  H   H1226     1.0  0.45874  0.70712  0.05881  1.0000
  H   H1227     1.0  0.47971  0.89361  0.01083  1.0000
  H   H1228     1.0  0.49263  0.99068  0.12445  1.0000
  C   C778      1.0  0.34216  0.79069  0.07950  1.0000
  H   H1229     1.0  0.47347  0.68573  0.03021  1.0000
  S   S296      1.0  0.42101  0.71850  0.00468  1.0000
  H   H1230     1.0  0.42725  0.95536  0.44264  1.0000
  H   H1231     1.0  0.39303  0.68196  0.12322  1.0000
  Fe  Fe145     1.0  0.34439  0.80761  0.41453  1.0000
  S   S297      1.0  0.34432  0.84501  0.45141  1.0000
  H   H1232     1.0  0.46182  0.69294  0.06802  1.0000
  Fe  Fe146     1.0  0.46343  0.82852  0.48131  1.0000
  H   H1233     1.0  0.48790  0.71131  0.00842  1.0000
  H   H1234     1.0  0.42481  0.75966  0.46936  1.0000
  S   S298      1.0  0.44870  0.85441  0.47867  1.0000
  H   H1235     1.0  0.40736  0.67510  0.05100  1.0000
  C   C779      1.0  0.44793  0.92429  0.48116  1.0000
  H   H1236     1.0  0.42783  0.96301  0.47070  1.0000
  H   H1237     1.0  0.44605  0.88636  0.48783  1.0000
  C   C780      1.0  0.50261  0.90378  0.47726  1.0000
  H   H1238     1.0  0.42116  0.94744  0.47987  1.0000
  H   H1239     1.0  0.35549  0.67538  0.15472  1.0000
  H   H1240     1.0  0.45793  0.70651  0.99603  1.0000
  Fe  Fe147     1.0  0.33909  0.82574  0.44765  1.0000
  H   H1241     1.0  0.43884  0.77811  0.46940  1.0000
  H   H1242     1.0  0.49528  0.87378  0.48452  1.0000
  H   H1243     1.0  0.49390  0.00402  0.09785  1.0000
  C   C781      1.0  0.46679  0.93506  0.48557  1.0000
  H   H1244     1.0  0.38741  0.67549  0.25574  1.0000
  Fe  Fe148     1.0  0.33787  0.80084  0.48030  1.0000
  S   S299      1.0  0.41244  0.90167  0.48705  1.0000
  H   H1245     1.0  0.45752  0.87874  0.48413  1.0000
  H   H1246     1.0  0.49392  0.00445  0.13443  1.0000
  H   H1247     1.0  0.41496  0.85196  0.98886  1.0000
  H   H1248     1.0  0.44013  0.77592  0.98957  1.0000
  H   H1249     1.0  0.39712  0.77073  0.68948  1.0000
  H   H1250     1.0  0.45771  0.90394  0.51785  1.0000
  C   C782      1.0  0.38830  0.77207  0.69811  1.0000
  H   H1251     1.0  0.47244  0.78775  0.49473  1.0000
  H   H1252     1.0  0.37907  0.67674  0.74460  1.0000
  H   H1253     1.0  0.36792  0.84202  0.50938  1.0000
  H   H1254     1.0  0.37770  0.74922  0.72447  1.0000
  C   C783      1.0  0.42399  0.85757  0.97718  1.0000
  H   H1255     1.0  0.41517  0.98954  0.71473  1.0000
  S   S300      1.0  0.34196  0.77834  0.74592  1.0000
  H   H1256     1.0  0.49724  0.98529  0.58763  1.0000
  H   H1257     1.0  0.41457  0.68526  0.59270  1.0000
  H   H1258     1.0  0.38037  0.74961  0.75929  1.0000
  H   H1259     1.0  0.42154  0.76241  0.54494  1.0000
  H   H1260     1.0  0.38223  0.76821  0.68599  1.0000
  N   N80       1.0  0.39991  0.68939  0.57723  1.0000
  H   H1261     1.0  0.43986  0.74745  0.50116  1.0000
  H   H1262     1.0  0.39849  0.69082  0.62089  1.0000
  H   H1263     1.0  0.40291  0.70531  0.54368  1.0000
  S   S301      1.0  0.47478  0.94612  0.49826  1.0000
  C   C784      1.0  0.37575  0.68724  0.68732  1.0000
  C   C785      1.0  0.42832  0.98036  0.76766  1.0000
  H   H1264     1.0  0.49609  0.67663  0.50506  1.0000
  S   S302      1.0  0.50281  0.00466  0.71061  1.0000
  C   C786      1.0  0.45134  0.89541  0.53090  1.0000
  S   S303      1.0  0.37814  0.69796  0.70696  1.0000
  H   H1265     1.0  0.43316  0.98446  0.78180  1.0000
  C   C787      1.0  0.43626  0.77534  0.49349  1.0000
  S   S304      1.0  0.40502  0.72295  0.65821  1.0000
  H   H1266     1.0  0.45098  0.89489  0.55407  1.0000
  Fe  Fe149     1.0  0.39677  0.70893  0.69980  1.0000
  H   H1267     1.0  0.49968  0.87714  0.97882  1.0000
  C   C788      1.0  0.38357  0.75397  0.73572  1.0000
  H   H1268     1.0  0.34140  0.78888  0.62121  1.0000
  H   H1269     1.0  0.38921  0.78177  0.69277  1.0000
  H   H1270     1.0  0.38626  0.69344  0.60681  1.0000
  H   H1271     1.0  0.38830  0.69566  0.55301  1.0000
  C   C789      1.0  0.34279  0.80065  0.85336  1.0000
  H   H1272     1.0  0.39249  0.75263  0.72817  1.0000
  H   H1273     1.0  0.43428  0.97612  0.75515  1.0000
  S   S305      1.0  0.40089  0.72111  0.72813  1.0000
  H   H1274     1.0  0.41797  0.69939  0.56743  1.0000
  H   H1275     1.0  0.38766  0.82253  0.82175  1.0000
  H   H1276     1.0  0.39585  0.80554  0.67540  1.0000
  H   H1277     1.0  0.39227  0.78238  0.74036  1.0000
  H   H1278     1.0  0.36838  0.84330  0.95192  1.0000
  S   S306      1.0  0.39227  0.88076  0.96117  1.0000
  C   C790      1.0  0.34680  0.82408  0.56827  1.0000
  H   H1279     1.0  0.41338  0.00111  0.75174  1.0000
  H   H1280     1.0  0.46975  0.87772  0.51894  1.0000
  S   S307      1.0  0.35079  0.81557  0.94838  1.0000
  H   H1281     1.0  0.46491  0.88678  0.98470  1.0000
  C   C791      1.0  0.45488  0.88622  0.49157  1.0000
  S   S308      1.0  0.35077  0.80297  0.87929  1.0000
  H   H1282     1.0  0.40307  0.95095  0.50823  1.0000
  H   H1283     1.0  0.34905  0.78629  0.57260  1.0000
  Fe  Fe150     1.0  0.35181  0.78896  0.70071  1.0000
  S   S309      1.0  0.46709  0.84189  0.50756  1.0000
  S   S310      1.0  0.37151  0.79374  0.68419  1.0000
  C   C792      1.0  0.42911  0.75896  0.53632  1.0000
  Fe  Fe151     1.0  0.33831  0.82723  0.94911  1.0000
  C   C793      1.0  0.41445  0.94334  0.58596  1.0000
  H   H1284     1.0  0.37913  0.84425  0.76972  1.0000
  H   H1285     1.0  0.43131  0.75749  0.97872  1.0000
  H   H1286     1.0  0.42906  0.77945  0.50092  1.0000
  H   H1287     1.0  0.37346  0.81727  0.84743  1.0000
  C   C794      1.0  0.44244  0.75730  0.49407  1.0000
  S   S311      1.0  0.39965  0.91879  0.94969  1.0000
  H   H1288     1.0  0.36804  0.76366  0.76323  1.0000
  H   H1289     1.0  0.39589  0.67246  0.56742  1.0000
  N   N81       1.0  0.37464  0.83148  0.81095  1.0000
  H   H1290     1.0  0.35903  0.83637  0.80300  1.0000
  H   H1291     1.0  0.37242  0.83732  0.85001  1.0000
  H   H1292     1.0  0.37505  0.84881  0.81753  1.0000
  H   H1293     1.0  0.35152  0.87180  0.94744  1.0000
  H   H1294     1.0  0.40015  0.70442  0.59521  1.0000
  H   H1295     1.0  0.42666  0.78086  0.82958  1.0000
  C   C795      1.0  0.34808  0.79749  0.82868  1.0000
  H   H1296     1.0  0.42644  0.74916  0.54511  1.0000
  H   H1297     1.0  0.35680  0.79603  0.82632  1.0000
  C   C796      1.0  0.49775  0.90979  0.95834  1.0000
  H   H1298     1.0  0.39290  0.68386  0.68347  1.0000
  C   C797      1.0  0.50103  0.98522  0.60662  1.0000
  C   C798      1.0  0.34899  0.82386  0.51818  1.0000
  C   C799      1.0  0.39110  0.81117  0.74179  1.0000
  C   C800      1.0  0.37879  0.80676  0.75068  1.0000
  C   C801      1.0  0.37265  0.80182  0.73256  1.0000
  C   C802      1.0  0.37882  0.80117  0.70562  1.0000
  C   C803      1.0  0.39107  0.80582  0.69645  1.0000
  H   H1299     1.0  0.37397  0.80693  0.77174  1.0000
  H   H1300     1.0  0.36318  0.79833  0.73968  1.0000
  C   C804      1.0  0.37923  0.87183  0.95567  1.0000
  C   C805      1.0  0.36936  0.87604  0.95232  1.0000
  C   C806      1.0  0.35911  0.86842  0.94947  1.0000
  C   C807      1.0  0.35853  0.85649  0.94950  1.0000
  C   C808      1.0  0.36850  0.85236  0.95218  1.0000
  Fe  Fe152     1.0  0.44759  0.83992  0.51697  1.0000
  H   H1301     1.0  0.36953  0.88513  0.95234  1.0000
  H   H1302     1.0  0.43573  0.88521  0.93202  1.0000
  H   H1303     1.0  0.38698  0.84293  0.82601  1.0000
  C   C809      1.0  0.36185  0.82851  0.81280  1.0000
  S   S312      1.0  0.41974  0.90587  0.92422  1.0000
  H   H1304     1.0  0.35653  0.82508  0.83568  1.0000
  H   H1305     1.0  0.37558  0.81351  0.81346  1.0000
  C   C810      1.0  0.38131  0.83609  0.78026  1.0000
  H   H1306     1.0  0.37935  0.82945  0.76773  1.0000
  H   H1307     1.0  0.38873  0.76897  0.76860  1.0000
  H   H1308     1.0  0.39102  0.83821  0.77795  1.0000
  N   N82       1.0  0.35136  0.83135  0.53803  1.0000
  C   C811      1.0  0.39717  0.81091  0.71438  1.0000
  C   C812      1.0  0.41264  0.69007  0.57285  1.0000
  S   S313      1.0  0.50066  0.93695  0.52166  1.0000
  H   H1309     1.0  0.35941  0.82158  0.80137  1.0000
  C   C813      1.0  0.39317  0.67685  0.58472  1.0000
  H   H1310     1.0  0.49364  0.98133  0.62646  1.0000
  C   C814      1.0  0.37741  0.84056  0.82680  1.0000
  C   C815      1.0  0.37798  0.82075  0.82400  1.0000
  Fe  Fe153     1.0  0.34128  0.80762  0.91872  1.0000
  N   N83       1.0  0.38387  0.76669  0.72960  1.0000
  H   H1311     1.0  0.37181  0.77748  0.73660  1.0000
  C   C816      1.0  0.37865  0.85990  0.95559  1.0000
  H   H1312     1.0  0.43228  0.00522  0.71416  1.0000
  C   C817      1.0  0.37183  0.76801  0.73977  1.0000
  S   S314      1.0  0.39877  0.81684  0.76522  1.0000
  H   H1313     1.0  0.41924  0.74775  0.50156  1.0000
  H   H1314     1.0  0.40550  0.93292  0.85030  1.0000
  H   H1315     1.0  0.40094  0.77187  0.73771  1.0000
  C   C818      1.0  0.39179  0.77272  0.74477  1.0000
  H   H1316     1.0  0.39846  0.93369  0.57829  1.0000
  Fe  Fe154     1.0  0.40234  0.90010  0.95824  1.0000
  H   H1317     1.0  0.36573  0.76413  0.72774  1.0000
  C   C819      1.0  0.46535  0.74867  0.73744  1.0000
  C   C820      1.0  0.34220  0.79641  0.80677  1.0000
  Fe  Fe155     1.0  0.49461  0.95013  0.98773  1.0000
  Fe  Fe156     1.0  0.43854  0.73548  0.89630  1.0000
  S   S315      1.0  0.42949  0.73892  0.85977  1.0000
  Fe  Fe157     1.0  0.43487  0.72763  0.96260  1.0000
  C   C821      1.0  0.47222  0.79283  0.96122  1.0000
  Fe  Fe158     1.0  0.45813  0.72957  0.92298  1.0000
  S   S316      1.0  0.47371  0.72129  0.91810  1.0000
  S   S317      1.0  0.43977  0.71903  0.92659  1.0000
  S   S318      1.0  0.42793  0.72974  0.68516  1.0000
  Fe  Fe159     1.0  0.41777  0.71544  0.72527  1.0000
  S   S319      1.0  0.42620  0.71092  0.76254  1.0000
  Fe  Fe160     1.0  0.42149  0.71707  0.66011  1.0000
  S   S320      1.0  0.43402  0.71524  0.62076  1.0000
  H   H1318     1.0  0.46925  0.74834  0.71500  1.0000
  C   C822      1.0  0.42799  0.73040  0.83436  1.0000
  C   C823      1.0  0.43374  0.72141  0.83243  1.0000
  C   C824      1.0  0.43291  0.71538  0.81065  1.0000
  C   C825      1.0  0.42634  0.71826  0.79063  1.0000
  C   C826      1.0  0.42052  0.72719  0.79272  1.0000
  C   C827      1.0  0.42132  0.73320  0.81454  1.0000
  H   H1319     1.0  0.43892  0.71918  0.84751  1.0000
  H   H1320     1.0  0.43745  0.70849  0.80919  1.0000
  H   H1321     1.0  0.41540  0.72947  0.77753  1.0000
  C   C828      1.0  0.43136  0.71920  0.58630  1.0000
  H   H1322     1.0  0.41462  0.72271  0.60153  1.0000
  H   H1323     1.0  0.41325  0.74405  0.73198  1.0000
  C   C829      1.0  0.47055  0.68153  0.95229  1.0000
  C   C830      1.0  0.48141  0.68929  0.93626  1.0000
  C   C831      1.0  0.48219  0.70138  0.92506  1.0000
  C   C832      1.0  0.47212  0.70580  0.92942  1.0000
  C   C833      1.0  0.46120  0.69793  0.94448  1.0000
  C   C834      1.0  0.46045  0.68590  0.95597  1.0000
  H   H1324     1.0  0.48929  0.68610  0.93358  1.0000
  H   H1325     1.0  0.49069  0.70740  0.91347  1.0000
  H   H1326     1.0  0.45338  0.70117  0.94793  1.0000
  H   H1327     1.0  0.47159  0.75566  0.74290  1.0000
  C   C835      1.0  0.44569  0.74161  0.73246  1.0000
  Fe  Fe161     1.0  0.45052  0.75243  0.92826  1.0000
  C   C836      1.0  0.41856  0.72437  0.55569  1.0000
  H   H1328     1.0  0.46484  0.74002  0.75220  1.0000
  S   S321      1.0  0.45323  0.73747  0.96061  1.0000
  H   H1329     1.0  0.44585  0.76446  0.72177  1.0000
  Fe  Fe162     1.0  0.41075  0.73448  0.68620  1.0000
  C   C837      1.0  0.43575  0.87637  0.94496  1.0000
  Fe  Fe163     1.0  0.40984  0.92192  0.98367  1.0000
  H   H1330     1.0  0.44880  0.74159  0.70941  1.0000
  H   H1331     1.0  0.44516  0.73268  0.74580  1.0000
  C   C838      1.0  0.36232  0.67503  0.66718  1.0000
  C   C839      1.0  0.44865  0.75112  0.77050  1.0000
  C   C840      1.0  0.45463  0.76262  0.72074  1.0000
  N   N84       1.0  0.45358  0.75101  0.74028  1.0000
  H   H1332     1.0  0.44764  0.71638  0.56421  1.0000
  H   H1333     1.0  0.43983  0.75300  0.77343  1.0000
  S   S322      1.0  0.44878  0.82959  0.98097  1.0000
  H   H1334     1.0  0.46265  0.00505  0.68954  1.0000
  C   C841      1.0  0.43726  0.72105  0.53438  1.0000
  H   H1335     1.0  0.44352  0.72040  0.51579  1.0000
  H   H1336     1.0  0.43652  0.74267  0.73583  1.0000
  H   H1337     1.0  0.44756  0.74242  0.78576  1.0000
  H   H1338     1.0  0.45858  0.76297  0.69782  1.0000
  C   C842      1.0  0.42097  0.72227  0.58298  1.0000
  H   H1339     1.0  0.46017  0.76999  0.72664  1.0000
  H   H1340     1.0  0.45443  0.75800  0.77730  1.0000
  H   H1341     1.0  0.35902  0.68056  0.74701  1.0000
  S   S323      1.0  0.45726  0.74559  0.89009  1.0000
  S   S324      1.0  0.41286  0.70208  0.70009  1.0000
  C   C843      1.0  0.43956  0.71874  0.56183  1.0000
  H   H1342     1.0  0.41681  0.74010  0.81600  1.0000
  C   C844      1.0  0.42664  0.72364  0.53140  1.0000
  H   H1343     1.0  0.36898  0.82936  0.53497  1.0000
  H   H1344     1.0  0.41034  0.72643  0.55350  1.0000
  C   C845      1.0  0.34542  0.84103  0.53362  1.0000
  H   H1345     1.0  0.44402  0.77924  0.50089  1.0000
  S   S325      1.0  0.43173  0.74289  0.93306  1.0000
  C   C846      1.0  0.41650  0.99448  0.76576  1.0000
  H   H1346     1.0  0.43991  0.00327  0.74229  1.0000
  H   H1347     1.0  0.42194  0.77804  0.67123  1.0000
  C   C847      1.0  0.41660  0.86759  0.93929  1.0000
  H   H1348     1.0  0.41760  0.88426  0.96841  1.0000
  H   H1349     1.0  0.47224  0.98705  0.66845  1.0000
  H   H1350     1.0  0.42070  0.97305  0.78180  1.0000
  C   C848      1.0  0.41688  0.75351  0.72630  1.0000
  H   H1351     1.0  0.45744  0.79260  0.58203  1.0000
  H   H1352     1.0  0.45507  0.96274  0.88940  1.0000
  H   H1353     1.0  0.46551  0.95326  0.92340  1.0000
  H   H1354     1.0  0.49168  0.96375  0.70374  1.0000
  H   H1355     1.0  0.47008  0.95309  0.84588  1.0000
  C   C849      1.0  0.43484  0.99853  0.72949  1.0000
  H   H1356     1.0  0.47327  0.71366  0.98018  1.0000
  H   H1357     1.0  0.45310  0.82283  0.56288  1.0000
  H   H1358     1.0  0.38614  0.85644  0.95811  1.0000
  H   H1359     1.0  0.44021  0.87183  0.92994  1.0000
  H   H1360     1.0  0.46637  0.84189  0.61367  1.0000
  Fe  Fe164     1.0  0.47398  0.85924  0.95775  1.0000
  H   H1361     1.0  0.46986  0.91202  0.96161  1.0000
  S   S326      1.0  0.48384  0.87886  0.94019  1.0000
  C   C850      1.0  0.44630  0.87404  0.54033  1.0000
  H   H1362     1.0  0.44657  0.79139  0.56169  1.0000
  H   H1363     1.0  0.44290  0.79931  0.63232  1.0000
  Fe  Fe165     1.0  0.45247  0.84513  0.94283  1.0000
  S   S327      1.0  0.44108  0.84727  0.91137  1.0000
  C   C851      1.0  0.41125  0.94148  0.80431  1.0000
  H   H1364     1.0  0.48371  0.95431  0.61331  1.0000
  S   S328      1.0  0.47188  0.84685  0.92868  1.0000
  H   H1365     1.0  0.45285  0.81280  0.54033  1.0000
  Fe  Fe166     1.0  0.44186  0.82194  0.71696  1.0000
  H   H1366     1.0  0.44596  0.93003  0.90151  1.0000
  S   S329      1.0  0.45445  0.83199  0.67358  1.0000
  Fe  Fe167     1.0  0.43890  0.81709  0.78276  1.0000
  H   H1367     1.0  0.43954  0.95565  0.76704  1.0000
  S   S330      1.0  0.44825  0.81766  0.81860  1.0000
  Fe  Fe168     1.0  0.43162  0.79689  0.75578  1.0000
  C   C852      1.0  0.45299  0.84080  0.58991  1.0000
  H   H1368     1.0  0.34692  0.84682  0.54839  1.0000
  S   S331      1.0  0.44864  0.81025  0.74822  1.0000
  S   S332      1.0  0.43363  0.83021  0.75080  1.0000
  N   N85       1.0  0.45970  0.94621  0.88991  1.0000
  S   S333      1.0  0.45060  0.77178  0.92621  1.0000
  H   H1369     1.0  0.45742  0.77942  0.86042  1.0000
  H   H1370     1.0  0.43125  0.77438  0.88997  1.0000
  C   C853      1.0  0.42573  0.77116  0.73934  1.0000
  H   H1371     1.0  0.42104  0.99905  0.77972  1.0000
  H   H1372     1.0  0.45773  0.79168  0.83138  1.0000
  H   H1373     1.0  0.45006  0.93740  0.50557  1.0000
  C   C854      1.0  0.34128  0.78959  0.57689  1.0000
  C   C855      1.0  0.42620  0.77804  0.71207  1.0000
  Fe  Fe169     1.0  0.43733  0.96301  0.63537  1.0000
  C   C856      1.0  0.48485  0.99449  0.68989  1.0000
  H   H1374     1.0  0.41603  0.87623  0.92652  1.0000
  H   H1375     1.0  0.44219  0.78551  0.60044  1.0000
  C   C857      1.0  0.46824  0.80321  0.95768  1.0000
  C   C858      1.0  0.45898  0.80376  0.94440  1.0000
  C   C859      1.0  0.45386  0.79412  0.93460  1.0000
  C   C860      1.0  0.45783  0.78374  0.93813  1.0000
  C   C861      1.0  0.46704  0.78312  0.95157  1.0000
  C   C862      1.0  0.46558  0.91788  0.97145  1.0000
  H   H1376     1.0  0.45583  0.81167  0.94148  1.0000
  H   H1377     1.0  0.44675  0.79473  0.92424  1.0000
  H   H1378     1.0  0.40992  0.94481  0.60591  1.0000
  H   H1379     1.0  0.34873  0.84674  0.51106  1.0000
  H   H1380     1.0  0.44177  0.94911  0.54143  1.0000
  C   C863      1.0  0.43691  0.83119  0.64438  1.0000
  C   C864      1.0  0.44900  0.83440  0.64252  1.0000
  S   S334      1.0  0.42710  0.92867  0.95018  1.0000
  H   H1381     1.0  0.43719  0.87374  0.53799  1.0000
  H   H1382     1.0  0.46261  0.94953  0.55350  1.0000
  H   H1383     1.0  0.43065  0.82751  0.66531  1.0000
  C   C865      1.0  0.47114  0.95182  0.86835  1.0000
  C   C866      1.0  0.44504  0.77120  0.82516  1.0000
  C   C867      1.0  0.44185  0.83793  0.88773  1.0000
  C   C868      1.0  0.43563  0.83871  0.86621  1.0000
  C   C869      1.0  0.43713  0.83219  0.84536  1.0000
  C   C870      1.0  0.44488  0.82487  0.84604  1.0000
  C   C871      1.0  0.45081  0.82385  0.86807  1.0000
  C   C872      1.0  0.44929  0.83034  0.88885  1.0000
  H   H1384     1.0  0.42982  0.84454  0.86528  1.0000
  H   H1385     1.0  0.43254  0.83302  0.82842  1.0000
  H   H1386     1.0  0.45680  0.81820  0.86875  1.0000
  H   H1387     1.0  0.45409  0.82963  0.90539  1.0000
  H   H1388     1.0  0.44251  0.89592  0.52754  1.0000
  C   C873      1.0  0.36422  0.83643  0.53199  1.0000
  C   C874      1.0  0.41709  0.76042  0.69931  1.0000
  C   C875      1.0  0.49166  0.88922  0.95563  1.0000
  C   C876      1.0  0.49108  0.90107  0.94827  1.0000
  H   H1389     1.0  0.35077  0.81643  0.57212  1.0000
  S   S335      1.0  0.42555  0.80779  0.72151  1.0000
  H   H1390     1.0  0.44102  0.99483  0.71599  1.0000
  H   H1391     1.0  0.48551  0.90355  0.93444  1.0000
  C   C877      1.0  0.39780  0.69585  0.55033  1.0000
  C   C878      1.0  0.49899  0.88617  0.97332  1.0000
  H   H1392     1.0  0.36634  0.84215  0.54658  1.0000
  H   H1393     1.0  0.44011  0.79228  0.81337  1.0000
  H   H1394     1.0  0.45808  0.80660  0.61358  1.0000
  C   C879      1.0  0.40455  0.95924  0.49104  1.0000
  C   C880      1.0  0.41806  0.98320  0.73013  1.0000
  H   H1395     1.0  0.45018  0.76045  0.50240  1.0000
  H   H1396     1.0  0.34873  0.82933  0.58392  1.0000
  C   C881      1.0  0.49579  0.98139  0.70975  1.0000
  N   N86       1.0  0.42444  0.98915  0.74826  1.0000
  H   H1397     1.0  0.44279  0.94986  0.90224  1.0000
  S   S336      1.0  0.47427  0.96323  0.67089  1.0000
  S   S337      1.0  0.42281  0.72531  0.49816  1.0000
  Fe  Fe170     1.0  0.43143  0.96126  0.70179  1.0000
  C   C882      1.0  0.45701  0.83933  0.61522  1.0000
  C   C883      1.0  0.45460  0.93452  0.88561  1.0000
  S   S338      1.0  0.42696  0.97228  0.66363  1.0000
  S   S339      1.0  0.34171  0.79078  0.52021  1.0000
  C   C884      1.0  0.48974  0.97231  0.69988  1.0000
  C   C885      1.0  0.48121  0.97431  0.68504  1.0000
  H   H1398     1.0  0.35795  0.68834  0.68824  1.0000
  H   H1399     1.0  0.46819  0.94728  0.62634  1.0000
  N   N87       1.0  0.44145  0.77796  0.84607  1.0000
  C   C886      1.0  0.43401  0.76963  0.87345  1.0000
  N   N88       1.0  0.45481  0.88520  0.52225  1.0000
  C   C887      1.0  0.36468  0.68391  0.68170  1.0000
  C   C888      1.0  0.43470  0.78591  0.83410  1.0000
  C   C889      1.0  0.39602  0.69475  0.60103  1.0000
  Fe  Fe171     1.0  0.46836  0.83189  0.96859  1.0000
  H   H1400     1.0  0.42592  0.76411  0.87017  1.0000
  S   S340      1.0  0.43140  0.77762  0.76432  1.0000
  S   S341      1.0  0.34208  0.80317  0.69920  1.0000
  H   H1401     1.0  0.47030  0.77528  0.95417  1.0000
  H   H1402     1.0  0.47858  0.87743  0.78834  1.0000
  H   H1403     1.0  0.46585  0.85264  0.87128  1.0000
  S   S342      1.0  0.42692  0.93730  0.87204  1.0000
  H   H1404     1.0  0.47336  0.89351  0.51303  1.0000
  C   C890      1.0  0.44876  0.80637  0.61331  1.0000
  H   H1405     1.0  0.41593  0.68624  0.55484  1.0000
  H   H1406     1.0  0.38351  0.67599  0.58809  1.0000
  H   H1407     1.0  0.45013  0.76506  0.83355  1.0000
  C   C891      1.0  0.45333  0.91613  0.97630  1.0000
  H   H1408     1.0  0.43190  0.80359  0.56560  1.0000
  C   C892      1.0  0.42105  0.75890  0.74643  1.0000
  S   S343      1.0  0.47505  0.81527  0.96997  1.0000
  H   H1409     1.0  0.42376  0.97892  0.71713  1.0000
  C   C893      1.0  0.46674  0.88514  0.52603  1.0000
  S   S344      1.0  0.40474  0.92711  0.52437  1.0000
  H   H1410     1.0  0.49046  0.67600  0.54251  1.0000
  H   H1411     1.0  0.44126  0.87803  0.96023  1.0000
  C   C894      1.0  0.43397  0.80465  0.58628  1.0000
  H   H1412     1.0  0.35391  0.67285  0.66217  1.0000
  C   C895      1.0  0.47739  0.94010  0.57988  1.0000
  H   H1413     1.0  0.46607  0.85729  0.79359  1.0000
  H   H1414     1.0  0.43718  0.76568  0.82086  1.0000
  H   H1415     1.0  0.46382  0.81432  0.56032  1.0000
  H   H1416     1.0  0.42050  0.86287  0.92387  1.0000
  C   C896      1.0  0.44818  0.79295  0.58242  1.0000
  H   H1417     1.0  0.34642  0.79417  0.78763  1.0000
  C   C897      1.0  0.45449  0.93268  0.49212  1.0000
  C   C898      1.0  0.43231  0.94573  0.54972  1.0000
  S   S345      1.0  0.44064  0.95125  0.67393  1.0000
  H   H1418     1.0  0.45596  0.94457  0.59172  1.0000
  Fe  Fe172     1.0  0.44426  0.98551  0.65921  1.0000
  C   C899      1.0  0.42240  0.75755  0.49343  1.0000
  S   S346      1.0  0.44781  0.97500  0.69858  1.0000
  N   N89       1.0  0.44632  0.80449  0.58588  1.0000
  H   H1419     1.0  0.44601  0.87291  0.56368  1.0000
  C   C900      1.0  0.47865  0.98536  0.68040  1.0000
  C   C901      1.0  0.46309  0.95145  0.57466  1.0000
  C   C902      1.0  0.42173  0.77269  0.69217  1.0000
  H   H1420     1.0  0.45291  0.93536  0.86376  1.0000
  C   C903      1.0  0.41814  0.87551  0.98043  1.0000
  H   H1421     1.0  0.35333  0.81644  0.52077  1.0000
  C   C904      1.0  0.44091  0.83740  0.59177  1.0000
  C   C905      1.0  0.45153  0.95384  0.88633  1.0000
  C   C906      1.0  0.43288  0.83275  0.61908  1.0000
  H   H1422     1.0  0.45202  0.67997  0.96842  1.0000
  S   S347      1.0  0.44491  0.90506  0.96444  1.0000
  H   H1423     1.0  0.44982  0.95507  0.86446  1.0000
  H   H1424     1.0  0.43014  0.78746  0.70614  1.0000
  H   H1425     1.0  0.41016  0.97604  0.74349  1.0000
  H   H1426     1.0  0.42351  0.83019  0.62071  1.0000
  H   H1427     1.0  0.44730  0.81494  0.61664  1.0000
  C   C907      1.0  0.40793  0.93700  0.57015  1.0000
  H   H1428     1.0  0.49291  0.96143  0.56032  1.0000
  C   C908      1.0  0.46151  0.94467  0.91936  1.0000
  C   C909      1.0  0.41354  0.93481  0.54416  1.0000
  H   H1429     1.0  0.46048  0.92850  0.88820  1.0000
  H   H1430     1.0  0.46084  0.84697  0.82841  1.0000
  Fe  Fe173     1.0  0.45662  0.96599  0.66795  1.0000
  H   H1431     1.0  0.47752  0.94630  0.87052  1.0000
  H   H1432     1.0  0.47524  0.96067  0.87095  1.0000
  H   H1433     1.0  0.48403  0.95943  0.53536  1.0000
  H   H1434     1.0  0.43226  0.81321  0.58921  1.0000
  H   H1435     1.0  0.43888  0.76346  0.88271  1.0000
  H   H1436     1.0  0.44252  0.94971  0.81628  1.0000
  H   H1437     1.0  0.45051  0.77721  0.80405  1.0000
  C   C910      1.0  0.43208  0.95075  0.78505  1.0000
  H   H1438     1.0  0.43191  0.79127  0.84913  1.0000
  C   C911      1.0  0.41295  0.93785  0.83229  1.0000
  C   C912      1.0  0.43375  0.94733  0.81310  1.0000
  Fe  Fe174     1.0  0.42800  0.90981  0.95948  1.0000
  H   H1439     1.0  0.47309  0.96280  0.60933  1.0000
  H   H1440     1.0  0.47085  0.93284  0.59731  1.0000
  S   S348      1.0  0.41113  0.75376  0.67498  1.0000
  H   H1441     1.0  0.45722  0.87183  0.81381  1.0000
  C   C913      1.0  0.45438  0.81402  0.56136  1.0000
  C   C914      1.0  0.45972  0.86861  0.83417  1.0000
  H   H1442     1.0  0.48223  0.96990  0.55638  1.0000
  H   H1443     1.0  0.48635  0.94008  0.58306  1.0000
  H   H1444     1.0  0.48229  0.88149  0.81949  1.0000
  C   C915      1.0  0.49946  0.00501  0.60703  1.0000
  S   S349      1.0  0.45423  0.97724  0.62813  1.0000
  H   H1445     1.0  0.46099  0.87600  0.84485  1.0000
  C   C916      1.0  0.42422  0.94083  0.83695  1.0000
  H   H1446     1.0  0.46091  0.96009  0.57434  1.0000
  H   H1447     1.0  0.45300  0.94067  0.93610  1.0000
  N   N90       1.0  0.47484  0.95168  0.58002  1.0000
  H   H1448     1.0  0.48121  0.85640  0.85315  1.0000
  C   C917      1.0  0.48391  0.96105  0.55704  1.0000
  H   H1449     1.0  0.48185  0.92903  0.97388  1.0000
  H   H1450     1.0  0.47707  0.93789  0.55891  1.0000
  H   H1451     1.0  0.45925  0.84453  0.56902  1.0000
  S   S350      1.0  0.43554  0.83830  0.56048  1.0000
  C   C918      1.0  0.47499  0.95412  0.60842  1.0000
  C   C919      1.0  0.46831  0.85443  0.81452  1.0000
  S   S351      1.0  0.43554  0.95624  0.59445  1.0000
  S   S352      1.0  0.42211  0.80301  0.79182  1.0000
  N   N91       1.0  0.47044  0.86423  0.82860  1.0000
  H   H1452     1.0  0.45204  0.86150  0.84877  1.0000
  H   H1453     1.0  0.35223  0.82909  0.49518  1.0000
  H   H1454     1.0  0.40245  0.93925  0.80115  1.0000
  H   H1455     1.0  0.47616  0.85080  0.81019  1.0000
  C   C920      1.0  0.48043  0.87396  0.80946  1.0000
  H   H1456     1.0  0.40654  0.81487  0.70667  1.0000
  H   H1457     1.0  0.48865  0.87093  0.80483  1.0000
  C   C921      1.0  0.38440  0.68147  0.67882  1.0000
  C   C922      1.0  0.47326  0.85992  0.85632  1.0000
  H   H1458     1.0  0.47492  0.86706  0.86766  1.0000
  C   C923      1.0  0.49361  0.99259  0.70400  1.0000
  H   H1459     1.0  0.46740  0.93875  0.92315  1.0000
  N   N92       1.0  0.43255  0.76229  0.50435  1.0000
  C   C924      1.0  0.42078  0.94794  0.78046  1.0000
  H   H1460     1.0  0.40857  0.98761  0.78015  1.0000
  H   H1461     1.0  0.42760  0.79750  0.60430  1.0000
  Fe  Fe175     1.0  0.41757  0.81530  0.75703  1.0000
  S   S353      1.0  0.45467  0.85825  0.96924  1.0000
  C   C925      1.0  0.42673  0.94784  0.57586  1.0000
  N   N93       1.0  0.42363  0.86925  0.96048  1.0000
  C   C926      1.0  0.42582  0.93922  0.53420  1.0000
  H   H1462     1.0  0.39575  0.96089  0.49092  1.0000
  H   H1463     1.0  0.43031  0.93766  0.51440  1.0000
  S   S354      1.0  0.34056  0.77805  0.67909  1.0000
  S   S355      1.0  0.41801  0.95290  0.74593  1.0000
  H   H1464     1.0  0.46699  0.88416  0.54902  1.0000
  H   H1465     1.0  0.42055  0.75357  0.76759  1.0000
  Fe  Fe176     1.0  0.41751  0.92440  0.91682  1.0000
  H   H1466     1.0  0.43657  0.76246  0.54524  1.0000
  S   S356      1.0  0.34486  0.84699  0.94863  1.0000
  H   H1467     1.0  0.44957  0.79019  0.86751  1.0000
  C   C927      1.0  0.45203  0.78510  0.85151  1.0000
  H   H1468     1.0  0.48323  0.00317  0.68516  1.0000
  H   H1469     1.0  0.40980  0.96653  0.49780  1.0000
  H   H1470     1.0  0.42815  0.85262  0.96280  1.0000
  H   H1471     1.0  0.40738  0.86235  0.95025  1.0000
  H   H1472     1.0  0.49720  0.91885  0.95237  1.0000
  C   C928      1.0  0.38193  0.67239  0.66486  1.0000
  H   H1473     1.0  0.40054  0.69198  0.53197  1.0000
  H   H1474     1.0  0.35810  0.68122  0.78364  1.0000
  S   S357      1.0  0.44381  0.82584  0.49350  1.0000
  H   H1475     1.0  0.33706  0.82042  0.57382  1.0000
  H   H1476     1.0  0.33937  0.81987  0.52219  1.0000
  H   H1477     1.0  0.44867  0.86616  0.53426  1.0000
  H   H1478     1.0  0.47943  0.79234  0.97130  1.0000
  H   H1479     1.0  0.37745  0.67724  0.78151  1.0000
  H   H1480     1.0  0.41483  0.76128  0.50028  1.0000
  H   H1481     1.0  0.46512  0.68564  0.49036  1.0000
  H   H1482     1.0  0.49207  0.00161  0.62700  1.0000
  C   C929      1.0  0.35631  0.67509  0.76977  1.0000
  H   H1483     1.0  0.45131  0.76044  0.98593  1.0000
  H   H1484     1.0  0.50218  0.97971  0.72167  1.0000
  C   C930      1.0  0.47238  0.92755  0.97822  1.0000
  S   S358      1.0  0.46895  0.81118  0.48969  1.0000
  Fe  Fe177     1.0  0.49432  0.94799  0.48852  1.0000
  C   C931      1.0  0.56122  0.23434  0.29527  1.0000
  C   C932      1.0  0.57405  0.16260  0.41005  1.0000
  H   H1485     1.0  0.58253  0.23162  0.27217  1.0000
  H   H1486     1.0  0.65781  0.16624  0.01919  1.0000
  H   H1487     1.0  0.53261  0.03710  0.17783  1.0000
  S   S359      1.0  0.55885  0.21023  0.40842  1.0000
  Fe  Fe178     1.0  0.56598  0.23043  0.39329  1.0000
  C   C933      1.0  0.51563  0.01533  0.09909  1.0000
  H   H1488     1.0  0.54709  0.12328  0.33254  1.0000
  N   N94       1.0  0.57429  0.12291  0.11088  1.0000
  Fe  Fe179     1.0  0.58683  0.24703  0.40499  1.0000
  Fe  Fe180     1.0  0.52423  0.12826  0.35288  1.0000
  S   S360      1.0  0.53118  0.11877  0.38790  1.0000
  S   S361      1.0  0.52274  0.11790  0.31773  1.0000
  Fe  Fe181     1.0  0.52716  0.15020  0.37879  1.0000
  S   S362      1.0  0.53403  0.14175  0.41528  1.0000
  S   S363      1.0  0.52645  0.16958  0.36996  1.0000
  Fe  Fe182     1.0  0.54468  0.13577  0.38045  1.0000
  S   S364      1.0  0.56382  0.13589  0.37327  1.0000
  Fe  Fe183     1.0  0.51973  0.12540  0.41999  1.0000
  H   H1489     1.0  0.57880  0.03845  0.20080  1.0000
  S   S365      1.0  0.53871  0.14499  0.34371  1.0000
  S   S366      1.0  0.51186  0.13411  0.38546  1.0000
  H   H1490     1.0  0.56850  0.24175  0.29559  1.0000
  H   H1491     1.0  0.64128  0.29353  0.04428  1.0000
  H   H1492     1.0  0.55814  0.11589  0.33990  1.0000
  H   H1493     1.0  0.57398  0.11519  0.29864  1.0000
  H   H1494     1.0  0.54966  0.25890  0.03132  1.0000
  S   S367      1.0  0.64395  0.33751  0.12169  1.0000
  Fe  Fe184     1.0  0.58423  0.24912  0.34271  1.0000
  Fe  Fe185     1.0  0.59694  0.09800  0.20640  1.0000
  H   H1495     1.0  0.57383  0.13388  0.31255  1.0000
  H   H1496     1.0  0.56386  0.25775  0.03615  1.0000
  C   C934      1.0  0.55803  0.02645  0.27410  1.0000
  Fe  Fe186     1.0  0.51657  0.08344  0.15571  1.0000
  S   S368      1.0  0.53515  0.08201  0.15111  1.0000
  C   C935      1.0  0.51677  0.10275  0.01338  1.0000
  Fe  Fe187     1.0  0.54767  0.01813  0.20054  1.0000
  H   H1497     1.0  0.57776  0.21609  0.27483  1.0000
  S   S369      1.0  0.56116  0.11386  0.21921  1.0000
  H   H1498     1.0  0.54097  0.21067  0.37487  1.0000
  C   C936      1.0  0.54179  0.09000  0.17256  1.0000
  C   C937      1.0  0.53624  0.09751  0.18555  1.0000
  C   C938      1.0  0.54206  0.10464  0.20057  1.0000
  C   C939      1.0  0.55336  0.10407  0.20313  1.0000
  C   C940      1.0  0.55861  0.09608  0.19155  1.0000
  C   C941      1.0  0.55293  0.08915  0.17596  1.0000
  H   H1499     1.0  0.52752  0.09802  0.18373  1.0000
  H   H1500     1.0  0.53786  0.11069  0.20985  1.0000
  H   H1501     1.0  0.56704  0.09520  0.19466  1.0000
  H   H1502     1.0  0.55716  0.08316  0.16653  1.0000
  C   C942      1.0  0.56618  0.04894  0.20220  1.0000
  C   C943      1.0  0.57730  0.04694  0.20245  1.0000
  C   C944      1.0  0.58658  0.05602  0.20449  1.0000
  C   C945      1.0  0.58496  0.06726  0.20609  1.0000
  C   C946      1.0  0.57384  0.06920  0.20594  1.0000
  C   C947      1.0  0.56457  0.06016  0.20399  1.0000
  H   H1503     1.0  0.59513  0.05436  0.20444  1.0000
  H   H1504     1.0  0.57234  0.07768  0.20752  1.0000
  H   H1505     1.0  0.55606  0.06190  0.20388  1.0000
  H   H1506     1.0  0.59861  0.33638  0.03726  1.0000
  H   H1507     1.0  0.54748  0.11935  0.27300  1.0000
  H   H1508     1.0  0.54712  0.10963  0.32298  1.0000
  H   H1509     1.0  0.57868  0.12808  0.06436  1.0000
  H   H1510     1.0  0.58860  0.11456  0.11014  1.0000
  N   N95       1.0  0.58742  0.20397  0.44091  1.0000
  H   H1511     1.0  0.59467  0.33685  0.28275  1.0000
  H   H1512     1.0  0.51303  0.01996  0.11601  1.0000
  H   H1513     1.0  0.56576  0.03308  0.25830  1.0000
  S   S370      1.0  0.59406  0.17204  0.42564  1.0000
  H   H1514     1.0  0.55121  0.27974  0.48593  1.0000
  H   H1515     1.0  0.55174  0.21504  0.27916  1.0000
  C   C948      1.0  0.51476  0.11334  0.29259  1.0000
  C   C949      1.0  0.63152  0.31072  0.08814  1.0000
  C   C950      1.0  0.66314  0.19460  0.48515  1.0000
  H   H1516     1.0  0.58557  0.30904  0.01733  1.0000
  C   C951      1.0  0.51911  0.10636  0.27502  1.0000
  H   H1517     1.0  0.51640  0.09673  0.24269  1.0000
  H   H1518     1.0  0.52736  0.10418  0.27622  1.0000
  C   C952      1.0  0.57179  0.14575  0.38895  1.0000
  C   C953      1.0  0.58028  0.24468  0.01667  1.0000
  H   H1519     1.0  0.55760  0.12724  0.11302  1.0000
  H   H1520     1.0  0.66857  0.17995  0.45282  1.0000
  H   H1521     1.0  0.51077  0.10316  0.37795  1.0000
  H   H1522     1.0  0.57704  0.13987  0.08135  1.0000
  H   H1523     1.0  0.57822  0.18553  0.45211  1.0000
  S   S371      1.0  0.58319  0.25289  0.06380  1.0000
  C   C954      1.0  0.56815  0.13577  0.29759  1.0000
  H   H1524     1.0  0.57664  0.22745  0.32474  1.0000
  N   N96       1.0  0.56067  0.12470  0.29517  1.0000
  H   H1525     1.0  0.52621  0.05330  0.15037  1.0000
  H   H1526     1.0  0.55927  0.11528  0.09663  1.0000
  C   C955      1.0  0.56142  0.11947  0.11393  1.0000
  C   C956      1.0  0.59453  0.24867  0.46889  1.0000
  H   H1527     1.0  0.57452  0.10542  0.13262  1.0000
  C   C957      1.0  0.51766  0.05026  0.16718  1.0000
  S   S372      1.0  0.59446  0.24958  0.29793  1.0000
  C   C958      1.0  0.55018  0.19929  0.39592  1.0000
  C   C959      1.0  0.56458  0.28063  0.01884  1.0000
  C   C960      1.0  0.55115  0.18756  0.40339  1.0000
  C   C961      1.0  0.54411  0.17844  0.39522  1.0000
  C   C962      1.0  0.53588  0.18089  0.37972  1.0000
  C   C963      1.0  0.53499  0.19264  0.37203  1.0000
  C   C964      1.0  0.54209  0.20179  0.38005  1.0000
  C   C965      1.0  0.58535  0.16172  0.41225  1.0000
  H   H1528     1.0  0.54488  0.16947  0.40143  1.0000
  H   H1529     1.0  0.52855  0.19461  0.36038  1.0000
  H   H1530     1.0  0.55728  0.18545  0.41587  1.0000
  C   C966      1.0  0.56103  0.28214  0.47953  1.0000
  C   C967      1.0  0.58023  0.13171  0.08291  1.0000
  S   S373      1.0  0.59405  0.12986  0.20688  1.0000
  H   H1531     1.0  0.52419  0.06167  0.20584  1.0000
  H   H1532     1.0  0.57096  0.21187  0.32924  1.0000
  S   S374      1.0  0.56731  0.24241  0.42355  1.0000
  C   C968      1.0  0.55331  0.12754  0.27512  1.0000
  H   H1533     1.0  0.54743  0.13298  0.28282  1.0000
  H   H1534     1.0  0.55843  0.00762  0.25203  1.0000
  N   N97       1.0  0.51918  0.04490  0.19581  1.0000
  H   H1535     1.0  0.57323  0.01618  0.24657  1.0000
  H   H1536     1.0  0.60601  0.26185  0.02075  1.0000
  Fe  Fe188     1.0  0.58455  0.33813  0.40906  1.0000
  H   H1537     1.0  0.66580  0.31983  0.18843  1.0000
  S   S375      1.0  0.62405  0.14324  0.99316  1.0000
  H   H1538     1.0  0.63721  0.27766  0.01909  1.0000
  C   C969      1.0  0.66123  0.21391  0.41026  1.0000
  C   C970      1.0  0.57688  0.19408  0.45607  1.0000
  N   N98       1.0  0.56568  0.27170  0.48720  1.0000
  H   H1539     1.0  0.65393  0.17064  0.46033  1.0000
  C   C971      1.0  0.64703  0.28871  0.05451  1.0000
  H   H1540     1.0  0.61662  0.32551  0.00704  1.0000
  H   H1541     1.0  0.65754  0.31868  0.14708  1.0000
  H   H1542     1.0  0.65010  0.17467  0.03915  1.0000
  H   H1543     1.0  0.57710  0.23780  0.47436  1.0000
  S   S376      1.0  0.58565  0.23431  0.37724  1.0000
  H   H1544     1.0  0.57223  0.12177  0.15620  1.0000
  H   H1545     1.0  0.57144  0.24013  0.02974  1.0000
  H   H1546     1.0  0.55869  0.15552  0.39614  1.0000
  S   S377      1.0  0.55390  0.03784  0.20033  1.0000
  S   S378      1.0  0.59691  0.07849  0.20895  1.0000
  C   C972      1.0  0.56730  0.15466  0.39827  1.0000
  H   H1547     1.0  0.60517  0.15623  0.30850  1.0000
  C   C973      1.0  0.60149  0.16012  0.32605  1.0000
  H   H1548     1.0  0.56170  0.22023  0.34445  1.0000
  C   C974      1.0  0.52395  0.03454  0.19420  1.0000
  H   H1549     1.0  0.60667  0.32480  0.43494  1.0000
  H   H1550     1.0  0.55712  0.20477  0.30220  1.0000
  Fe  Fe189     1.0  0.58013  0.11346  0.21167  1.0000
  S   S379      1.0  0.58647  0.10232  0.24459  1.0000
  N   N99       1.0  0.56435  0.27208  0.00081  1.0000
  H   H1551     1.0  0.54713  0.21240  0.31775  1.0000
  C   C975      1.0  0.51289  0.10210  0.25584  1.0000
  N   N100      1.0  0.65239  0.28189  0.03585  1.0000
  C   C976      1.0  0.51135  0.10075  0.04308  1.0000
  H   H1552     1.0  0.57228  0.22654  0.25251  1.0000
  S   S380      1.0  0.58974  0.10842  0.17367  1.0000
  Fe  Fe190     1.0  0.60149  0.11851  0.23733  1.0000
  H   H1553     1.0  0.57330  0.01045  0.31073  1.0000
  H   H1554     1.0  0.57744  0.21705  0.43909  1.0000
  H   H1555     1.0  0.57054  0.16947  0.41719  1.0000
  H   H1556     1.0  0.57405  0.14107  0.27620  1.0000
  C   C977      1.0  0.56825  0.11745  0.28412  1.0000
  C   C978      1.0  0.58304  0.14490  0.39120  1.0000
  H   H1557     1.0  0.54725  0.01094  0.32567  1.0000
  H   H1558     1.0  0.58660  0.13807  0.38391  1.0000
  C   C979      1.0  0.57478  0.22436  0.27336  1.0000
  H   H1559     1.0  0.57414  0.12224  0.26236  1.0000
  H   H1560     1.0  0.57324  0.13616  0.13461  1.0000
  H   H1561     1.0  0.58592  0.32400  0.04652  1.0000
  S   S381      1.0  0.56446  0.24481  0.35727  1.0000
  N   N101      1.0  0.56487  0.22315  0.29832  1.0000
  H   H1562     1.0  0.57742  0.10822  0.09409  1.0000
  H   H1563     1.0  0.66746  0.29622  0.01150  1.0000
  H   H1564     1.0  0.59174  0.15643  0.33248  1.0000
  C   C980      1.0  0.58981  0.15291  0.40254  1.0000
  C   C981      1.0  0.56871  0.22054  0.32533  1.0000
  S   S382      1.0  0.53534  0.01286  0.17323  1.0000
  C   C982      1.0  0.55479  0.21341  0.29933  1.0000
  C   C983      1.0  0.65035  0.17051  0.02070  1.0000
  C   C984      1.0  0.57661  0.12814  0.13475  1.0000
  H   H1565     1.0  0.66670  0.24385  0.33916  1.0000
  H   H1566     1.0  0.59853  0.15227  0.40343  1.0000
  H   H1567     1.0  0.58624  0.13081  0.13329  1.0000
  C   C985      1.0  0.55294  0.11803  0.32394  1.0000
  H   H1568     1.0  0.55353  0.23368  0.31324  1.0000
  H   H1569     1.0  0.60490  0.15689  0.34496  1.0000
  C   C986      1.0  0.57892  0.11232  0.11197  1.0000
  H   H1570     1.0  0.55671  0.11295  0.13502  1.0000
  H   H1571     1.0  0.55875  0.23691  0.27453  1.0000
  H   H1572     1.0  0.55880  0.13244  0.25299  1.0000
  H   H1573     1.0  0.56269  0.14135  0.30640  1.0000
  H   H1574     1.0  0.58997  0.13441  0.08005  1.0000
  H   H1575     1.0  0.56288  0.10905  0.28188  1.0000
  H   H1576     1.0  0.56898  0.19555  0.44859  1.0000
  H   H1577     1.0  0.64146  0.28283  0.07563  1.0000
  C   C987      1.0  0.63692  0.32922  0.10144  1.0000
  H   H1578     1.0  0.61055  0.10242  0.26204  1.0000
  C   C988      1.0  0.52751  0.05371  0.20431  1.0000
  C   C989      1.0  0.63011  0.33405  0.08450  1.0000
  H   H1579     1.0  0.59612  0.20090  0.47512  1.0000
  C   C990      1.0  0.58825  0.25125  0.02861  1.0000
  H   H1580     1.0  0.62425  0.10328  0.27187  1.0000
  H   H1581     1.0  0.56982  0.27879  0.03493  1.0000
  H   H1582     1.0  0.57874  0.02484  0.28565  1.0000
  H   H1583     1.0  0.65717  0.18599  0.44165  1.0000
  H   H1584     1.0  0.51414  0.05814  0.16762  1.0000
  H   H1585     1.0  0.51306  0.01938  0.07946  1.0000
  H   H1586     1.0  0.60163  0.12383  0.33996  1.0000
  C   C991      1.0  0.63665  0.27630  0.15214  1.0000
  C   C992      1.0  0.63777  0.31760  0.10295  1.0000
  C   C993      1.0  0.60210  0.25477  0.48256  1.0000
  C   C994      1.0  0.64148  0.26971  0.13452  1.0000
  S   S383      1.0  0.63271  0.26115  0.11732  1.0000
  H   H1587     1.0  0.64302  0.31381  0.11602  1.0000
  S   S384      1.0  0.59983  0.24836  0.43269  1.0000
  H   H1588     1.0  0.58347  0.21482  0.46993  1.0000
  H   H1589     1.0  0.66154  0.20146  0.46823  1.0000
  H   H1590     1.0  0.61219  0.31321  0.13858  1.0000
  H   H1591     1.0  0.53626  0.05686  0.18815  1.0000
  C   C995      1.0  0.58674  0.26780  0.21428  1.0000
  C   C996      1.0  0.51240  0.10895  0.99192  1.0000
  H   H1592     1.0  0.61560  0.29465  0.20586  1.0000
  C   C997      1.0  0.58320  0.29768  0.40622  1.0000
  H   H1593     1.0  0.63301  0.17812  0.00171  1.0000
  H   H1594     1.0  0.56462  0.25480  0.47743  1.0000
  S   S385      1.0  0.51068  0.10022  0.15194  1.0000
  C   C998      1.0  0.61488  0.31733  0.18930  1.0000
  H   H1595     1.0  0.52545  0.01716  0.09347  1.0000
  S   S386      1.0  0.55873  0.27183  0.39150  1.0000
  H   H1596     1.0  0.57841  0.26446  0.28733  1.0000
  H   H1597     1.0  0.59139  0.30987  0.20948  1.0000
  H   H1598     1.0  0.52431  0.09934  0.00697  1.0000
  S   S387      1.0  0.59758  0.25585  0.13003  1.0000
  C   C999      1.0  0.56078  0.29475  0.39636  1.0000
  H   H1599     1.0  0.59982  0.32166  0.05114  1.0000
  H   H1600     1.0  0.61038  0.32458  0.19047  1.0000
  H   H1601     1.0  0.51133  0.04392  0.16019  1.0000
  H   H1602     1.0  0.59180  0.29864  0.41059  1.0000
  S   S388      1.0  0.58339  0.31832  0.42259  1.0000
  C   C1000     1.0  0.57783  0.28723  0.39973  1.0000
  C   C1001     1.0  0.57071  0.01852  0.30112  1.0000
  H   H1603     1.0  0.56158  0.31209  0.40411  1.0000
  N   N102      1.0  0.60707  0.30686  0.18499  1.0000
  H   H1604     1.0  0.55198  0.29357  0.39309  1.0000
  S   S389      1.0  0.58992  0.27911  0.09801  1.0000
  C   C1002     1.0  0.58522  0.21514  0.44649  1.0000
  C   C1003     1.0  0.57741  0.30673  0.40787  1.0000
  H   H1605     1.0  0.55893  0.25326  0.00671  1.0000
  C   C1004     1.0  0.56646  0.28558  0.39538  1.0000
  H   H1606     1.0  0.62305  0.32096  0.17126  1.0000
  S   S390      1.0  0.58762  0.26237  0.36867  1.0000
  C   C1005     1.0  0.61314  0.29726  0.18513  1.0000
  H   H1607     1.0  0.52543  0.03038  0.21528  1.0000
  C   C1006     1.0  0.58990  0.20494  0.40950  1.0000
  C   C1007     1.0  0.58066  0.26887  0.24099  1.0000
  H   H1608     1.0  0.51378  0.13647  0.00747  1.0000
  C   C1008     1.0  0.59791  0.25630  0.23926  1.0000
  Fe  Fe191     1.0  0.59503  0.26332  0.08595  1.0000
  H   H1609     1.0  0.58233  0.28029  0.39911  1.0000
  C   C1009     1.0  0.58317  0.26363  0.26682  1.0000
  C   C1010     1.0  0.59610  0.30277  0.20862  1.0000
  H   H1610     1.0  0.56783  0.02262  0.31893  1.0000
  C   C1011     1.0  0.59768  0.20171  0.45148  1.0000
  S   S391      1.0  0.58334  0.27432  0.18226  1.0000
  S   S392      1.0  0.50974  0.11031  0.46038  1.0000
  H   H1611     1.0  0.61756  0.31516  0.20986  1.0000
  C   C1012     1.0  0.56624  0.30531  0.40239  1.0000
  C   C1013     1.0  0.59517  0.31292  0.00735  1.0000
  Fe  Fe192     1.0  0.59403  0.27248  0.14039  1.0000
  C   C1014     1.0  0.59172  0.25721  0.26603  1.0000
  Fe  Fe193     1.0  0.56795  0.25726  0.38585  1.0000
  C   C1015     1.0  0.59546  0.26160  0.21346  1.0000
  S   S393      1.0  0.61286  0.28294  0.12502  1.0000
  H   H1612     1.0  0.57394  0.27371  0.24173  1.0000
  S   S394      1.0  0.50539  0.07596  0.12889  1.0000
  H   H1613     1.0  0.59796  0.30003  0.23008  1.0000
  C   C1016     1.0  0.64388  0.28365  0.16418  1.0000
  Fe  Fe194     1.0  0.60923  0.28803  0.08186  1.0000
  Fe  Fe195     1.0  0.61632  0.26691  0.11161  1.0000
  H   H1614     1.0  0.58250  0.26766  0.48387  1.0000
  H   H1615     1.0  0.62135  0.29996  0.16723  1.0000
  H   H1616     1.0  0.64137  0.18954  0.01390  1.0000
  C   C1017     1.0  0.59977  0.25679  0.01180  1.0000
  H   H1617     1.0  0.63220  0.30177  0.08939  1.0000
  H   H1618     1.0  0.59973  0.33470  0.45075  1.0000
  H   H1619     1.0  0.62996  0.08471  0.28942  1.0000
  H   H1620     1.0  0.59751  0.08313  0.26490  1.0000
  C   C1018     1.0  0.60223  0.07883  0.27972  1.0000
  H   H1621     1.0  0.56860  0.28988  0.00533  1.0000
  C   C1019     1.0  0.62453  0.31549  0.07159  1.0000
  H   H1622     1.0  0.62162  0.17503  0.32695  1.0000
  C   C1020     1.0  0.50966  0.14402  0.00356  1.0000
  H   H1623     1.0  0.61882  0.33109  0.05625  1.0000
  H   H1624     1.0  0.52907  0.04993  0.22555  1.0000
  C   C1021     1.0  0.65976  0.27549  0.05054  1.0000
  H   H1625     1.0  0.51780  0.02760  0.18837  1.0000
  H   H1626     1.0  0.60345  0.17516  0.36003  1.0000
  C   C1022     1.0  0.62078  0.08635  0.24336  1.0000
  C   C1023     1.0  0.60006  0.17712  0.29191  1.0000
  H   H1627     1.0  0.61347  0.15812  0.07985  1.0000
  C   C1024     1.0  0.62057  0.07975  0.29365  1.0000
  H   H1628     1.0  0.61498  0.12183  0.09576  1.0000
  H   H1629     1.0  0.60361  0.17368  0.27335  1.0000
  H   H1630     1.0  0.62071  0.18740  0.30050  1.0000
  C   C1025     1.0  0.60915  0.13094  0.32682  1.0000
  H   H1631     1.0  0.59731  0.07807  0.30222  1.0000
  H   H1632     1.0  0.62044  0.07060  0.29167  1.0000
  H   H1633     1.0  0.66340  0.28518  0.99294  1.0000
  N   N103      1.0  0.56123  0.01555  0.28657  1.0000
  H   H1634     1.0  0.65429  0.26867  0.07043  1.0000
  H   H1635     1.0  0.65256  0.22708  0.42154  1.0000
  C   C1026     1.0  0.59988  0.17786  0.34105  1.0000
  H   H1636     1.0  0.60208  0.18770  0.33490  1.0000
  H   H1637     1.0  0.60158  0.06975  0.27672  1.0000
  H   H1638     1.0  0.59025  0.17391  0.29767  1.0000
  S   S395      1.0  0.61151  0.13931  0.12914  1.0000
  S   S396      1.0  0.61277  0.11346  0.20076  1.0000
  Fe  Fe196     1.0  0.63144  0.16325  0.38325  1.0000
  S   S397      1.0  0.62616  0.18042  0.38191  1.0000
  S   S398      1.0  0.63387  0.15779  0.33978  1.0000
  Fe  Fe197     1.0  0.63026  0.15949  0.44899  1.0000
  S   S399      1.0  0.62396  0.17578  0.45099  1.0000
  C   C1027     1.0  0.66078  0.27755  0.14194  1.0000
  Fe  Fe198     1.0  0.61258  0.16994  0.42261  1.0000
  Fe  Fe199     1.0  0.63836  0.18492  0.41018  1.0000
  S   S400      1.0  0.64765  0.20396  0.41073  1.0000
  S   S401      1.0  0.61762  0.15272  0.42396  1.0000
  S   S402      1.0  0.64497  0.16863  0.40823  1.0000
  C   C1028     1.0  0.61240  0.13239  0.29661  1.0000
  H   H1639     1.0  0.58228  0.20651  0.40089  1.0000
  C   C1029     1.0  0.61553  0.13853  0.34040  1.0000
  C   C1030     1.0  0.62537  0.14777  0.32402  1.0000
  C   C1031     1.0  0.62861  0.14923  0.29381  1.0000
  C   C1032     1.0  0.62217  0.14169  0.28020  1.0000
  H   H1640     1.0  0.59010  0.17446  0.34858  1.0000
  C   C1033     1.0  0.61782  0.17758  0.30835  1.0000
  H   H1641     1.0  0.63621  0.15625  0.28076  1.0000
  H   H1642     1.0  0.62489  0.14299  0.25702  1.0000
  C   C1034     1.0  0.61390  0.13983  0.09163  1.0000
  C   C1035     1.0  0.61472  0.15055  0.07183  1.0000
  C   C1036     1.0  0.61728  0.15161  0.04174  1.0000
  C   C1037     1.0  0.61941  0.14205  0.03096  1.0000
  C   C1038     1.0  0.61836  0.13127  0.05079  1.0000
  C   C1039     1.0  0.61549  0.13011  0.08093  1.0000
  H   H1643     1.0  0.61786  0.15989  0.02688  1.0000
  C   C1040     1.0  0.66095  0.22490  0.41644  1.0000
  H   H1644     1.0  0.63017  0.09149  0.23764  1.0000
  H   H1645     1.0  0.61287  0.13718  0.36362  1.0000
  H   H1646     1.0  0.61617  0.07912  0.31650  1.0000
  H   H1647     1.0  0.61650  0.09070  0.22753  1.0000
  Fe  Fe200     1.0  0.60434  0.12411  0.17050  1.0000
  H   H1648     1.0  0.60242  0.18695  0.28431  1.0000
  N   N104      1.0  0.65590  0.18267  0.48726  1.0000
  H   H1649     1.0  0.62000  0.12381  0.04275  1.0000
  S   S403      1.0  0.60403  0.12224  0.28089  1.0000
  S   S404      1.0  0.50379  0.07362  0.19808  1.0000
  N   N105      1.0  0.61466  0.08567  0.27338  1.0000
  H   H1650     1.0  0.56463  0.26651  0.44794  1.0000
  H   H1651     1.0  0.62056  0.07738  0.23988  1.0000
  H   H1652     1.0  0.56379  0.28620  0.45582  1.0000
  C   C1041     1.0  0.61503  0.09775  0.27678  1.0000
  H   H1653     1.0  0.64677  0.26791  0.01619  1.0000
  H   H1654     1.0  0.58217  0.27935  0.45496  1.0000
  H   H1655     1.0  0.60737  0.28917  0.18248  1.0000
  N   N106      1.0  0.60481  0.17318  0.31682  1.0000
  H   H1656     1.0  0.62192  0.17379  0.29104  1.0000
  H   H1657     1.0  0.61050  0.09765  0.29915  1.0000
  H   H1658     1.0  0.60459  0.25141  0.23847  1.0000
  C   C1042     1.0  0.65904  0.17970  0.45928  1.0000
  H   H1659     1.0  0.64207  0.16329  0.02623  1.0000
  H   H1660     1.0  0.66649  0.28158  0.05704  1.0000
  C   C1043     1.0  0.59561  0.32695  0.03679  1.0000
  C   C1044     1.0  0.57873  0.27535  0.47863  1.0000
  S   S405      1.0  0.61413  0.27286  0.06666  1.0000
  C   C1045     1.0  0.66653  0.32285  0.13239  1.0000
  H   H1661     1.0  0.59168  0.19667  0.40460  1.0000
  H   H1662     1.0  0.60026  0.26079  0.19296  1.0000
  H   H1663     1.0  0.55552  0.28021  0.03106  1.0000
  C   C1046     1.0  0.60412  0.31007  0.15694  1.0000
  H   H1664     1.0  0.55460  0.03070  0.29108  1.0000
  H   H1665     1.0  0.66450  0.27085  0.03634  1.0000
  H   H1666     1.0  0.65730  0.26480  0.11728  1.0000
  H   H1667     1.0  0.59823  0.30234  0.15305  1.0000
  C   C1047     1.0  0.56541  0.01008  0.26324  1.0000
  H   H1668     1.0  0.62729  0.27544  0.15736  1.0000
  H   H1669     1.0  0.54796  0.27377  0.99080  1.0000
  C   C1048     1.0  0.65597  0.28434  0.15897  1.0000
  H   H1670     1.0  0.64130  0.18909  0.47739  1.0000
  C   C1049     1.0  0.65353  0.27017  0.12999  1.0000
  S   S406      1.0  0.61605  0.30672  0.05458  1.0000
  H   H1671     1.0  0.58990  0.29501  0.20574  1.0000
  H   H1672     1.0  0.59998  0.30768  0.01995  1.0000
  H   H1673     1.0  0.63731  0.26685  0.05065  1.0000
  H   H1674     1.0  0.59953  0.31731  0.15606  1.0000
  C   C1050     1.0  0.62405  0.32725  0.06927  1.0000
  H   H1675     1.0  0.64006  0.28867  0.17788  1.0000
  C   C1051     1.0  0.58292  0.24277  0.48440  1.0000
  C   C1052     1.0  0.65978  0.29008  0.00819  1.0000
  H   H1676     1.0  0.61113  0.25924  0.47075  1.0000
  H   H1677     1.0  0.55163  0.26011  0.47712  1.0000
  H   H1678     1.0  0.65465  0.29550  0.99725  1.0000
  C   C1053     1.0  0.56144  0.26289  0.47183  1.0000
  C   C1054     1.0  0.60686  0.33006  0.45127  1.0000
  N   N107      1.0  0.59866  0.32557  0.00699  1.0000
  H   H1679     1.0  0.51213  0.14974  0.01787  1.0000
  N   N108      1.0  0.65158  0.17928  0.99335  1.0000
  H   H1680     1.0  0.60579  0.20900  0.44037  1.0000
  C   C1055     1.0  0.64299  0.27322  0.03013  1.0000
  H   H1681     1.0  0.59772  0.21241  0.39729  1.0000
  S   S407      1.0  0.66489  0.29372  0.17397  1.0000
  H   H1682     1.0  0.59959  0.19333  0.44758  1.0000
  H   H1683     1.0  0.51483  0.09595  0.05923  1.0000
  H   H1684     1.0  0.59293  0.22284  0.43502  1.0000
  H   H1685     1.0  0.55111  0.02458  0.26230  1.0000
  S   S408      1.0  0.63537  0.14929  0.48766  1.0000
  H   H1686     1.0  0.58206  0.27090  0.00038  1.0000
  H   H1687     1.0  0.59319  0.30798  0.47358  1.0000
  H   H1688     1.0  0.61496  0.31094  0.46471  1.0000
  H   H1689     1.0  0.65389  0.29532  0.05928  1.0000
  C   C1056     1.0  0.61482  0.31651  0.48041  1.0000
  C   C1057     1.0  0.55078  0.00714  0.30782  1.0000
  C   C1058     1.0  0.55895  0.25996  0.01955  1.0000
  C   C1059     1.0  0.64160  0.18483  0.99644  1.0000
  C   C1060     1.0  0.50763  0.04105  0.21742  1.0000
  H   H1690     1.0  0.61540  0.33699  0.44414  1.0000
  N   N109      1.0  0.60520  0.32253  0.48052  1.0000
  H   H1691     1.0  0.65921  0.33702  0.16398  1.0000
  H   H1692     1.0  0.50367  0.04860  0.21912  1.0000
  H   H1693     1.0  0.57475  0.19303  0.47985  1.0000
  H   H1694     1.0  0.62358  0.32302  0.47445  1.0000
  H   H1695     1.0  0.50844  0.03691  0.23925  1.0000
  S   S409      1.0  0.53452  0.00726  0.24208  1.0000
  H   H1696     1.0  0.66536  0.32772  0.11159  1.0000
  H   H1697     1.0  0.66318  0.19322  0.00370  1.0000
  H   H1698     1.0  0.58259  0.32849  0.99725  1.0000
  C   C1061     1.0  0.61152  0.33031  0.99435  1.0000
  C   C1062     1.0  0.50404  0.11600  0.29048  1.0000
  C   C1063     1.0  0.59232  0.33214  0.98927  1.0000
  H   H1699     1.0  0.66049  0.28136  0.48753  1.0000
  H   H1700     1.0  0.67008  0.27791  0.13813  1.0000
  C   C1064     1.0  0.56813  0.22685  0.81422  1.0000
  H   H1701     1.0  0.57498  0.12105  0.79004  1.0000
  H   H1702     1.0  0.53506  0.05421  0.68322  1.0000
  S   S410      1.0  0.56466  0.24639  0.85902  1.0000
  C   C1065     1.0  0.55775  0.07650  0.75716  1.0000
  H   H1703     1.0  0.52966  0.16036  0.94101  1.0000
  H   H1704     1.0  0.52673  0.10426  0.52780  1.0000
  Fe  Fe201     1.0  0.54641  0.01739  0.69740  1.0000
  H   H1705     1.0  0.56341  0.22333  0.83757  1.0000
  H   H1706     1.0  0.53667  0.09107  0.74769  1.0000
  H   H1707     1.0  0.52918  0.10240  0.60334  1.0000
  Fe  Fe202     1.0  0.52615  0.13085  0.84619  1.0000
  S   S411      1.0  0.53568  0.12117  0.87444  1.0000
  S   S412      1.0  0.52584  0.12573  0.80284  1.0000
  Fe  Fe203     1.0  0.52729  0.15033  0.88069  1.0000
  S   S413      1.0  0.53673  0.14154  0.91045  1.0000
  S   S414      1.0  0.52387  0.16819  0.88475  1.0000
  Fe  Fe204     1.0  0.54742  0.13894  0.87020  1.0000
  S   S415      1.0  0.56719  0.14225  0.85799  1.0000
  Fe  Fe205     1.0  0.52398  0.12456  0.91277  1.0000
  Fe  Fe206     1.0  0.56658  0.23130  0.89273  1.0000
  S   S416      1.0  0.53876  0.14867  0.84021  1.0000
  S   S417      1.0  0.51353  0.13331  0.88494  1.0000
  H   H1708     1.0  0.65790  0.32329  0.61525  1.0000
  C   C1066     1.0  0.53401  0.11113  0.53030  1.0000
  H   H1709     1.0  0.57902  0.13326  0.73986  1.0000
  H   H1710     1.0  0.55505  0.11829  0.54166  1.0000
  H   H1711     1.0  0.56179  0.20713  0.79669  1.0000
  H   H1712     1.0  0.54781  0.06782  0.71890  1.0000
  C   C1067     1.0  0.55152  0.19964  0.89401  1.0000
  C   C1068     1.0  0.50803  0.12002  0.50809  1.0000
  C   C1069     1.0  0.58676  0.15560  0.86753  1.0000
  H   H1713     1.0  0.51425  0.13527  0.95694  1.0000
  S   S418      1.0  0.51035  0.09867  0.65727  1.0000
  Fe  Fe207     1.0  0.51579  0.08202  0.65505  1.0000
  S   S419      1.0  0.53516  0.08337  0.64251  1.0000
  H   H1714     1.0  0.57437  0.20523  0.95631  1.0000
  S   S420      1.0  0.58798  0.07719  0.72500  1.0000
  Fe  Fe208     1.0  0.58070  0.11763  0.69629  1.0000
  S   S421      1.0  0.56286  0.12064  0.69593  1.0000
  H   H1715     1.0  0.53882  0.20963  0.88738  1.0000
  C   C1070     1.0  0.54280  0.09417  0.65629  1.0000
  C   C1071     1.0  0.53676  0.09827  0.67825  1.0000
  C   C1072     1.0  0.54295  0.10681  0.68937  1.0000
  C   C1073     1.0  0.55519  0.11108  0.67911  1.0000
  C   C1074     1.0  0.56120  0.10712  0.65686  1.0000
  C   C1075     1.0  0.55502  0.09863  0.64555  1.0000
  H   H1716     1.0  0.52739  0.09461  0.68738  1.0000
  H   H1717     1.0  0.53833  0.10985  0.70661  1.0000
  H   H1718     1.0  0.57056  0.11079  0.64791  1.0000
  H   H1719     1.0  0.55972  0.09555  0.62845  1.0000
  C   C1076     1.0  0.56369  0.04850  0.69664  1.0000
  C   C1077     1.0  0.56922  0.04541  0.71869  1.0000
  C   C1078     1.0  0.57665  0.05428  0.72687  1.0000
  C   C1079     1.0  0.57861  0.06638  0.71341  1.0000
  C   C1080     1.0  0.57301  0.06950  0.69152  1.0000
  C   C1081     1.0  0.56567  0.06062  0.68315  1.0000
  H   H1720     1.0  0.58089  0.05170  0.74387  1.0000
  H   H1721     1.0  0.57434  0.07873  0.68092  1.0000
  H   H1722     1.0  0.56149  0.06317  0.66602  1.0000
  H   H1723     1.0  0.59064  0.21363  0.81546  1.0000
  C   C1082     1.0  0.60324  0.25577  0.98329  1.0000
  S   S422      1.0  0.51856  0.10979  0.95491  1.0000
  H   H1724     1.0  0.52407  0.05880  0.66680  1.0000
  N   N110      1.0  0.51883  0.04080  0.69230  1.0000
  C   C1083     1.0  0.59270  0.16281  0.88216  1.0000
  C   C1084     1.0  0.50529  0.10977  0.80085  1.0000
  H   H1725     1.0  0.61211  0.31442  0.66576  1.0000
  H   H1726     1.0  0.65319  0.29285  0.49200  1.0000
  H   H1727     1.0  0.52242  0.05714  0.70483  1.0000
  H   H1728     1.0  0.57287  0.11747  0.90823  1.0000
  H   H1729     1.0  0.58442  0.10265  0.90026  1.0000
  H   H1730     1.0  0.64174  0.26616  0.51370  1.0000
  S   S423      1.0  0.58048  0.25052  0.56200  1.0000
  C   C1085     1.0  0.51681  0.11652  0.78649  1.0000
  H   H1731     1.0  0.53019  0.03414  0.71673  1.0000
  C   C1086     1.0  0.52313  0.03617  0.66750  1.0000
  C   C1087     1.0  0.51460  0.10910  0.74377  1.0000
  C   C1088     1.0  0.52138  0.11610  0.75781  1.0000
  H   H1732     1.0  0.51820  0.10906  0.72167  1.0000
  H   H1733     1.0  0.53022  0.12132  0.74623  1.0000
  C   C1089     1.0  0.57446  0.15280  0.87334  1.0000
  C   C1090     1.0  0.56816  0.15789  0.89255  1.0000
  H   H1734     1.0  0.55875  0.15605  0.89666  1.0000
  C   C1091     1.0  0.55628  0.12374  0.76919  1.0000
  C   C1092     1.0  0.53659  0.06858  0.77192  1.0000
  H   H1735     1.0  0.55242  0.09683  0.73744  1.0000
  C   C1093     1.0  0.60245  0.12995  0.88990  1.0000
  H   H1736     1.0  0.63756  0.17365  0.49627  1.0000
  S   S424      1.0  0.66006  0.29055  0.67739  1.0000
  H   H1737     1.0  0.55817  0.07760  0.77903  1.0000
  H   H1738     1.0  0.55386  0.08350  0.70475  1.0000
  H   H1739     1.0  0.56368  0.12289  0.81821  1.0000
  H   H1740     1.0  0.62058  0.10127  0.65823  1.0000
  C   C1094     1.0  0.58635  0.16750  0.90227  1.0000
  C   C1095     1.0  0.58129  0.12342  0.90866  1.0000
  C   C1096     1.0  0.58249  0.21270  0.94907  1.0000
  C   C1097     1.0  0.65749  0.27161  0.54395  1.0000
  C   C1098     1.0  0.58466  0.21915  0.82197  1.0000
  N   N111      1.0  0.59280  0.20910  0.93483  1.0000
  H   H1741     1.0  0.56784  0.03616  0.72931  1.0000
  C   C1099     1.0  0.58605  0.29902  0.65869  1.0000
  C   C1100     1.0  0.55390  0.18850  0.89547  1.0000
  C   C1101     1.0  0.54571  0.17897  0.89173  1.0000
  C   C1102     1.0  0.53487  0.18034  0.88703  1.0000
  C   C1103     1.0  0.53251  0.19151  0.88531  1.0000
  C   C1104     1.0  0.54083  0.20115  0.88847  1.0000
  H   H1742     1.0  0.56541  0.08320  0.74121  1.0000
  H   H1743     1.0  0.54770  0.17049  0.89295  1.0000
  H   H1744     1.0  0.52417  0.19271  0.88167  1.0000
  H   H1745     1.0  0.52793  0.06939  0.76782  1.0000
  S   S425      1.0  0.58903  0.10658  0.67080  1.0000
  H   H1746     1.0  0.53816  0.07744  0.71574  1.0000
  S   S426      1.0  0.56708  0.24188  0.92630  1.0000
  C   C1105     1.0  0.52699  0.10525  0.58235  1.0000
  H   H1747     1.0  0.53101  0.14817  0.96744  1.0000
  H   H1748     1.0  0.55177  0.13672  0.80624  1.0000
  H   H1749     1.0  0.59166  0.15201  0.85205  1.0000
  H   H1750     1.0  0.53742  0.05955  0.77086  1.0000
  N   N112      1.0  0.53727  0.10728  0.55770  1.0000
  C   C1106     1.0  0.54501  0.08966  0.75283  1.0000
  H   H1751     1.0  0.54475  0.09086  0.77491  1.0000
  S   S427      1.0  0.58215  0.10768  0.73893  1.0000
  Fe  Fe209     1.0  0.58664  0.24773  0.90800  1.0000
  H   H1752     1.0  0.52385  0.11340  0.58243  1.0000
  H   H1753     1.0  0.56215  0.18720  0.89960  1.0000
  H   H1754     1.0  0.54462  0.12504  0.55946  1.0000
  S   S428      1.0  0.56210  0.21108  0.90031  1.0000
  C   C1107     1.0  0.54711  0.11653  0.55989  1.0000
  H   H1755     1.0  0.58571  0.31229  0.81924  1.0000
  S   S429      1.0  0.55423  0.03776  0.68504  1.0000
  H   H1756     1.0  0.57049  0.14355  0.73123  1.0000
  H   H1757     1.0  0.57409  0.20135  0.80261  1.0000
  H   H1758     1.0  0.51586  0.02432  0.72371  1.0000
  H   H1759     1.0  0.66635  0.29248  0.50410  1.0000
  H   H1760     1.0  0.58546  0.30655  0.85626  1.0000
  C   C1108     1.0  0.58981  0.33018  0.84459  1.0000
  H   H1761     1.0  0.55474  0.14578  0.77024  1.0000
  C   C1109     1.0  0.60331  0.21932  0.92516  1.0000
  H   H1762     1.0  0.64057  0.18481  0.51532  1.0000
  N   N113      1.0  0.59160  0.12150  0.88956  1.0000
  C   C1110     1.0  0.59251  0.10928  0.89995  1.0000
  H   H1763     1.0  0.56913  0.16895  0.92230  1.0000
  S   S430      1.0  0.59365  0.17568  0.92245  1.0000
  C   C1111     1.0  0.57040  0.12752  0.79744  1.0000
  C   C1112     1.0  0.54092  0.09615  0.55845  1.0000
  H   H1764     1.0  0.65247  0.17959  0.94882  1.0000
  C   C1113     1.0  0.56857  0.20725  0.80930  1.0000
  S   S431      1.0  0.59730  0.13192  0.68803  1.0000
  H   H1765     1.0  0.65840  0.32658  0.68916  1.0000
  C   C1114     1.0  0.59138  0.31151  0.83463  1.0000
  C   C1115     1.0  0.59799  0.25528  0.51129  1.0000
  H   H1766     1.0  0.56137  0.22732  0.80170  1.0000
  C   C1116     1.0  0.59514  0.24948  0.97113  1.0000
  H   H1767     1.0  0.50543  0.12705  0.54564  1.0000
  H   H1768     1.0  0.63812  0.31246  0.61322  1.0000
  S   S432      1.0  0.59507  0.25273  0.62814  1.0000
  H   H1769     1.0  0.53631  0.06921  0.79447  1.0000
  C   C1117     1.0  0.59502  0.19942  0.95551  1.0000
  H   H1770     1.0  0.58055  0.13265  0.90180  1.0000
  N   N114      1.0  0.51350  0.15070  0.97278  1.0000
  H   H1771     1.0  0.60017  0.10756  0.88578  1.0000
  C   C1118     1.0  0.65798  0.28687  0.50242  1.0000
  H   H1772     1.0  0.51072  0.16586  0.94530  1.0000
  H   H1773     1.0  0.55911  0.06762  0.75623  1.0000
  H   H1774     1.0  0.59376  0.10765  0.92227  1.0000
  H   H1775     1.0  0.57336  0.23608  0.81108  1.0000
  C   C1119     1.0  0.57409  0.16527  0.90695  1.0000
  H   H1776     1.0  0.58734  0.19148  0.96286  1.0000
  H   H1777     1.0  0.58921  0.13236  0.85138  1.0000
  H   H1778     1.0  0.56472  0.27274  0.53107  1.0000
  H   H1779     1.0  0.58194  0.12190  0.93145  1.0000
  H   H1780     1.0  0.66675  0.27746  0.63563  1.0000
  S   S433      1.0  0.60721  0.30488  0.56240  1.0000
  C   C1120     1.0  0.57426  0.13937  0.74852  1.0000
  H   H1781     1.0  0.58766  0.23358  0.76993  1.0000
  H   H1782     1.0  0.53090  0.11934  0.52933  1.0000
  H   H1783     1.0  0.52945  0.16162  0.97701  1.0000
  H   H1784     1.0  0.54160  0.11297  0.51115  1.0000
  Fe  Fe210     1.0  0.58442  0.25179  0.84487  1.0000
  S   S434      1.0  0.58633  0.23648  0.87677  1.0000
  H   H1785     1.0  0.56085  0.28406  0.96617  1.0000
  C   C1121     1.0  0.58195  0.22447  0.77381  1.0000
  Fe  Fe211     1.0  0.59173  0.09749  0.71265  1.0000
  N   N115      1.0  0.54647  0.07783  0.75081  1.0000
  C   C1122     1.0  0.54656  0.07658  0.72128  1.0000
  H   H1786     1.0  0.57712  0.13432  0.80216  1.0000
  S   S435      1.0  0.53493  0.01250  0.66810  1.0000
  H   H1787     1.0  0.55204  0.12764  0.75259  1.0000
  H   H1788     1.0  0.50442  0.04498  0.67609  1.0000
  H   H1789     1.0  0.54972  0.11388  0.58044  1.0000
  H   H1790     1.0  0.65590  0.29272  0.55321  1.0000
  N   N116      1.0  0.66762  0.32666  0.64646  1.0000
  H   H1791     1.0  0.59027  0.22822  0.81906  1.0000
  H   H1792     1.0  0.50457  0.12948  0.67855  1.0000
  C   C1123     1.0  0.55892  0.14140  0.78630  1.0000
  H   H1793     1.0  0.54907  0.11884  0.78891  1.0000
  H   H1794     1.0  0.66370  0.23785  0.83055  1.0000
  N   N117      1.0  0.56497  0.13301  0.77533  1.0000
  C   C1124     1.0  0.57888  0.24309  0.51324  1.0000
  H   H1795     1.0  0.56511  0.14839  0.79189  1.0000
  H   H1796     1.0  0.58773  0.21902  0.76576  1.0000
  H   H1797     1.0  0.59711  0.31170  0.98502  1.0000
  H   H1798     1.0  0.58100  0.14641  0.75238  1.0000
  H   H1799     1.0  0.56052  0.11726  0.76073  1.0000
  H   H1800     1.0  0.61190  0.31664  0.84961  1.0000
  S   S436      1.0  0.60794  0.28012  0.62814  1.0000
  H   H1801     1.0  0.54346  0.09302  0.57887  1.0000
  H   H1802     1.0  0.54862  0.09729  0.54006  1.0000
  H   H1803     1.0  0.57558  0.22513  0.76019  1.0000
  H   H1804     1.0  0.64222  0.19142  0.97604  1.0000
  C   C1125     1.0  0.59018  0.12332  0.85972  1.0000
  H   H1805     1.0  0.53363  0.08893  0.55728  1.0000
  H   H1806     1.0  0.56991  0.23844  0.52516  1.0000
  N   N118      1.0  0.57583  0.21942  0.80479  1.0000
  H   H1807     1.0  0.56381  0.20325  0.83251  1.0000
  H   H1808     1.0  0.59796  0.12227  0.84455  1.0000
  H   H1809     1.0  0.58218  0.11699  0.85852  1.0000
  S   S437      1.0  0.59976  0.24819  0.93546  1.0000
  H   H1810     1.0  0.58032  0.21546  0.84548  1.0000
  Fe  Fe212     1.0  0.59944  0.12146  0.73008  1.0000
  H   H1811     1.0  0.61378  0.31064  0.50209  1.0000
  H   H1812     1.0  0.51747  0.03703  0.73800  1.0000
  C   C1126     1.0  0.60556  0.32188  0.85576  1.0000
  C   C1127     1.0  0.58634  0.24949  0.52668  1.0000
  H   H1813     1.0  0.60228  0.13929  0.88140  1.0000
  H   H1814     1.0  0.53270  0.03658  0.66417  1.0000
  H   H1815     1.0  0.51822  0.02680  0.67091  1.0000
  H   H1816     1.0  0.52260  0.01093  0.57877  1.0000
  C   C1128     1.0  0.64327  0.18256  0.49438  1.0000
  C   C1129     1.0  0.55734  0.27480  0.97980  1.0000
  H   H1817     1.0  0.62649  0.08906  0.67028  1.0000
  C   C1130     1.0  0.61850  0.09143  0.66517  1.0000
  H   H1818     1.0  0.61137  0.08841  0.68565  1.0000
  H   H1819     1.0  0.61046  0.12857  0.87630  1.0000
  C   C1131     1.0  0.50611  0.03994  0.69597  1.0000
  H   H1820     1.0  0.66313  0.31110  0.63110  1.0000
  C   C1132     1.0  0.52069  0.03380  0.71886  1.0000
  C   C1133     1.0  0.66279  0.18853  0.98630  1.0000
  H   H1821     1.0  0.60003  0.15012  0.79588  1.0000
  H   H1822     1.0  0.66385  0.19534  0.96593  1.0000
  C   C1134     1.0  0.57597  0.30615  0.91739  1.0000
  C   C1135     1.0  0.50791  0.16065  0.96840  1.0000
  Fe  Fe213     1.0  0.58978  0.26789  0.64327  1.0000
  H   H1823     1.0  0.60164  0.29778  0.70971  1.0000
  H   H1824     1.0  0.58036  0.27918  0.91189  1.0000
  H   H1825     1.0  0.57740  0.23886  0.97903  1.0000
  Fe  Fe214     1.0  0.59155  0.26082  0.58578  1.0000
  H   H1826     1.0  0.60377  0.32457  0.52369  1.0000
  C   C1136     1.0  0.59800  0.25913  0.74143  1.0000
  H   H1827     1.0  0.61219  0.25996  0.97049  1.0000
  C   C1137     1.0  0.65705  0.32248  0.67122  1.0000
  H   H1828     1.0  0.65895  0.16893  0.96678  1.0000
  H   H1829     1.0  0.58049  0.30808  0.70423  1.0000
  C   C1138     1.0  0.59411  0.26169  0.71612  1.0000
  S   S438      1.0  0.58692  0.26376  0.87432  1.0000
  H   H1830     1.0  0.56101  0.31229  0.90900  1.0000
  H   H1831     1.0  0.65482  0.31269  0.68002  1.0000
  C   C1139     1.0  0.57934  0.25996  0.77018  1.0000
  H   H1832     1.0  0.51037  0.16688  0.98159  1.0000
  C   C1140     1.0  0.59064  0.25824  0.76852  1.0000
  H   H1833     1.0  0.64918  0.32463  0.66478  1.0000
  C   C1141     1.0  0.58927  0.31249  0.68878  1.0000
  H   H1834     1.0  0.55160  0.29389  0.89718  1.0000
  C   C1142     1.0  0.56536  0.30520  0.90913  1.0000
  S   S439      1.0  0.58465  0.27489  0.60261  1.0000
  H   H1835     1.0  0.58694  0.28937  0.71261  1.0000
  C   C1143     1.0  0.65807  0.17380  0.51015  1.0000
  C   C1144     1.0  0.57547  0.26258  0.74483  1.0000
  H   H1836     1.0  0.57362  0.25934  0.79093  1.0000
  H   H1837     1.0  0.60977  0.30416  0.64404  1.0000
  H   H1838     1.0  0.58813  0.31991  0.67250  1.0000
  H   H1839     1.0  0.64268  0.29312  0.54120  1.0000
  C   C1145     1.0  0.56153  0.26641  0.51878  1.0000
  H   H1840     1.0  0.66537  0.27676  0.54882  1.0000
  H   H1841     1.0  0.59520  0.31653  0.70099  1.0000
  C   C1146     1.0  0.52647  0.15541  0.96425  1.0000
  C   C1147     1.0  0.58141  0.29677  0.91783  1.0000
  N   N119      1.0  0.59415  0.30405  0.67483  1.0000
  C   C1148     1.0  0.56534  0.28524  0.90359  1.0000
  H   H1842     1.0  0.61047  0.32919  0.56444  1.0000
  C   C1149     1.0  0.56003  0.29473  0.90255  1.0000
  H   H1843     1.0  0.59920  0.28784  0.68720  1.0000
  H   H1844     1.0  0.56674  0.26397  0.74619  1.0000
  C   C1150     1.0  0.57620  0.28643  0.91073  1.0000
  C   C1151     1.0  0.58282  0.26343  0.71776  1.0000
  S   S440      1.0  0.58222  0.31823  0.93017  1.0000
  H   H1845     1.0  0.57725  0.29402  0.67334  1.0000
  H   H1846     1.0  0.58964  0.29744  0.92410  1.0000
  H   H1847     1.0  0.58060  0.22000  0.93408  1.0000
  Fe  Fe215     1.0  0.56726  0.25753  0.89095  1.0000
  H   H1848     1.0  0.51070  0.12863  0.49279  1.0000
  S   S441      1.0  0.55776  0.27174  0.89835  1.0000
  N   N120      1.0  0.59811  0.32329  0.83523  1.0000
  C   C1152     1.0  0.65732  0.27646  0.63997  1.0000
  H   H1849     1.0  0.66107  0.19712  0.50595  1.0000
  H   H1850     1.0  0.60276  0.19650  0.94539  1.0000
  C   C1153     1.0  0.59556  0.29438  0.69710  1.0000
  H   H1851     1.0  0.63442  0.27764  0.51842  1.0000
  H   H1852     1.0  0.57677  0.26664  0.97119  1.0000
  C   C1154     1.0  0.60577  0.31031  0.65460  1.0000
  H   H1853     1.0  0.50407  0.01412  0.60689  1.0000
  S   S442      1.0  0.63872  0.33565  0.62250  1.0000
  H   H1854     1.0  0.64239  0.28186  0.57194  1.0000
  S   S443      1.0  0.57786  0.26715  0.68631  1.0000
  Fe  Fe216     1.0  0.60334  0.28580  0.58626  1.0000
  H   H1855     1.0  0.59735  0.30599  0.82801  1.0000
  C   C1155     1.0  0.65057  0.26967  0.62586  1.0000
  H   H1856     1.0  0.60500  0.31751  0.63715  1.0000
  H   H1857     1.0  0.58394  0.32567  0.86654  1.0000
  S   S444      1.0  0.59576  0.25455  0.79975  1.0000
  C   C1156     1.0  0.59039  0.20490  0.90963  1.0000
  H   H1858     1.0  0.58406  0.33150  0.82958  1.0000
  H   H1859     1.0  0.61148  0.15764  0.82859  1.0000
  S   S445      1.0  0.60098  0.13205  0.76483  1.0000
  H   H1860     1.0  0.62223  0.08661  0.59815  1.0000
  H   H1861     1.0  0.60370  0.12904  0.91212  1.0000
  H   H1862     1.0  0.60035  0.33085  0.78988  1.0000
  C   C1157     1.0  0.65156  0.17324  0.96981  1.0000
  H   H1863     1.0  0.58475  0.30604  0.64167  1.0000
  H   H1864     1.0  0.65268  0.16472  0.51213  1.0000
  H   H1865     1.0  0.60221  0.16472  0.87783  1.0000
  H   H1866     1.0  0.63283  0.08810  0.61942  1.0000
  H   H1867     1.0  0.58860  0.21191  0.89360  1.0000
  H   H1868     1.0  0.60496  0.06957  0.67298  1.0000
  H   H1869     1.0  0.60525  0.22284  0.94359  1.0000
  C   C1158     1.0  0.60719  0.14643  0.80032  1.0000
  C   C1159     1.0  0.57655  0.27294  0.98514  1.0000
  C   C1160     1.0  0.62461  0.09042  0.61579  1.0000
  H   H1870     1.0  0.61129  0.21691  0.91455  1.0000
  C   C1161     1.0  0.62522  0.30932  0.58877  1.0000
  H   H1871     1.0  0.60599  0.09925  0.62901  1.0000
  H   H1872     1.0  0.60941  0.06865  0.63630  1.0000
  C   C1162     1.0  0.61225  0.07303  0.65270  1.0000
  C   C1163     1.0  0.52539  0.05330  0.68662  1.0000
  H   H1873     1.0  0.61324  0.14674  0.53325  1.0000
  S   S446      1.0  0.53187  0.00802  0.73791  1.0000
  H   H1874     1.0  0.65317  0.22390  0.92297  1.0000
  S   S447      1.0  0.60936  0.11032  0.70714  1.0000
  Fe  Fe217     1.0  0.62836  0.16104  0.88583  1.0000
  S   S448      1.0  0.62635  0.17976  0.88014  1.0000
  S   S449      1.0  0.63071  0.15038  0.85114  1.0000
  Fe  Fe218     1.0  0.62488  0.15731  0.95245  1.0000
  S   S450      1.0  0.62201  0.17533  0.95110  1.0000
  H   H1875     1.0  0.58252  0.19716  0.91623  1.0000
  Fe  Fe219     1.0  0.61132  0.17177  0.91971  1.0000
  Fe  Fe220     1.0  0.63759  0.18222  0.91184  1.0000
  S   S451      1.0  0.64829  0.20058  0.91327  1.0000
  S   S452      1.0  0.61272  0.15310  0.92428  1.0000
  S   S453      1.0  0.64102  0.16406  0.91445  1.0000
  C   C1164     1.0  0.61000  0.13757  0.78704  1.0000
  C   C1165     1.0  0.61941  0.13304  0.79305  1.0000
  C   C1166     1.0  0.62572  0.13719  0.81222  1.0000
  C   C1167     1.0  0.62283  0.14597  0.82570  1.0000
  C   C1168     1.0  0.61360  0.15065  0.81922  1.0000
  C   C1169     1.0  0.66155  0.22171  0.91803  1.0000
  H   H1876     1.0  0.62177  0.12625  0.78317  1.0000
  H   H1877     1.0  0.63289  0.13351  0.81674  1.0000
  C   C1170     1.0  0.66185  0.21067  0.91215  1.0000
  C   C1171     1.0  0.63013  0.14261  0.52573  1.0000
  C   C1172     1.0  0.62357  0.13156  0.58629  1.0000
  C   C1173     1.0  0.63444  0.13173  0.56872  1.0000
  C   C1174     1.0  0.63767  0.13717  0.53897  1.0000
  C   C1175     1.0  0.61917  0.14257  0.54308  1.0000
  C   C1176     1.0  0.61588  0.13703  0.57335  1.0000
  H   H1878     1.0  0.64048  0.12761  0.57823  1.0000
  H   H1879     1.0  0.64612  0.13710  0.52604  1.0000
  H   H1880     1.0  0.58093  0.28198  0.97099  1.0000
  H   H1881     1.0  0.66623  0.24013  0.86423  1.0000
  H   H1882     1.0  0.58953  0.29268  0.64774  1.0000
  H   H1883     1.0  0.59489  0.33185  0.96626  1.0000
  H   H1884     1.0  0.59680  0.20219  0.97493  1.0000
  C   C1177     1.0  0.63979  0.27209  0.52788  1.0000
  H   H1885     1.0  0.60011  0.31728  0.87812  1.0000
  H   H1886     1.0  0.61213  0.32476  0.79825  1.0000
  H   H1887     1.0  0.60745  0.13700  0.58656  1.0000
  H   H1888     1.0  0.65197  0.26524  0.56456  1.0000
  S   S454      1.0  0.62048  0.12419  0.62382  1.0000
  H   H1889     1.0  0.63418  0.26632  0.54919  1.0000
  Fe  Fe221     1.0  0.60596  0.11998  0.66572  1.0000
  N   N121      1.0  0.61492  0.08607  0.64255  1.0000
  C   C1178     1.0  0.60429  0.08945  0.63665  1.0000
  H   H1890     1.0  0.59681  0.08630  0.65644  1.0000
  H   H1891     1.0  0.62674  0.10027  0.60779  1.0000
  H   H1892     1.0  0.58400  0.21594  0.96816  1.0000
  C   C1179     1.0  0.66539  0.32093  0.62327  1.0000
  C   C1180     1.0  0.50997  0.14274  0.95479  1.0000
  H   H1893     1.0  0.62006  0.07012  0.65743  1.0000
  H   H1894     1.0  0.60132  0.08557  0.61967  1.0000
  H   H1895     1.0  0.60383  0.26016  0.52146  1.0000
  C   C1181     1.0  0.61664  0.32557  0.57454  1.0000
  Fe  Fe222     1.0  0.61301  0.26553  0.61003  1.0000
  C   C1182     1.0  0.63128  0.32768  0.60224  1.0000
  C   C1183     1.0  0.63228  0.31622  0.60208  1.0000
  H   H1896     1.0  0.62344  0.27215  0.65697  1.0000
  C   C1184     1.0  0.62367  0.33244  0.58786  1.0000
  H   H1897     1.0  0.59218  0.30777  0.51110  1.0000
  H   H1898     1.0  0.65572  0.17570  0.53166  1.0000
  H   H1899     1.0  0.60200  0.22679  0.90939  1.0000
  N   N122      1.0  0.65077  0.27943  0.53111  1.0000
  C   C1185     1.0  0.63289  0.27361  0.65149  1.0000
  H   H1900     1.0  0.59795  0.20203  0.89846  1.0000
  S   S455      1.0  0.60997  0.27236  0.56639  1.0000
  C   C1186     1.0  0.63962  0.28038  0.66562  1.0000
  H   H1901     1.0  0.60676  0.25781  0.73998  1.0000
  C   C1187     1.0  0.65184  0.28186  0.65978  1.0000
  H   H1902     1.0  0.63532  0.28435  0.68135  1.0000
  H   H1903     1.0  0.51942  0.09824  0.58159  1.0000
  H   H1904     1.0  0.66750  0.17358  0.50547  1.0000
  H   H1905     1.0  0.62587  0.30040  0.58913  1.0000
  C   C1188     1.0  0.61717  0.31389  0.57568  1.0000
  S   S456      1.0  0.63013  0.26067  0.61165  1.0000
  C   C1189     1.0  0.63835  0.26840  0.63122  1.0000
  H   H1906     1.0  0.61075  0.33064  0.85662  1.0000
  H   H1907     1.0  0.52194  0.04135  0.64710  1.0000
  H   H1908     1.0  0.65484  0.26540  0.61088  1.0000
  H   H1909     1.0  0.59986  0.26236  0.69536  1.0000
  C   C1190     1.0  0.50708  0.10981  0.49795  1.0000
  H   H1910     1.0  0.66070  0.26636  0.52911  1.0000
  H   H1911     1.0  0.59858  0.33505  0.50088  1.0000
  H   H1912     1.0  0.55173  0.26357  0.52608  1.0000
  H   H1913     1.0  0.51707  0.00554  0.63286  1.0000
  C   C1191     1.0  0.60568  0.32964  0.80598  1.0000
  H   H1914     1.0  0.61410  0.33659  0.49588  1.0000
  H   H1915     1.0  0.61412  0.32966  0.97167  1.0000
  H   H1916     1.0  0.51250  0.14755  0.93150  1.0000
  H   H1917     1.0  0.56482  0.25847  0.52536  1.0000
  C   C1192     1.0  0.64781  0.28714  0.55012  1.0000
  C   C1193     1.0  0.60542  0.32999  0.50119  1.0000
  H   H1918     1.0  0.64321  0.16620  0.97445  1.0000
  H   H1919     1.0  0.55742  0.26886  0.96491  1.0000
  C   C1194     1.0  0.50501  0.11909  0.53814  1.0000
  Fe  Fe223     1.0  0.58299  0.33794  0.91588  1.0000
  H   H1920     1.0  0.58630  0.31796  0.48911  1.0000
  C   C1195     1.0  0.59370  0.31362  0.48904  1.0000
  H   H1921     1.0  0.56427  0.28913  0.49011  1.0000
  H   H1922     1.0  0.58227  0.28192  0.48994  1.0000
  S   S457      1.0  0.50371  0.07605  0.62839  1.0000
  H   H1923     1.0  0.61076  0.33863  0.80559  1.0000
  C   C1196     1.0  0.58363  0.24395  0.98793  1.0000
  H   H1924     1.0  0.59466  0.49062  0.36877  1.0000
  C   C1197     1.0  0.55197  0.38872  0.40466  1.0000
  H   H1925     1.0  0.54483  0.40377  0.39270  1.0000
  S   S458      1.0  0.61586  0.53582  0.38353  1.0000
  H   H1926     1.0  0.57628  0.49446  0.17908  1.0000
  C   C1198     1.0  0.56214  0.38444  0.40249  1.0000
  C   C1199     1.0  0.53657  0.46206  0.46821  1.0000
  S   S459      1.0  0.57860  0.35066  0.37711  1.0000
  H   H1927     1.0  0.55648  0.36956  0.33111  1.0000
  S   S460      1.0  0.53445  0.43395  0.37987  1.0000
  H   H1928     1.0  0.55008  0.50103  0.24355  1.0000
  H   H1929     1.0  0.54344  0.38271  0.41599  1.0000
  H   H1930     1.0  0.54207  0.43861  0.00343  1.0000
  S   S461      1.0  0.51434  0.46654  0.12484  1.0000
  Fe  Fe224     1.0  0.52844  0.49971  0.11350  1.0000
  S   S462      1.0  0.53900  0.48679  0.10603  1.0000
  Fe  Fe225     1.0  0.52571  0.47952  0.08339  1.0000
  S   S463      1.0  0.53236  0.47914  0.03630  1.0000
  Fe  Fe226     1.0  0.52695  0.47507  0.14816  1.0000
  S   S464      1.0  0.53750  0.46730  0.17798  1.0000
  S   S465      1.0  0.51613  0.49364  0.08773  1.0000
  S   S466      1.0  0.51707  0.48857  0.15671  1.0000
  H   H1931     1.0  0.57725  0.50979  0.16379  1.0000
  Fe  Fe227     1.0  0.55916  0.46250  0.36491  1.0000
  S   S467      1.0  0.50766  0.63161  0.00988  1.0000
  S   S468      1.0  0.57328  0.47915  0.35694  1.0000
  C   C1200     1.0  0.55274  0.40065  0.39165  1.0000
  H   H1932     1.0  0.54018  0.46523  0.44506  1.0000
  Fe  Fe228     1.0  0.53795  0.45137  0.34624  1.0000
  S   S469      1.0  0.52674  0.45717  0.31596  1.0000
  H   H1933     1.0  0.64638  0.40994  0.04186  1.0000
  S   S470      1.0  0.55727  0.45283  0.33078  1.0000
  Fe  Fe229     1.0  0.59734  0.36175  0.36390  1.0000
  C   C1201     1.0  0.58266  0.48210  0.44161  1.0000
  C   C1202     1.0  0.56876  0.47416  0.41605  1.0000
  C   C1203     1.0  0.57703  0.47980  0.38957  1.0000
  C   C1204     1.0  0.58819  0.48637  0.38916  1.0000
  C   C1205     1.0  0.59094  0.48762  0.41511  1.0000
  H   H1934     1.0  0.61156  0.52080  0.11378  1.0000
  N   N123      1.0  0.56696  0.49747  0.14608  1.0000
  H   H1935     1.0  0.59950  0.49285  0.41448  1.0000
  C   C1206     1.0  0.53452  0.46490  0.21627  1.0000
  C   C1207     1.0  0.54241  0.46059  0.23080  1.0000
  C   C1208     1.0  0.54025  0.45827  0.26121  1.0000
  C   C1209     1.0  0.53010  0.46019  0.27750  1.0000
  C   C1210     1.0  0.52237  0.46476  0.26290  1.0000
  C   C1211     1.0  0.52456  0.46714  0.23249  1.0000
  H   H1936     1.0  0.55012  0.45877  0.21854  1.0000
  H   H1937     1.0  0.54627  0.45472  0.27206  1.0000
  H   H1938     1.0  0.51450  0.46631  0.27522  1.0000
  H   H1939     1.0  0.51841  0.47048  0.22170  1.0000
  C   C1212     1.0  0.52993  0.46883  0.01515  1.0000
  C   C1213     1.0  0.52295  0.45720  0.02702  1.0000
  C   C1214     1.0  0.52163  0.44933  0.00919  1.0000
  H   H1940     1.0  0.51874  0.45421  0.04995  1.0000
  H   H1941     1.0  0.52061  0.62190  0.04839  1.0000
  H   H1942     1.0  0.56974  0.41797  0.45363  1.0000
  C   C1215     1.0  0.51142  0.62105  0.09197  1.0000
  C   C1216     1.0  0.55482  0.48276  0.30083  1.0000
  S   S471      1.0  0.56083  0.36926  0.41782  1.0000
  C   C1217     1.0  0.66182  0.43087  0.03461  1.0000
  C   C1218     1.0  0.53815  0.49108  0.29883  1.0000
  H   H1943     1.0  0.57940  0.39115  0.26889  1.0000
  S   S472      1.0  0.52921  0.43987  0.45883  1.0000
  Fe  Fe230     1.0  0.55412  0.43626  0.36644  1.0000
  H   H1944     1.0  0.62541  0.54184  0.25708  1.0000
  S   S473      1.0  0.56535  0.42338  0.35873  1.0000
  H   H1945     1.0  0.55499  0.51176  0.27957  1.0000
  C   C1219     1.0  0.59674  0.36394  0.03426  1.0000
  H   H1946     1.0  0.55611  0.50372  0.31394  1.0000
  S   S474      1.0  0.54011  0.46220  0.37859  1.0000
  C   C1220     1.0  0.51005  0.63641  0.31899  1.0000
  C   C1221     1.0  0.51301  0.62352  0.06165  1.0000
  H   H1947     1.0  0.50808  0.48385  0.04110  1.0000
  S   S475      1.0  0.58054  0.34745  0.44426  1.0000
  H   H1948     1.0  0.56901  0.39500  0.29514  1.0000
  C   C1222     1.0  0.59949  0.34608  0.27702  1.0000
  H   H1949     1.0  0.57144  0.50723  0.04856  1.0000
  C   C1223     1.0  0.56687  0.48587  0.13975  1.0000
  H   H1950     1.0  0.66460  0.41225  0.09404  1.0000
  C   C1224     1.0  0.57308  0.39225  0.38748  1.0000
  H   H1951     1.0  0.61032  0.51884  0.06470  1.0000
  H   H1952     1.0  0.58238  0.41007  0.36278  1.0000
  H   H1953     1.0  0.53994  0.40631  0.44220  1.0000
  S   S476      1.0  0.50637  0.64347  0.36983  1.0000
  H   H1954     1.0  0.60207  0.52436  0.23165  1.0000
  N   N124      1.0  0.55090  0.49283  0.28633  1.0000
  S   S477      1.0  0.60417  0.34418  0.22111  1.0000
  Fe  Fe231     1.0  0.50863  0.58812  0.21166  1.0000
  C   C1225     1.0  0.60017  0.35210  0.29875  1.0000
  N   N125      1.0  0.57454  0.37950  0.31161  1.0000
  C   C1226     1.0  0.58444  0.38621  0.32036  1.0000
  C   C1227     1.0  0.57797  0.36957  0.30133  1.0000
  H   H1955     1.0  0.51776  0.61758  0.10174  1.0000
  S   S478      1.0  0.58571  0.48440  0.47402  1.0000
  C   C1228     1.0  0.56371  0.40841  0.37648  1.0000
  C   C1229     1.0  0.54976  0.44353  0.00957  1.0000
  C   C1230     1.0  0.57167  0.38742  0.28806  1.0000
  H   H1956     1.0  0.56123  0.38210  0.34483  1.0000
  H   H1957     1.0  0.55517  0.49826  0.99615  1.0000
  H   H1958     1.0  0.59591  0.34750  0.32113  1.0000
  H   H1959     1.0  0.56508  0.47104  0.46247  1.0000
  S   S479      1.0  0.55788  0.44635  0.39896  1.0000
  Fe  Fe232     1.0  0.59930  0.35827  0.42675  1.0000
  C   C1231     1.0  0.57693  0.50106  0.15874  1.0000
  H   H1960     1.0  0.59428  0.34160  0.98959  1.0000
  C   C1232     1.0  0.57385  0.40413  0.37447  1.0000
  N   N126      1.0  0.55089  0.41551  0.46477  1.0000
  S   S480      1.0  0.62624  0.52757  0.45785  1.0000
  H   H1961     1.0  0.53615  0.49018  0.32255  1.0000
  H   H1962     1.0  0.58238  0.39409  0.32696  1.0000
  C   C1233     1.0  0.55300  0.49354  0.25506  1.0000
  H   H1963     1.0  0.51307  0.63117  0.27872  1.0000
  C   C1234     1.0  0.57157  0.47528  0.44206  1.0000
  H   H1964     1.0  0.56600  0.36896  0.35509  1.0000
  H   H1965     1.0  0.58048  0.36358  0.31830  1.0000
  Fe  Fe233     1.0  0.53851  0.44517  0.41062  1.0000
  Fe  Fe234     1.0  0.57648  0.36109  0.41068  1.0000
  H   H1966     1.0  0.56011  0.46911  0.41646  1.0000
  H   H1967     1.0  0.56427  0.38262  0.28084  1.0000
  H   H1968     1.0  0.55944  0.48292  0.13022  1.0000
  C   C1235     1.0  0.63203  0.53086  0.21546  1.0000
  H   H1969     1.0  0.59266  0.38934  0.30247  1.0000
  H   H1970     1.0  0.58099  0.38916  0.38578  1.0000
  H   H1971     1.0  0.53283  0.48287  0.29555  1.0000
  C   C1236     1.0  0.66374  0.51082  0.43751  1.0000
  H   H1972     1.0  0.55748  0.52275  0.43016  1.0000
  H   H1973     1.0  0.53495  0.49861  0.28861  1.0000
  H   H1974     1.0  0.58819  0.36461  0.04527  1.0000
  H   H1975     1.0  0.54992  0.47422  0.29821  1.0000
  H   H1976     1.0  0.56727  0.50541  0.28191  1.0000
  H   H1977     1.0  0.57653  0.50710  0.10248  1.0000
  C   C1237     1.0  0.56410  0.37482  0.33668  1.0000
  H   H1978     1.0  0.58647  0.38063  0.33901  1.0000
  H   H1979     1.0  0.58576  0.37279  0.28223  1.0000
  H   H1980     1.0  0.57068  0.36413  0.29502  1.0000
  H   H1981     1.0  0.56191  0.40845  0.43591  1.0000
  S   S481      1.0  0.64167  0.49900  0.47519  1.0000
  Fe  Fe235     1.0  0.62766  0.50854  0.46468  1.0000
  C   C1238     1.0  0.55759  0.50393  0.29059  1.0000
  H   H1982     1.0  0.58557  0.50203  0.14345  1.0000
  H   H1983     1.0  0.51639  0.44029  0.01863  1.0000
  C   C1239     1.0  0.56835  0.50646  0.11901  1.0000
  H   H1984     1.0  0.56071  0.50445  0.10949  1.0000
  S   S482      1.0  0.59502  0.37260  0.39612  1.0000
  H   H1985     1.0  0.56566  0.47883  0.15979  1.0000
  H   H1986     1.0  0.56441  0.48376  0.29204  1.0000
  H   H1987     1.0  0.56902  0.51538  0.12288  1.0000
  H   H1988     1.0  0.56871  0.46156  0.00089  1.0000
  H   H1989     1.0  0.56253  0.49488  0.24488  1.0000
  H   H1990     1.0  0.55087  0.43771  0.02920  1.0000
  H   H1991     1.0  0.55979  0.52433  0.39190  1.0000
  H   H1992     1.0  0.55339  0.48198  0.32444  1.0000
  C   C1240     1.0  0.54117  0.41443  0.45023  1.0000
  H   H1993     1.0  0.59280  0.36592  0.48724  1.0000
  Fe  Fe236     1.0  0.60180  0.49938  0.46624  1.0000
  H   H1994     1.0  0.62818  0.39210  0.28572  1.0000
  S   S483      1.0  0.61840  0.50479  0.43040  1.0000
  C   C1241     1.0  0.66835  0.34052  0.14969  1.0000
  Fe  Fe237     1.0  0.52982  0.60780  0.20477  1.0000
  S   S484      1.0  0.51906  0.62126  0.20830  1.0000
  S   S485      1.0  0.54934  0.61206  0.20218  1.0000
  C   C1242     1.0  0.61120  0.52603  0.21799  1.0000
  C   C1243     1.0  0.56928  0.50447  0.02944  1.0000
  S   S486      1.0  0.51798  0.59398  0.24352  1.0000
  S   S487      1.0  0.52146  0.60096  0.17229  1.0000
  Fe  Fe238     1.0  0.56330  0.53457  0.22253  1.0000
  S   S488      1.0  0.54468  0.52474  0.22688  1.0000
  Fe  Fe239     1.0  0.58042  0.55750  0.21598  1.0000
  H   H1995     1.0  0.55010  0.56107  0.14979  1.0000
  S   S489      1.0  0.57433  0.54881  0.18310  1.0000
  S   S490      1.0  0.56840  0.54385  0.25536  1.0000
  C   C1244     1.0  0.53755  0.47000  0.48584  1.0000
  C   C1245     1.0  0.54002  0.52098  0.13867  1.0000
  C   C1246     1.0  0.59670  0.52800  0.06286  1.0000
  H   H1996     1.0  0.58894  0.52296  0.40615  1.0000
  H   H1997     1.0  0.58434  0.53931  0.11734  1.0000
  H   H1998     1.0  0.54136  0.54668  0.15126  1.0000
  C   C1247     1.0  0.53174  0.51802  0.19006  1.0000
  C   C1248     1.0  0.58932  0.53368  0.07817  1.0000
  Fe  Fe240     1.0  0.50545  0.48131  0.13015  1.0000
  H   H1999     1.0  0.53424  0.63050  0.26762  1.0000
  C   C1249     1.0  0.54288  0.52315  0.19305  1.0000
  C   C1250     1.0  0.54569  0.60661  0.27722  1.0000
  H   H2000     1.0  0.54680  0.62796  0.24471  1.0000
  H   H2001     1.0  0.65478  0.43177  0.02322  1.0000
  S   S491      1.0  0.59943  0.53153  0.15405  1.0000
  C   C1251     1.0  0.50823  0.62859  0.30121  1.0000
  S   S492      1.0  0.60316  0.49924  0.00332  1.0000
  H   H2002     1.0  0.66035  0.51855  0.43317  1.0000
  H   H2003     1.0  0.64621  0.47522  0.98967  1.0000
  H   H2004     1.0  0.55186  0.51031  0.41694  1.0000
  C   C1252     1.0  0.56982  0.50656  0.43969  1.0000
  H   H2005     1.0  0.52173  0.51279  0.16065  1.0000
  S   S493      1.0  0.59861  0.51734  0.45970  1.0000
  Fe  Fe241     1.0  0.58833  0.53891  0.18639  1.0000
  H   H2006     1.0  0.53245  0.61846  0.25078  1.0000
  H   H2007     1.0  0.55670  0.62726  0.28496  1.0000
  C   C1253     1.0  0.55794  0.60160  0.20498  1.0000
  C   C1254     1.0  0.55319  0.58928  0.21124  1.0000
  C   C1255     1.0  0.56067  0.58149  0.21330  1.0000
  C   C1256     1.0  0.57287  0.58605  0.20938  1.0000
  C   C1257     1.0  0.57741  0.59830  0.20357  1.0000
  C   C1258     1.0  0.57005  0.60598  0.20134  1.0000
  H   H2008     1.0  0.54380  0.58582  0.21464  1.0000
  H   H2009     1.0  0.55707  0.57203  0.21822  1.0000
  H   H2010     1.0  0.57382  0.61542  0.19658  1.0000
  C   C1259     1.0  0.58044  0.52535  0.40603  1.0000
  S   S494      1.0  0.59578  0.54907  0.21581  1.0000
  S   S495      1.0  0.59554  0.52707  0.02753  1.0000
  H   H2011     1.0  0.59502  0.50899  0.33458  1.0000
  C   C1260     1.0  0.55181  0.42612  0.47620  1.0000
  H   H2012     1.0  0.64581  0.40058  0.32022  1.0000
  H   H2013     1.0  0.57338  0.51445  0.36686  1.0000
  C   C1261     1.0  0.66723  0.42011  0.07517  1.0000
  C   C1262     1.0  0.53833  0.62352  0.26142  1.0000
  H   H2014     1.0  0.58128  0.50616  0.38683  1.0000
  C   C1263     1.0  0.60458  0.52322  0.07614  1.0000
  S   S496      1.0  0.58731  0.52332  0.29155  1.0000
  H   H2015     1.0  0.56579  0.50037  0.39219  1.0000
  H   H2016     1.0  0.52441  0.61623  0.31622  1.0000
  C   C1264     1.0  0.65367  0.40970  0.05277  1.0000
  C   C1265     1.0  0.59811  0.51808  0.33533  1.0000
  H   H2017     1.0  0.55432  0.61079  0.26093  1.0000
  H   H2018     1.0  0.52233  0.60472  0.29789  1.0000
  C   C1266     1.0  0.56835  0.52429  0.00817  1.0000
  C   C1267     1.0  0.60991  0.36269  0.99075  1.0000
  C   C1268     1.0  0.60616  0.54140  0.33747  1.0000
  H   H2019     1.0  0.54729  0.60050  0.29562  1.0000
  H   H2020     1.0  0.59804  0.54602  0.30238  1.0000
  H   H2021     1.0  0.52958  0.60335  0.32679  1.0000
  H   H2022     1.0  0.58677  0.60192  0.20058  1.0000
  C   C1269     1.0  0.66816  0.40979  0.17503  1.0000
  C   C1270     1.0  0.60432  0.52056  0.35596  1.0000
  N   N127      1.0  0.54015  0.61562  0.28673  1.0000
  C   C1271     1.0  0.58995  0.53476  0.10612  1.0000
  H   H2023     1.0  0.55850  0.52982  0.12273  1.0000
  H   H2024     1.0  0.52423  0.51485  0.20875  1.0000
  N   N128      1.0  0.57061  0.51470  0.41173  1.0000
  C   C1272     1.0  0.55253  0.52720  0.16879  1.0000
  C   C1273     1.0  0.52864  0.60970  0.30783  1.0000
  H   H2025     1.0  0.54005  0.60115  0.26671  1.0000
  H   H2026     1.0  0.58171  0.53148  0.38448  1.0000
  N   N129      1.0  0.53200  0.55689  0.17427  1.0000
  C   C1274     1.0  0.53448  0.56580  0.19074  1.0000
  C   C1275     1.0  0.52782  0.56203  0.14927  1.0000
  C   C1276     1.0  0.52280  0.54639  0.19321  1.0000
  C   C1277     1.0  0.54291  0.55336  0.16392  1.0000
  H   H2027     1.0  0.54146  0.57382  0.17716  1.0000
  H   H2028     1.0  0.53754  0.56218  0.20994  1.0000
  H   H2029     1.0  0.52646  0.56876  0.19868  1.0000
  H   H2030     1.0  0.52577  0.55552  0.13644  1.0000
  H   H2031     1.0  0.51965  0.56486  0.15638  1.0000
  H   H2032     1.0  0.53455  0.56997  0.13449  1.0000
  H   H2033     1.0  0.65033  0.40200  0.07220  1.0000
  H   H2034     1.0  0.52063  0.53953  0.18136  1.0000
  H   H2035     1.0  0.51450  0.54879  0.20173  1.0000
  S   S497      1.0  0.58301  0.57714  0.21200  1.0000
  C   C1278     1.0  0.55942  0.51818  0.41274  1.0000
  H   H2036     1.0  0.65513  0.48195  0.47523  1.0000
  C   C1279     1.0  0.54795  0.62268  0.30037  1.0000
  H   H2037     1.0  0.57827  0.50405  0.43970  1.0000
  H   H2038     1.0  0.57240  0.44787  0.01332  1.0000
  S   S498      1.0  0.57676  0.52424  0.22394  1.0000
  H   H2039     1.0  0.63386  0.38293  0.31035  1.0000
  H   H2040     1.0  0.58318  0.53743  0.06817  1.0000
  H   H2041     1.0  0.56122  0.53059  0.17097  1.0000
  C   C1280     1.0  0.59803  0.53021  0.11911  1.0000
  H   H2042     1.0  0.62434  0.52074  0.27317  1.0000
  H   H2043     1.0  0.54950  0.61701  0.31962  1.0000
  Fe  Fe242     1.0  0.58322  0.53488  0.25330  1.0000
  H   H2044     1.0  0.54402  0.62959  0.30769  1.0000
  C   C1281     1.0  0.55103  0.52648  0.14149  1.0000
  C   C1282     1.0  0.55572  0.49651  0.16680  1.0000
  H   H2045     1.0  0.61009  0.53854  0.25748  1.0000
  H   H2046     1.0  0.55407  0.48935  0.18685  1.0000
  H   H2047     1.0  0.56794  0.51070  0.45794  1.0000
  S   S499      1.0  0.53873  0.51845  0.10535  1.0000
  C   C1283     1.0  0.57281  0.50867  0.38838  1.0000
  C   C1284     1.0  0.53034  0.51682  0.16290  1.0000
  C   C1285     1.0  0.59567  0.52718  0.31606  1.0000
  C   C1286     1.0  0.59981  0.53889  0.31707  1.0000
  H   H2048     1.0  0.57782  0.50552  0.01379  1.0000
  H   H2049     1.0  0.55564  0.50490  0.17317  1.0000
  H   H2050     1.0  0.55902  0.42724  0.48743  1.0000
  H   H2051     1.0  0.56282  0.49818  0.44430  1.0000
  H   H2052     1.0  0.55212  0.51225  0.05767  1.0000
  H   H2053     1.0  0.54804  0.49436  0.15743  1.0000
  H   H2054     1.0  0.65536  0.38568  0.30248  1.0000
  H   H2055     1.0  0.54803  0.48527  0.25123  1.0000
  C   C1287     1.0  0.60525  0.52435  0.10403  1.0000
  H   H2056     1.0  0.61886  0.51056  0.25344  1.0000
  H   H2057     1.0  0.66542  0.39799  0.27500  1.0000
  H   H2058     1.0  0.57522  0.48619  0.12429  1.0000
  H   H2059     1.0  0.60926  0.55048  0.33822  1.0000
  H   H2060     1.0  0.66945  0.42972  0.01909  1.0000
  Fe  Fe243     1.0  0.63461  0.37565  0.13786  1.0000
  S   S500      1.0  0.64539  0.39410  0.13453  1.0000
  S   S501      1.0  0.63547  0.36846  0.09843  1.0000
  H   H2061     1.0  0.60600  0.51343  0.37084  1.0000
  C   C1288     1.0  0.65471  0.39623  0.15777  1.0000
  H   H2062     1.0  0.66987  0.42809  0.08312  1.0000
  C   C1289     1.0  0.60833  0.53225  0.35730  1.0000
  Fe  Fe244     1.0  0.50931  0.61282  0.17924  1.0000
  H   H2063     1.0  0.62741  0.36197  0.99449  1.0000
  C   C1290     1.0  0.65662  0.38665  0.17637  1.0000
  H   H2064     1.0  0.63309  0.52288  0.20783  1.0000
  C   C1291     1.0  0.61882  0.36250  0.00556  1.0000
  H   H2065     1.0  0.65226  0.37772  0.17695  1.0000
  H   H2066     1.0  0.61563  0.36839  0.21828  1.0000
  C   C1292     1.0  0.61189  0.36989  0.26234  1.0000
  H   H2067     1.0  0.54561  0.50030  0.04409  1.0000
  Fe  Fe245     1.0  0.50678  0.60690  0.24588  1.0000
  H   H2068     1.0  0.64859  0.39795  0.23331  1.0000
  H   H2069     1.0  0.55364  0.43433  0.45864  1.0000
  C   C1293     1.0  0.59883  0.36334  0.00526  1.0000
  Fe  Fe246     1.0  0.61572  0.52313  0.42581  1.0000
  H   H2070     1.0  0.54205  0.47923  0.47604  1.0000
  H   H2071     1.0  0.65763  0.41054  0.24002  1.0000
  N   N130      1.0  0.65756  0.42087  0.06085  1.0000
  H   H2072     1.0  0.56317  0.52993  0.99816  1.0000
  N   N131      1.0  0.56204  0.51159  0.01643  1.0000
  H   H2073     1.0  0.65755  0.38568  0.26492  1.0000
  H   H2074     1.0  0.61241  0.53344  0.19870  1.0000
  H   H2075     1.0  0.65893  0.41529  0.14324  1.0000
  H   H2076     1.0  0.57702  0.52608  0.99240  1.0000
  C   C1294     1.0  0.53082  0.45009  0.48048  1.0000
  H   H2077     1.0  0.54736  0.45140  0.01564  1.0000
  H   H2078     1.0  0.54505  0.51508  0.02888  1.0000
  N   N132      1.0  0.62008  0.52883  0.23431  1.0000
  H   H2079     1.0  0.57021  0.52734  0.02726  1.0000
  S   S502      1.0  0.61451  0.34537  0.14078  1.0000
  H   H2080     1.0  0.57899  0.53035  0.42273  1.0000
  C   C1295     1.0  0.66046  0.40781  0.15727  1.0000
  H   H2081     1.0  0.54624  0.54936  0.18231  1.0000
  S   S503      1.0  0.63514  0.35880  0.16743  1.0000
  C   C1296     1.0  0.56211  0.41657  0.44384  1.0000
  Fe  Fe247     1.0  0.61542  0.35432  0.17659  1.0000
  Fe  Fe248     1.0  0.63422  0.35122  0.12939  1.0000
  H   H2082     1.0  0.62083  0.54743  0.22518  1.0000
  C   C1297     1.0  0.66089  0.49026  0.46148  1.0000
  H   H2083     1.0  0.54291  0.42213  0.43132  1.0000
  H   H2084     1.0  0.62359  0.36283  0.04586  1.0000
  Fe  Fe249     1.0  0.60474  0.51878  0.99372  1.0000
  C   C1298     1.0  0.61132  0.36383  0.24067  1.0000
  Fe  Fe250     1.0  0.61565  0.36318  0.11289  1.0000
  S   S504      1.0  0.61272  0.35988  0.45357  1.0000
  H   H2085     1.0  0.63896  0.53307  0.22703  1.0000
  C   C1299     1.0  0.63569  0.38808  0.28746  1.0000
  H   H2086     1.0  0.61657  0.37914  0.25644  1.0000
  H   H2087     1.0  0.53264  0.41411  0.46502  1.0000
  N   N133      1.0  0.64708  0.39718  0.27830  1.0000
  H   H2088     1.0  0.52576  0.54217  0.21207  1.0000
  C   C1300     1.0  0.60565  0.36380  0.04904  1.0000
  C   C1301     1.0  0.64701  0.40536  0.29729  1.0000
  C   C1302     1.0  0.65675  0.39135  0.28034  1.0000
  C   C1303     1.0  0.61910  0.53964  0.24390  1.0000
  H   H2089     1.0  0.65547  0.41242  0.29067  1.0000
  H   H2090     1.0  0.63554  0.38161  0.27394  1.0000
  C   C1304     1.0  0.60510  0.35191  0.24796  1.0000
  C   C1305     1.0  0.61801  0.51882  0.25985  1.0000
  C   C1306     1.0  0.55071  0.50972  0.03771  1.0000
  S   S505      1.0  0.60712  0.37189  0.31804  1.0000
  C   C1307     1.0  0.64755  0.42285  0.08088  1.0000
  C   C1308     1.0  0.60639  0.36401  0.29143  1.0000
  H   H2091     1.0  0.51637  0.64495  0.31001  1.0000
  H   H2092     1.0  0.64198  0.40874  0.24585  1.0000
  H   H2093     1.0  0.63974  0.40981  0.29655  1.0000
  S   S506      1.0  0.61479  0.37176  0.15001  1.0000
  C   C1309     1.0  0.64889  0.40391  0.24808  1.0000
  S   S507      1.0  0.60266  0.36483  0.08525  1.0000
  C   C1310     1.0  0.55977  0.50786  0.99058  1.0000
  S   S508      1.0  0.60353  0.34865  0.39261  1.0000
  C   C1311     1.0  0.61668  0.36297  0.03466  1.0000
  H   H2094     1.0  0.65018  0.43122  0.08736  1.0000
  H   H2095     1.0  0.56469  0.49485  0.03622  1.0000
  C   C1312     1.0  0.65629  0.50017  0.45584  1.0000
  H   H2096     1.0  0.63381  0.53831  0.19589  1.0000
  H   H2097     1.0  0.61173  0.51802  0.21006  1.0000
  H   H2098     1.0  0.60898  0.51692  0.27419  1.0000
  H   H2099     1.0  0.66105  0.40787  0.03795  1.0000
  H   H2100     1.0  0.56398  0.42412  0.42446  1.0000
  C   C1313     1.0  0.57055  0.45353  0.99455  1.0000
  C   C1314     1.0  0.66428  0.38863  0.19420  1.0000
  H   H2101     1.0  0.59192  0.36353  0.99407  1.0000
  H   H2102     1.0  0.64420  0.41554  0.10107  1.0000
  H   H2103     1.0  0.66764  0.34588  0.12888  1.0000
  H   H2104     1.0  0.61445  0.33982  0.99392  1.0000
  H   H2105     1.0  0.62952  0.34306  0.08302  1.0000
  H   H2106     1.0  0.54767  0.39667  0.48098  1.0000
  H   H2107     1.0  0.66570  0.38117  0.20858  1.0000
  H   H2108     1.0  0.66494  0.43940  0.04004  1.0000
  H   H2109     1.0  0.64002  0.42332  0.07095  1.0000
  C   C1315     1.0  0.50498  0.62821  0.04837  1.0000
  H   H2110     1.0  0.56465  0.43027  0.99609  1.0000
  H   H2111     1.0  0.50456  0.47189  0.02489  1.0000
  C   C1316     1.0  0.67010  0.40019  0.19351  1.0000
  H   H2112     1.0  0.66997  0.48110  0.37604  1.0000
  C   C1317     1.0  0.50363  0.63335  0.34820  1.0000
  C   C1318     1.0  0.56554  0.38867  0.87517  1.0000
  Fe  Fe251     1.0  0.59693  0.36026  0.86763  1.0000
  C   C1319     1.0  0.55315  0.39047  0.91885  1.0000
  C   C1320     1.0  0.56239  0.48437  0.55666  1.0000
  H   H2113     1.0  0.58321  0.34659  0.77348  1.0000
  H   H2114     1.0  0.66411  0.45409  0.92514  1.0000
  H   H2115     1.0  0.52832  0.65135  0.89235  1.0000
  S   S509      1.0  0.57783  0.35003  0.88115  1.0000
  C   C1321     1.0  0.55676  0.50498  0.79028  1.0000
  C   C1322     1.0  0.59672  0.36640  0.52840  1.0000
  H   H2116     1.0  0.54910  0.55757  0.71026  1.0000
  H   H2117     1.0  0.55349  0.50488  0.81336  1.0000
  H   H2118     1.0  0.54509  0.64242  0.88130  1.0000
  Fe  Fe252     1.0  0.52338  0.49390  0.61920  1.0000
  S   S510      1.0  0.53547  0.48217  0.61289  1.0000
  H   H2119     1.0  0.55678  0.46310  0.96569  1.0000
  Fe  Fe253     1.0  0.52486  0.47574  0.58341  1.0000
  S   S511      1.0  0.53396  0.47668  0.53674  1.0000
  Fe  Fe254     1.0  0.52176  0.46870  0.64995  1.0000
  S   S512      1.0  0.52899  0.45801  0.68356  1.0000
  S   S513      1.0  0.51388  0.48881  0.58688  1.0000
  H   H2120     1.0  0.61765  0.52769  0.60750  1.0000
  C   C1323     1.0  0.56022  0.38421  0.90482  1.0000
  Fe  Fe255     1.0  0.55830  0.45874  0.86483  1.0000
  S   S514      1.0  0.57564  0.47205  0.85545  1.0000
  H   H2121     1.0  0.55418  0.51290  0.98036  1.0000
  H   H2122     1.0  0.52847  0.50330  0.71895  1.0000
  H   H2123     1.0  0.63446  0.39323  0.51206  1.0000
  Fe  Fe256     1.0  0.53561  0.45229  0.84649  1.0000
  S   S515      1.0  0.52523  0.45930  0.81538  1.0000
  S   S516      1.0  0.55358  0.44971  0.83148  1.0000
  C   C1324     1.0  0.58290  0.49345  0.55156  1.0000
  C   C1325     1.0  0.57692  0.48401  0.93763  1.0000
  H   H2124     1.0  0.56650  0.50633  0.78592  1.0000
  C   C1326     1.0  0.56669  0.48044  0.90091  1.0000
  C   C1327     1.0  0.57626  0.47704  0.88647  1.0000
  C   C1328     1.0  0.58616  0.47717  0.89755  1.0000
  C   C1329     1.0  0.58651  0.48067  0.92310  1.0000
  H   H2125     1.0  0.59639  0.49051  0.82637  1.0000
  C   C1330     1.0  0.52846  0.45931  0.71948  1.0000
  C   C1331     1.0  0.52050  0.46462  0.73375  1.0000
  C   C1332     1.0  0.51974  0.46465  0.76295  1.0000
  C   C1333     1.0  0.52704  0.45957  0.77814  1.0000
  C   C1334     1.0  0.53533  0.45468  0.76357  1.0000
  C   C1335     1.0  0.53590  0.45440  0.73456  1.0000
  H   H2126     1.0  0.56814  0.50923  0.97397  1.0000
  H   H2127     1.0  0.51939  0.62191  0.55386  1.0000
  H   H2128     1.0  0.54117  0.45096  0.77476  1.0000
  H   H2129     1.0  0.54215  0.45035  0.72366  1.0000
  C   C1336     1.0  0.53273  0.46611  0.51594  1.0000
  C   C1337     1.0  0.52703  0.45412  0.52833  1.0000
  C   C1338     1.0  0.60603  0.49127  0.82304  1.0000
  S   S517      1.0  0.52614  0.44245  0.95830  1.0000
  H   H2130     1.0  0.55007  0.48309  0.82564  1.0000
  H   H2131     1.0  0.52348  0.45097  0.55151  1.0000
  H   H2132     1.0  0.65630  0.46174  0.86925  1.0000
  H   H2133     1.0  0.62302  0.34136  0.58744  1.0000
  S   S518      1.0  0.55400  0.44202  0.90002  1.0000
  H   H2134     1.0  0.58277  0.48767  0.57267  1.0000
  C   C1339     1.0  0.52725  0.45297  0.97938  1.0000
  H   H2135     1.0  0.55903  0.48037  0.89241  1.0000
  H   H2136     1.0  0.58748  0.35462  0.81444  1.0000
  Fe  Fe257     1.0  0.57631  0.36178  0.91210  1.0000
  H   H2137     1.0  0.54104  0.42987  0.77370  1.0000
  Fe  Fe258     1.0  0.59452  0.49941  0.96689  1.0000
  H   H2138     1.0  0.51034  0.42162  0.82127  1.0000
  S   S519      1.0  0.57975  0.34874  0.94812  1.0000
  Fe  Fe259     1.0  0.50488  0.58867  0.71980  1.0000
  C   C1340     1.0  0.55639  0.40530  0.87367  1.0000
  H   H2139     1.0  0.54578  0.40566  0.91452  1.0000
  C   C1341     1.0  0.51978  0.42622  0.81079  1.0000
  C   C1342     1.0  0.52331  0.41017  0.79008  1.0000
  S   S520      1.0  0.55326  0.41772  0.85259  1.0000
  H   H2140     1.0  0.54895  0.38705  0.94173  1.0000
  H   H2141     1.0  0.52330  0.49925  0.67491  1.0000
  Fe  Fe260     1.0  0.54767  0.43302  0.86782  1.0000
  H   H2142     1.0  0.52170  0.43689  0.52038  1.0000
  H   H2143     1.0  0.58573  0.48899  0.53441  1.0000
  C   C1343     1.0  0.50894  0.62062  0.59652  1.0000
  H   H2144     1.0  0.55965  0.48659  0.93759  1.0000
  H   H2145     1.0  0.59402  0.48042  0.93210  1.0000
  H   H2146     1.0  0.53832  0.46765  0.94460  1.0000
  H   H2147     1.0  0.54343  0.42568  0.49176  1.0000
  H   H2148     1.0  0.54921  0.47525  0.79818  1.0000
  C   C1344     1.0  0.55136  0.40104  0.90347  1.0000
  H   H2149     1.0  0.52272  0.43239  0.82374  1.0000
  H   H2150     1.0  0.57457  0.49921  0.50524  1.0000
  C   C1345     1.0  0.65839  0.40563  0.69951  1.0000
  S   S521      1.0  0.56147  0.37047  0.92466  1.0000
  H   H2151     1.0  0.54275  0.43019  0.80925  1.0000
  S   S522      1.0  0.63214  0.49120  0.97669  1.0000
  H   H2152     1.0  0.59340  0.47420  0.88689  1.0000
  C   C1346     1.0  0.55347  0.48374  0.80229  1.0000
  S   S523      1.0  0.59519  0.37261  0.89636  1.0000
  C   C1347     1.0  0.60110  0.35330  0.74709  1.0000
  H   H2153     1.0  0.60853  0.49479  0.87446  1.0000
  H   H2154     1.0  0.56166  0.47829  0.57788  1.0000
  Fe  Fe261     1.0  0.50717  0.60970  0.74698  1.0000
  H   H2155     1.0  0.52869  0.40365  0.78809  1.0000
  H   H2156     1.0  0.56736  0.40223  0.83658  1.0000
  H   H2157     1.0  0.55148  0.48626  0.74769  1.0000
  H   H2158     1.0  0.57091  0.38390  0.86405  1.0000
  H   H2159     1.0  0.51389  0.40510  0.79899  1.0000
  C   C1348     1.0  0.56349  0.39906  0.85964  1.0000
  H   H2160     1.0  0.53151  0.40391  0.83720  1.0000
  C   C1349     1.0  0.53964  0.42428  0.79595  1.0000
  N   N134      1.0  0.52713  0.41772  0.80868  1.0000
  H   H2161     1.0  0.56466  0.47973  0.53950  1.0000
  Fe  Fe262     1.0  0.59872  0.35886  0.93010  1.0000
  C   C1350     1.0  0.56706  0.48400  0.92640  1.0000
  C   C1351     1.0  0.52581  0.41021  0.83785  1.0000
  H   H2162     1.0  0.66604  0.47385  0.50882  1.0000
  H   H2163     1.0  0.53354  0.48448  0.78488  1.0000
  S   S524      1.0  0.52914  0.43502  0.88105  1.0000
  H   H2164     1.0  0.56311  0.48447  0.79835  1.0000
  H   H2165     1.0  0.56537  0.49559  0.74763  1.0000
  H   H2166     1.0  0.58885  0.36903  0.53673  1.0000
  N   N135      1.0  0.55101  0.49395  0.78392  1.0000
  C   C1352     1.0  0.59450  0.35590  0.79539  1.0000
  H   H2167     1.0  0.51358  0.63469  0.78081  1.0000
  C   C1353     1.0  0.52609  0.44615  0.51065  1.0000
  H   H2168     1.0  0.61360  0.39527  0.57726  1.0000
  S   S525      1.0  0.59810  0.34692  0.71916  1.0000
  C   C1354     1.0  0.57185  0.50340  0.52300  1.0000
  C   C1355     1.0  0.55566  0.49448  0.75312  1.0000
  S   S526      1.0  0.54083  0.46281  0.87749  1.0000
  C   C1356     1.0  0.59208  0.35144  0.77214  1.0000
  Fe  Fe263     1.0  0.53597  0.44544  0.91089  1.0000
  H   H2169     1.0  0.54550  0.41816  0.79489  1.0000
  H   H2170     1.0  0.51653  0.40497  0.84807  1.0000
  S   S527      1.0  0.60214  0.34754  0.89972  1.0000
  H   H2171     1.0  0.52423  0.41556  0.76784  1.0000
  N   N136      1.0  0.57124  0.49572  0.55143  1.0000
  H   H2172     1.0  0.55351  0.48578  0.55671  1.0000
  H   H2173     1.0  0.51622  0.64392  0.92303  1.0000
  Fe  Fe264     1.0  0.61225  0.52150  0.92711  1.0000
  H   H2174     1.0  0.55389  0.50206  0.73865  1.0000
  H   H2175     1.0  0.56720  0.49612  0.59614  1.0000
  H   H2176     1.0  0.60949  0.49089  0.80043  1.0000
  H   H2177     1.0  0.55507  0.51290  0.77688  1.0000
  H   H2178     1.0  0.58979  0.50184  0.54763  1.0000
  H   H2179     1.0  0.56315  0.50515  0.52209  1.0000
  C   C1357     1.0  0.56783  0.50168  0.57434  1.0000
  C   C1358     1.0  0.65551  0.50367  0.94885  1.0000
  H   H2180     1.0  0.50782  0.46639  0.55940  1.0000
  Fe  Fe265     1.0  0.52758  0.60751  0.70102  1.0000
  S   S528      1.0  0.51842  0.62225  0.70451  1.0000
  S   S529      1.0  0.54734  0.61062  0.68434  1.0000
  C   C1359     1.0  0.50536  0.65798  0.51404  1.0000
  S   S530      1.0  0.51025  0.48100  0.65800  1.0000
  S   S531      1.0  0.51722  0.59575  0.74452  1.0000
  S   S532      1.0  0.51589  0.59930  0.67584  1.0000
  Fe  Fe266     1.0  0.56316  0.53340  0.71936  1.0000
  S   S533      1.0  0.54445  0.52286  0.72772  1.0000
  H   H2181     1.0  0.59233  0.51858  0.89088  1.0000
  S   S534      1.0  0.57426  0.54626  0.67802  1.0000
  S   S535      1.0  0.56716  0.54536  0.74778  1.0000
  S   S536      1.0  0.57691  0.48743  0.97074  1.0000
  H   H2182     1.0  0.54154  0.55120  0.67100  1.0000
  H   H2183     1.0  0.61955  0.58921  0.60351  1.0000
  H   H2184     1.0  0.51552  0.61830  0.60728  1.0000
  H   H2185     1.0  0.59454  0.55556  0.62687  1.0000
  H   H2186     1.0  0.55299  0.53599  0.66769  1.0000
  C   C1360     1.0  0.52322  0.62790  0.89763  1.0000
  S   S537      1.0  0.53072  0.51316  0.61528  1.0000
  H   H2187     1.0  0.58296  0.59870  0.64959  1.0000
  C   C1361     1.0  0.54655  0.52796  0.66933  1.0000
  H   H2188     1.0  0.53034  0.53938  0.69738  1.0000
  C   C1362     1.0  0.60726  0.50235  0.85893  1.0000
  H   H2189     1.0  0.50961  0.56948  0.63053  1.0000
  C   C1363     1.0  0.50601  0.52764  0.66184  1.0000
  H   H2190     1.0  0.51590  0.64839  0.81262  1.0000
  H   H2191     1.0  0.54385  0.57223  0.67594  1.0000
  C   C1364     1.0  0.60905  0.54030  0.83164  1.0000
  C   C1365     1.0  0.51932  0.55316  0.72392  1.0000
  C   C1366     1.0  0.53244  0.54885  0.68530  1.0000
  C   C1367     1.0  0.55616  0.60035  0.68615  1.0000
  C   C1368     1.0  0.55327  0.58980  0.70820  1.0000
  C   C1369     1.0  0.56113  0.58238  0.70889  1.0000
  C   C1370     1.0  0.57186  0.58551  0.68755  1.0000
  C   C1371     1.0  0.56690  0.60337  0.66517  1.0000
  H   H2192     1.0  0.54525  0.58765  0.72525  1.0000
  H   H2193     1.0  0.55921  0.57459  0.72657  1.0000
  H   H2194     1.0  0.55584  0.43154  0.97040  1.0000
  C   C1372     1.0  0.53398  0.46467  0.96748  1.0000
  N   N137      1.0  0.53150  0.55656  0.70532  1.0000
  H   H2195     1.0  0.51277  0.55374  0.71083  1.0000
  S   S538      1.0  0.59502  0.51856  0.95873  1.0000
  H   H2196     1.0  0.53013  0.65063  0.92843  1.0000
  H   H2197     1.0  0.59762  0.50173  0.86354  1.0000
  C   C1373     1.0  0.66776  0.50460  0.94129  1.0000
  H   H2198     1.0  0.50438  0.65218  0.57026  1.0000
  C   C1374     1.0  0.52590  0.64558  0.91480  1.0000
  C   C1375     1.0  0.52583  0.62701  0.94578  1.0000
  H   H2199     1.0  0.65858  0.46468  0.54452  1.0000
  H   H2200     1.0  0.58300  0.53337  0.57111  1.0000
  S   S539      1.0  0.59854  0.52751  0.52654  1.0000
  C   C1376     1.0  0.59093  0.53034  0.82184  1.0000
  C   C1377     1.0  0.54329  0.52588  0.64451  1.0000
  H   H2201     1.0  0.62592  0.57152  0.59318  1.0000
  C   C1378     1.0  0.51019  0.63953  0.82158  1.0000
  H   H2202     1.0  0.51814  0.55907  0.73862  1.0000
  H   H2203     1.0  0.61744  0.54689  0.82416  1.0000
  S   S540      1.0  0.60244  0.53446  0.65116  1.0000
  H   H2204     1.0  0.56933  0.61157  0.64839  1.0000
  H   H2205     1.0  0.52895  0.57025  0.67272  1.0000
  H   H2206     1.0  0.51104  0.57613  0.67469  1.0000
  S   S541      1.0  0.50513  0.64635  0.87242  1.0000
  C   C1379     1.0  0.60162  0.53911  0.81273  1.0000
  C   C1380     1.0  0.60089  0.53196  0.61721  1.0000
  C   C1381     1.0  0.54220  0.63687  0.90404  1.0000
  C   C1382     1.0  0.58759  0.52310  0.85031  1.0000
  H   H2207     1.0  0.51696  0.54391  0.73763  1.0000
  H   H2208     1.0  0.53934  0.56082  0.73901  1.0000
  C   C1383     1.0  0.61111  0.56874  0.64483  1.0000
  H   H2209     1.0  0.60510  0.57162  0.66102  1.0000
  C   C1384     1.0  0.60586  0.53280  0.85980  1.0000
  H   H2210     1.0  0.57441  0.51026  0.57097  1.0000
  H   H2211     1.0  0.53792  0.54579  0.73647  1.0000
  H   H2212     1.0  0.62488  0.40275  0.59181  1.0000
  S   S542      1.0  0.57719  0.52405  0.72556  1.0000
  Fe  Fe267     1.0  0.57957  0.55759  0.70694  1.0000
  H   H2213     1.0  0.59391  0.56702  0.59760  1.0000
  C   C1385     1.0  0.54116  0.51989  0.69622  1.0000
  H   H2214     1.0  0.61000  0.55908  0.65325  1.0000
  H   H2215     1.0  0.58395  0.53577  0.61997  1.0000
  C   C1386     1.0  0.57465  0.59605  0.66585  1.0000
  S   S543      1.0  0.58204  0.52709  0.79794  1.0000
  C   C1387     1.0  0.53441  0.56904  0.68844  1.0000
  C   C1388     1.0  0.59109  0.53344  0.60680  1.0000
  H   H2216     1.0  0.57936  0.51627  0.85762  1.0000
  H   H2217     1.0  0.53284  0.57503  0.70270  1.0000
  C   C1389     1.0  0.53266  0.50959  0.69819  1.0000
  C   C1390     1.0  0.62290  0.39629  0.57882  1.0000
  S   S544      1.0  0.58257  0.57720  0.68747  1.0000
  H   H2218     1.0  0.52999  0.63171  0.96013  1.0000
  C   C1391     1.0  0.61031  0.58431  0.60567  1.0000
  C   C1392     1.0  0.50891  0.63177  0.80347  1.0000
  Fe  Fe268     1.0  0.58200  0.53671  0.75231  1.0000
  H   H2219     1.0  0.66829  0.42136  0.66615  1.0000
  C   C1393     1.0  0.53982  0.55513  0.72359  1.0000
  H   H2220     1.0  0.52557  0.61937  0.89751  1.0000
  H   H2221     1.0  0.52004  0.67010  0.53887  1.0000
  N   N138      1.0  0.52929  0.63433  0.91557  1.0000
  C   C1394     1.0  0.59968  0.52890  0.56157  1.0000
  S   S545      1.0  0.59496  0.55004  0.71349  1.0000
  H   H2222     1.0  0.65972  0.46519  0.94152  1.0000
  H   H2223     1.0  0.58991  0.56830  0.63414  1.0000
  Fe  Fe269     1.0  0.60896  0.52023  0.49243  1.0000
  H   H2224     1.0  0.61531  0.55741  0.60330  1.0000
  H   H2225     1.0  0.54735  0.53224  0.62379  1.0000
  Fe  Fe270     1.0  0.58883  0.53800  0.68633  1.0000
  C   C1395     1.0  0.59495  0.52437  0.86925  1.0000
  S   S546      1.0  0.51193  0.46124  0.61975  1.0000
  C   C1396     1.0  0.59055  0.53202  0.57907  1.0000
  H   H2226     1.0  0.62032  0.57330  0.64385  1.0000
  C   C1397     1.0  0.53494  0.51549  0.64637  1.0000
  H   H2227     1.0  0.65216  0.51118  0.94137  1.0000
  C   C1398     1.0  0.52971  0.50730  0.67320  1.0000
  C   C1399     1.0  0.59617  0.56532  0.61880  1.0000
  H   H2228     1.0  0.53600  0.50028  0.77681  1.0000
  C   C1400     1.0  0.61002  0.52885  0.59971  1.0000
  H   H2229     1.0  0.57839  0.51209  0.51840  1.0000
  H   H2230     1.0  0.59463  0.33907  0.84549  1.0000
  H   H2231     1.0  0.60433  0.54473  0.79091  1.0000
  C   C1401     1.0  0.65220  0.48343  0.97594  1.0000
  H   H2232     1.0  0.60699  0.48330  0.83783  1.0000
  H   H2233     1.0  0.53423  0.49184  0.81320  1.0000
  C   C1402     1.0  0.53813  0.49259  0.79000  1.0000
  H   H2234     1.0  0.66409  0.48738  0.87231  1.0000
  H   H2235     1.0  0.66979  0.45782  0.87207  1.0000
  Fe  Fe271     1.0  0.63204  0.37487  0.63678  1.0000
  S   S547      1.0  0.64433  0.39313  0.62718  1.0000
  S   S548      1.0  0.61096  0.50168  0.50104  1.0000
  S   S549      1.0  0.63242  0.36682  0.59889  1.0000
  S   S550      1.0  0.63111  0.35788  0.66842  1.0000
  H   H2236     1.0  0.52851  0.41563  0.85253  1.0000
  H   H2237     1.0  0.62659  0.49561  0.83827  1.0000
  C   C1403     1.0  0.64967  0.39774  0.65533  1.0000
  C   C1404     1.0  0.66211  0.41277  0.67114  1.0000
  S   S551      1.0  0.62254  0.52348  0.96095  1.0000
  H   H2238     1.0  0.54703  0.64173  0.91709  1.0000
  C   C1405     1.0  0.65033  0.39452  0.70568  1.0000
  C   C1406     1.0  0.64597  0.39058  0.68369  1.0000
  H   H2239     1.0  0.51233  0.65354  0.51880  1.0000
  H   H2240     1.0  0.64752  0.38886  0.72743  1.0000
  H   H2241     1.0  0.63977  0.38202  0.68868  1.0000
  H   H2242     1.0  0.62515  0.35761  0.49787  1.0000
  C   C1407     1.0  0.60600  0.36196  0.79389  1.0000
  H   H2243     1.0  0.61949  0.36124  0.72596  1.0000
  S   S552      1.0  0.60984  0.34542  0.64131  1.0000
  H   H2244     1.0  0.56653  0.45771  0.94158  1.0000
  H   H2245     1.0  0.61456  0.52105  0.81286  1.0000
  H   H2246     1.0  0.61919  0.38974  0.53149  1.0000
  H   H2247     1.0  0.51468  0.46840  0.72255  1.0000
  C   C1408     1.0  0.65972  0.48028  0.89260  1.0000
  H   H2248     1.0  0.64199  0.41474  0.75193  1.0000
  C   C1409     1.0  0.60463  0.36481  0.54564  1.0000
  C   C1410     1.0  0.51112  0.62269  0.56616  1.0000
  N   N139      1.0  0.62893  0.40126  0.78600  1.0000
  C   C1411     1.0  0.63700  0.39379  0.79229  1.0000
  C   C1412     1.0  0.62028  0.40041  0.81315  1.0000
  C   C1413     1.0  0.62265  0.39714  0.76533  1.0000
  H   H2249     1.0  0.63213  0.38430  0.80149  1.0000
  H   H2250     1.0  0.64180  0.39654  0.80807  1.0000
  H   H2251     1.0  0.64378  0.39439  0.77241  1.0000
  Fe  Fe272     1.0  0.62959  0.34966  0.63146  1.0000
  H   H2252     1.0  0.61391  0.40576  0.80923  1.0000
  H   H2253     1.0  0.62473  0.40352  0.82915  1.0000
  H   H2254     1.0  0.61669  0.40273  0.75955  1.0000
  C   C1414     1.0  0.61476  0.36139  0.53472  1.0000
  H   H2255     1.0  0.62088  0.36007  0.54785  1.0000
  C   C1415     1.0  0.63581  0.41371  0.77319  1.0000
  Fe  Fe273     1.0  0.61144  0.35492  0.67603  1.0000
  C   C1416     1.0  0.59894  0.36465  0.50036  1.0000
  S   S553      1.0  0.66341  0.41044  0.72785  1.0000
  H   H2256     1.0  0.65007  0.40359  0.53218  1.0000
  H   H2257     1.0  0.61165  0.51058  0.86392  1.0000
  H   H2258     1.0  0.55909  0.50362  0.57477  1.0000
  H   H2259     1.0  0.60838  0.58664  0.58418  1.0000
  H   H2260     1.0  0.50761  0.50633  0.65332  1.0000
  H   H2261     1.0  0.62387  0.36872  0.76730  1.0000
  H   H2262     1.0  0.61504  0.39110  0.82355  1.0000
  Fe  Fe274     1.0  0.50592  0.61290  0.68217  1.0000
  C   C1417     1.0  0.60925  0.36159  0.48914  1.0000
  H   H2263     1.0  0.64125  0.41693  0.78735  1.0000
  S   S554      1.0  0.60196  0.36797  0.57981  1.0000
  H   H2264     1.0  0.60071  0.51209  0.81189  1.0000
  H   H2265     1.0  0.65032  0.45757  0.92315  1.0000
  N   N140      1.0  0.63131  0.39986  0.55000  1.0000
  H   H2266     1.0  0.51345  0.62589  0.90567  1.0000
  H   H2267     1.0  0.62998  0.41969  0.76939  1.0000
  H   H2268     1.0  0.63262  0.41839  0.54540  1.0000
  N   N141      1.0  0.60854  0.57139  0.61620  1.0000
  Fe  Fe275     1.0  0.61275  0.36335  0.61156  1.0000
  C   C1418     1.0  0.61250  0.35974  0.74522  1.0000
  H   H2269     1.0  0.66271  0.34229  0.62798  1.0000
  C   C1419     1.0  0.61496  0.36400  0.76864  1.0000
  H   H2270     1.0  0.54509  0.62857  0.90423  1.0000
  S   S555      1.0  0.61288  0.36162  0.95454  1.0000
  H   H2271     1.0  0.62334  0.38763  0.59141  1.0000
  S   S556      1.0  0.61244  0.37255  0.64742  1.0000
  C   C1420     1.0  0.61715  0.35998  0.50642  1.0000
  H   H2272     1.0  0.61713  0.38788  0.77459  1.0000
  C   C1421     1.0  0.64343  0.40084  0.55343  1.0000
  H   H2273     1.0  0.62891  0.38204  0.54569  1.0000
  C   C1422     1.0  0.62837  0.39087  0.53401  1.0000
  H   H2274     1.0  0.60439  0.58767  0.62093  1.0000
  C   C1423     1.0  0.63048  0.41143  0.53383  1.0000
  C   C1424     1.0  0.64766  0.49307  0.96635  1.0000
  H   H2275     1.0  0.51613  0.62484  0.95508  1.0000
  H   H2276     1.0  0.52838  0.61850  0.94738  1.0000
  C   C1425     1.0  0.60938  0.52722  0.57217  1.0000
  H   H2277     1.0  0.62965  0.51148  0.82788  1.0000
  H   H2278     1.0  0.62895  0.39734  0.74493  1.0000
  H   H2279     1.0  0.52630  0.54967  0.67113  1.0000
  H   H2280     1.0  0.65676  0.49001  0.51949  1.0000
  H   H2281     1.0  0.52550  0.63327  0.87478  1.0000
  S   S557      1.0  0.60962  0.36685  0.82329  1.0000
  C   C1426     1.0  0.66664  0.47171  0.53162  1.0000
  H   H2282     1.0  0.57130  0.43888  0.95937  1.0000
  H   H2283     1.0  0.64585  0.40737  0.56597  1.0000
  S   S558      1.0  0.61114  0.50214  0.93286  1.0000
  H   H2284     1.0  0.61394  0.51293  0.78583  1.0000
  N   N142      1.0  0.61212  0.50233  0.82863  1.0000
  C   C1427     1.0  0.61027  0.51255  0.80892  1.0000
  C   C1428     1.0  0.62489  0.50319  0.82367  1.0000
  H   H2285     1.0  0.61473  0.56888  0.57391  1.0000
  H   H2286     1.0  0.61649  0.52486  0.55898  1.0000
  H   H2287     1.0  0.62890  0.50327  0.80097  1.0000
  C   C1429     1.0  0.61649  0.56715  0.59569  1.0000
  S   S559      1.0  0.61615  0.53349  0.88150  1.0000
  H   H2288     1.0  0.64436  0.39224  0.56556  1.0000
  C   C1430     1.0  0.65774  0.40884  0.64915  1.0000
  H   H2289     1.0  0.54073  0.48149  0.97585  1.0000
  Fe  Fe276     1.0  0.62025  0.50365  0.96853  1.0000
  C   C1431     1.0  0.53535  0.47251  0.98529  1.0000
  C   C1432     1.0  0.66874  0.47901  0.57334  1.0000
  H   H2290     1.0  0.51331  0.46849  0.77395  1.0000
  H   H2291     1.0  0.52025  0.43177  0.78908  1.0000
  H   H2292     1.0  0.55559  0.40534  0.50034  1.0000
  H   H2293     1.0  0.50864  0.66364  0.49145  1.0000
  C   C1433     1.0  0.66442  0.48436  0.96844  1.0000
  H   H2294     1.0  0.64918  0.48056  0.55471  1.0000
  H   H2295     1.0  0.62142  0.41096  0.53096  1.0000
  H   H2296     1.0  0.65983  0.48451  0.91092  1.0000
  H   H2297     1.0  0.50996  0.52238  0.61049  1.0000
  H   H2298     1.0  0.55105  0.45054  0.95327  1.0000
  N   N143      1.0  0.66574  0.47062  0.89514  1.0000
  H   H2299     1.0  0.51530  0.52734  0.65345  1.0000
  C   C1434     1.0  0.65756  0.48719  0.54204  1.0000
  H   H2300     1.0  0.57876  0.45666  0.97660  1.0000
  H   H2301     1.0  0.65817  0.49512  0.55086  1.0000
  H   H2302     1.0  0.65031  0.47698  0.89275  1.0000
  H   H2303     1.0  0.66776  0.47695  0.97654  1.0000
  H   H2304     1.0  0.50965  0.47145  0.52130  1.0000
  H   H2305     1.0  0.63671  0.41439  0.51193  1.0000
  S   S560      1.0  0.50623  0.62876  0.51315  1.0000
  H   H2306     1.0  0.66065  0.41442  0.62726  1.0000
  C   C1435     1.0  0.55866  0.45495  0.96038  1.0000
  H   H2307     1.0  0.50552  0.53695  0.65425  1.0000
  C   C1436     1.0  0.66549  0.46529  0.87040  1.0000
  N   N144      1.0  0.56056  0.44710  0.98556  1.0000
  C   C1437     1.0  0.56322  0.43647  0.97755  1.0000
  N   N145      1.0  0.66792  0.48233  0.54306  1.0000
  H   H2308     1.0  0.50402  0.52536  0.68586  1.0000
  C   C1438     1.0  0.65969  0.46145  0.92244  1.0000
  H   H2309     1.0  0.66066  0.47228  0.58743  1.0000
  H   H2310     1.0  0.53999  0.40375  0.50504  1.0000
  C   C1439     1.0  0.50392  0.63601  0.85092  1.0000
  C   C1440     1.0  0.54842  0.40485  0.48889  1.0000
  H   H2311     1.0  0.66991  0.48681  0.58264  1.0000
  C   C1441     1.0  0.67022  0.33964  0.63539  1.0000
  Fe  Fe277     1.0  0.51435  0.95641  0.01801  1.0000
  Fe  Fe278     1.0  0.54273  0.99713  0.17056  1.0000
  S   S561      1.0  0.52992  0.98503  0.21109  1.0000
  S   S562      1.0  0.54563  0.99279  0.12588  1.0000
  H   H2312     1.0  0.50963  0.98694  0.09341  1.0000
  Fe  Fe279     1.0  0.54248  0.99229  0.23568  1.0000
  S   S563      1.0  0.54745  0.98113  0.27309  1.0000
  H   H2313     1.0  0.51126  0.00023  0.06631  1.0000
  Fe  Fe280     1.0  0.51905  0.95966  0.44999  1.0000
  H   H2314     1.0  0.52979  0.94804  0.40773  1.0000
  S   S564      1.0  0.52911  0.97409  0.40844  1.0000
  C   C1442     1.0  0.51644  0.92894  0.39899  1.0000
  H   H2315     1.0  0.53760  0.97867  0.04155  1.0000
  H   H2316     1.0  0.51332  0.93702  0.39265  1.0000
  H   H2317     1.0  0.53055  0.91453  0.39007  1.0000
  H   H2318     1.0  0.52873  0.91611  0.42630  1.0000
  H   H2319     1.0  0.54493  0.94033  0.35975  1.0000
  C   C1443     1.0  0.53515  0.93778  0.36380  1.0000
  H   H2320     1.0  0.52887  0.93540  0.43611  1.0000
  Fe  Fe281     1.0  0.51215  0.93367  0.48351  1.0000
  C   C1444     1.0  0.53706  0.98335  0.10903  1.0000
  C   C1445     1.0  0.54103  0.98444  0.07912  1.0000
  C   C1446     1.0  0.53437  0.97760  0.06452  1.0000
  C   C1447     1.0  0.52357  0.96945  0.07959  1.0000
  C   C1448     1.0  0.51965  0.96826  0.10958  1.0000
  C   C1449     1.0  0.52632  0.97510  0.12417  1.0000
  H   H2321     1.0  0.54933  0.99070  0.06704  1.0000
  H   H2322     1.0  0.51889  0.98200  0.36118  1.0000
  H   H2323     1.0  0.52315  0.97393  0.14720  1.0000
  C   C1450     1.0  0.54061  0.97735  0.31087  1.0000
  C   C1451     1.0  0.53047  0.98070  0.32235  1.0000
  C   C1452     1.0  0.52633  0.97879  0.35262  1.0000
  C   C1453     1.0  0.53210  0.97328  0.37178  1.0000
  C   C1454     1.0  0.54203  0.96966  0.36019  1.0000
  C   C1455     1.0  0.54618  0.97159  0.33006  1.0000
  H   H2324     1.0  0.52608  0.98516  0.30790  1.0000
  N   N146      1.0  0.51005  0.00248  0.10937  1.0000
  H   H2325     1.0  0.54695  0.96597  0.37441  1.0000
  H   H2326     1.0  0.55410  0.96908  0.32149  1.0000
  H   H2327     1.0  0.51190  0.92464  0.42210  1.0000
  H   H2328     1.0  0.54254  0.94247  0.40946  1.0000
  S   S565      1.0  0.51434  0.96093  0.06219  1.0000
  C   C1456     1.0  0.53304  0.92081  0.40312  1.0000
  H   H2329     1.0  0.50990  0.98783  0.14339  1.0000
  H   H2330     1.0  0.54275  0.92264  0.40041  1.0000
  H   H2331     1.0  0.51105  0.00164  0.15322  1.0000
  H   H2332     1.0  0.51137  0.96198  0.12170  1.0000
  H   H2333     1.0  0.53286  0.93195  0.34958  1.0000
  Fe  Fe282     1.0  0.52310  0.00098  0.21441  1.0000
  H   H2334     1.0  0.53236  0.94602  0.35671  1.0000
  C   C1457     1.0  0.53281  0.93980  0.41270  1.0000
  N   N147      1.0  0.52938  0.93184  0.39460  1.0000
  H   H2335     1.0  0.51344  0.92271  0.38625  1.0000
  C   C1458     1.0  0.51378  0.99755  0.13529  1.0000
  H   H2336     1.0  0.55290  0.99884  0.31783  1.0000
  S   S566      1.0  0.52723  0.94922  0.48105  1.0000
  S   S567      1.0  0.55633  0.00332  0.19473  1.0000
  H   H2337     1.0  0.56780  0.00175  0.27186  1.0000
  C   C1459     1.0  0.51376  0.99665  0.08641  1.0000
  H   H2338     1.0  0.51189  0.89259  0.99546  1.0000
  H   H2339     1.0  0.50669  0.97881  0.21378  1.0000
  H   H2340     1.0  0.52350  0.99787  0.08068  1.0000
  H   H2341     1.0  0.52354  0.99908  0.13061  1.0000
  S   S568      1.0  0.51355  0.91487  0.48354  1.0000
  H   H2342     1.0  0.54353  0.00455  0.29743  1.0000
  S   S569      1.0  0.50755  0.96475  0.48579  1.0000
  S   S570      1.0  0.50502  0.94391  0.45034  1.0000
  S   S571      1.0  0.50415  0.00162  0.22197  1.0000
  C   C1460     1.0  0.52345  0.93177  0.89823  1.0000
  H   H2343     1.0  0.51361  0.95715  0.62129  1.0000
  Fe  Fe283     1.0  0.51485  0.95348  0.51698  1.0000
  Fe  Fe284     1.0  0.54087  0.99585  0.66903  1.0000
  S   S572      1.0  0.52635  0.98536  0.70813  1.0000
  S   S573      1.0  0.54441  0.99165  0.62419  1.0000
  Fe  Fe285     1.0  0.53827  0.99171  0.73537  1.0000
  S   S574      1.0  0.53718  0.97726  0.77566  1.0000
  Fe  Fe286     1.0  0.51940  0.96204  0.95062  1.0000
  S   S575      1.0  0.51585  0.95708  0.56149  1.0000
  S   S576      1.0  0.53057  0.97605  0.90951  1.0000
  Fe  Fe287     1.0  0.52110  0.00225  0.70836  1.0000
  H   H2344     1.0  0.50915  0.88943  0.49682  1.0000
  H   H2345     1.0  0.51652  0.68021  0.51122  1.0000
  C   C1461     1.0  0.53675  0.98146  0.60747  1.0000
  C   C1462     1.0  0.54032  0.98325  0.57720  1.0000
  C   C1463     1.0  0.53416  0.97589  0.56275  1.0000
  C   C1464     1.0  0.52443  0.96643  0.57841  1.0000
  C   C1465     1.0  0.52105  0.96446  0.60875  1.0000
  C   C1466     1.0  0.52708  0.97193  0.62314  1.0000
  H   H2346     1.0  0.54783  0.99050  0.56474  1.0000
  C   C1467     1.0  0.50545  0.90685  0.97505  1.0000
  H   H2347     1.0  0.52424  0.97028  0.64642  1.0000
  C   C1468     1.0  0.53392  0.97777  0.81260  1.0000
  C   C1469     1.0  0.53926  0.98753  0.82135  1.0000
  C   C1470     1.0  0.53793  0.98693  0.85105  1.0000
  C   C1471     1.0  0.53103  0.97670  0.87246  1.0000
  C   C1472     1.0  0.52522  0.96714  0.86376  1.0000
  C   C1473     1.0  0.52686  0.96758  0.83404  1.0000
  H   H2348     1.0  0.54486  0.99535  0.80521  1.0000
  H   H2349     1.0  0.54247  0.99439  0.85746  1.0000
  H   H2350     1.0  0.51966  0.95935  0.87992  1.0000
  H   H2351     1.0  0.52271  0.95998  0.82753  1.0000
  H   H2352     1.0  0.53699  0.97754  0.53949  1.0000
  C   C1474     1.0  0.54073  0.92627  0.90848  1.0000
  H   H2353     1.0  0.52345  0.99619  0.57819  1.0000
  H   H2354     1.0  0.53163  0.93940  0.94025  1.0000
  H   H2355     1.0  0.52254  0.92557  0.88417  1.0000
  H   H2356     1.0  0.51950  0.93907  0.89044  1.0000
  H   H2357     1.0  0.55227  0.94650  0.86765  1.0000
  S   S577      1.0  0.55362  0.00126  0.69582  1.0000
  H   H2358     1.0  0.51802  0.92689  0.92044  1.0000
  H   H2359     1.0  0.53281  0.95185  0.91098  1.0000
  N   N148      1.0  0.53591  0.93633  0.89814  1.0000
  C   C1475     1.0  0.54281  0.94298  0.86848  1.0000
  H   H2360     1.0  0.51911  0.99126  0.63114  1.0000
  H   H2361     1.0  0.53946  0.95072  0.86030  1.0000
  H   H2362     1.0  0.55008  0.92937  0.90912  1.0000
  H   H2363     1.0  0.54039  0.92007  0.89431  1.0000
  H   H2364     1.0  0.54238  0.93733  0.85303  1.0000
  H   H2365     1.0  0.53561  0.92108  0.93083  1.0000
  C   C1476     1.0  0.53658  0.94426  0.91765  1.0000
  H   H2366     1.0  0.54585  0.94804  0.91791  1.0000
  C   C1477     1.0  0.51292  0.67414  0.53335  1.0000
  H   H2367     1.0  0.51093  0.67964  0.54864  1.0000
  C   C1478     1.0  0.51256  0.99662  0.63156  1.0000
  H   H2368     1.0  0.50561  0.99240  0.65191  1.0000
  H   H2369     1.0  0.50683  0.97908  0.60640  1.0000
  Fe  Fe288     1.0  0.51286  0.93631  0.98498  1.0000
  H   H2370     1.0  0.51391  0.00269  0.55978  1.0000
  C   C1479     1.0  0.51729  0.00200  0.57949  1.0000
  S   S578      1.0  0.50587  0.94595  0.95055  1.0000
  N   N149      1.0  0.50758  0.99722  0.60615  1.0000
  S   S579      1.0  0.50735  0.96720  0.98507  1.0000
  S   S580      1.0  0.52737  0.95222  0.98332  1.0000
  C   C1480     1.0  0.50594  0.89497  0.98264  1.0000
  S   S581      1.0  0.51518  0.91781  0.98504  1.0000
  Fe  Fe289     1.0  0.70173  0.26006  0.41155  1.0000
  S   S582      1.0  0.69603  0.24089  0.40695  1.0000
  H   H2371     1.0  0.67089  0.24145  0.42121  1.0000
  N   N150      1.0  0.73833  0.32014  0.34011  1.0000
  H   H2372     1.0  0.73029  0.30175  0.34491  1.0000
  C   C1481     1.0  0.68237  0.23057  0.40945  1.0000
  C   C1482     1.0  0.67576  0.24251  0.33529  1.0000
  H   H2373     1.0  0.69025  0.32871  0.12194  1.0000
  H   H2374     1.0  0.74532  0.31797  0.04589  1.0000
  H   H2375     1.0  0.67274  0.19509  0.47932  1.0000
  H   H2376     1.0  0.69104  0.21742  0.39809  1.0000
  H   H2377     1.0  0.75659  0.32575  0.17712  1.0000
  C   C1483     1.0  0.68264  0.21955  0.40343  1.0000
  H   H2378     1.0  0.71956  0.31643  0.35727  1.0000
  H   H2379     1.0  0.67268  0.20296  0.39888  1.0000
  H   H2380     1.0  0.74940  0.33701  0.33865  1.0000
  H   H2381     1.0  0.73878  0.30447  0.37033  1.0000
  H   H2382     1.0  0.69464  0.26088  0.01300  1.0000
  C   C1484     1.0  0.73062  0.26897  0.03635  1.0000
  S   S583      1.0  0.68593  0.28320  0.48121  1.0000
  H   H2383     1.0  0.68951  0.26866  0.34571  1.0000
  N   N151      1.0  0.68487  0.25387  0.32770  1.0000
  C   C1485     1.0  0.69991  0.27509  0.06481  1.0000
  H   H2384     1.0  0.75016  0.32487  0.36617  1.0000
  S   S584      1.0  0.71994  0.32759  0.11341  1.0000
  C   C1486     1.0  0.74764  0.32509  0.17332  1.0000
  C   C1487     1.0  0.74185  0.30378  0.19085  1.0000
  C   C1488     1.0  0.69667  0.25153  0.32424  1.0000
  H   H2385     1.0  0.74003  0.29267  0.01791  1.0000
  C   C1489     1.0  0.71534  0.28149  0.27513  1.0000
  H   H2386     1.0  0.70286  0.32939  0.16258  1.0000
  H   H2387     1.0  0.72954  0.31847  0.30631  1.0000
  S   S585      1.0  0.70618  0.27362  0.09454  1.0000
  S   S586      1.0  0.69034  0.27679  0.17051  1.0000
  C   C1490     1.0  0.75205  0.29932  0.42166  1.0000
  C   C1491     1.0  0.68579  0.33580  0.12548  1.0000
  H   H2388     1.0  0.76447  0.28884  0.42645  1.0000
  Fe  Fe290     1.0  0.70561  0.28565  0.37802  1.0000
  C   C1492     1.0  0.70220  0.29791  0.28259  1.0000
  C   C1493     1.0  0.70703  0.29324  0.30487  1.0000
  S   S587      1.0  0.71743  0.27339  0.37849  1.0000
  H   H2389     1.0  0.70242  0.25861  0.05668  1.0000
  C   C1494     1.0  0.77141  0.30643  0.43001  1.0000
  H   H2390     1.0  0.73160  0.30827  0.24023  1.0000
  H   H2391     1.0  0.67686  0.23784  0.31781  1.0000
  C   C1495     1.0  0.68422  0.26145  0.30035  1.0000
  C   C1496     1.0  0.76970  0.31773  0.42942  1.0000
  H   H2392     1.0  0.72762  0.33127  0.35442  1.0000
  S   S588      1.0  0.71205  0.28067  0.22182  1.0000
  H   H2393     1.0  0.69960  0.29753  0.24035  1.0000
  Fe  Fe291     1.0  0.68388  0.29322  0.16249  1.0000
  H   H2394     1.0  0.72019  0.30670  0.20285  1.0000
  C   C1497     1.0  0.71130  0.33521  0.16083  1.0000
  H   H2395     1.0  0.75725  0.32657  0.32898  1.0000
  H   H2396     1.0  0.73774  0.26630  0.04555  1.0000
  H   H2397     1.0  0.73671  0.28243  0.48150  1.0000
  C   C1498     1.0  0.73839  0.30751  0.34750  1.0000
  S   S589      1.0  0.70825  0.26583  0.44832  1.0000
  S   S590      1.0  0.70476  0.29790  0.33703  1.0000
  H   H2398     1.0  0.69057  0.27029  0.29476  1.0000
  H   H2399     1.0  0.69736  0.24569  0.34444  1.0000
  H   H2400     1.0  0.72408  0.32254  0.19266  1.0000
  Fe  Fe292     1.0  0.72249  0.28060  0.41494  1.0000
  S   S591      1.0  0.68975  0.27225  0.40906  1.0000
  S   S592      1.0  0.69450  0.30042  0.11644  1.0000
  H   H2401     1.0  0.74825  0.32454  0.15062  1.0000
  H   H2402     1.0  0.75078  0.30377  0.19405  1.0000
  C   C1499     1.0  0.76279  0.29743  0.42597  1.0000
  C   C1500     1.0  0.72796  0.32184  0.35944  1.0000
  H   H2403     1.0  0.74173  0.30246  0.16898  1.0000
  H   H2404     1.0  0.73547  0.29590  0.20686  1.0000
  H   H2405     1.0  0.71760  0.28158  0.31778  1.0000
  Fe  Fe293     1.0  0.70830  0.30932  0.13525  1.0000
  H   H2406     1.0  0.72389  0.26074  0.03791  1.0000
  S   S593      1.0  0.71145  0.29351  0.41236  1.0000
  H   H2407     1.0  0.74539  0.33355  0.17489  1.0000
  C   C1501     1.0  0.69132  0.28623  0.03106  1.0000
  S   S594      1.0  0.69705  0.30365  0.18078  1.0000
  H   H2408     1.0  0.77956  0.30459  0.43361  1.0000
  C   C1502     1.0  0.67219  0.21128  0.40390  1.0000
  Fe  Fe294     1.0  0.70209  0.28478  0.12552  1.0000
  N   N152      1.0  0.73872  0.31485  0.19420  1.0000
  H   H2409     1.0  0.73582  0.32412  0.22729  1.0000
  N   N153      1.0  0.73528  0.27626  0.00617  1.0000
  H   H2410     1.0  0.74184  0.31224  0.41819  1.0000
  C   C1503     1.0  0.75013  0.31063  0.42112  1.0000
  H   H2411     1.0  0.68351  0.25461  0.37177  1.0000
  C   C1504     1.0  0.71022  0.28589  0.25320  1.0000
  C   C1505     1.0  0.74924  0.32744  0.34371  1.0000
  H   H2412     1.0  0.72711  0.31453  0.16586  1.0000
  C   C1506     1.0  0.69948  0.26641  0.04933  1.0000
  C   C1507     1.0  0.74293  0.32519  0.05515  1.0000
  C   C1508     1.0  0.72702  0.31465  0.18862  1.0000
  C   C1509     1.0  0.68285  0.25998  0.35096  1.0000
  C   C1510     1.0  0.67138  0.23312  0.41624  1.0000
  C   C1511     1.0  0.69510  0.26769  0.02461  1.0000
  C   C1512     1.0  0.73828  0.31589  0.22402  1.0000
  H   H2413     1.0  0.72048  0.27515  0.27227  1.0000
  H   H2414     1.0  0.69708  0.30427  0.28544  1.0000
  C   C1513     1.0  0.75899  0.31985  0.42468  1.0000
  H   H2415     1.0  0.75746  0.32849  0.42436  1.0000
  H   H2416     1.0  0.74699  0.31616  0.22902  1.0000
  H   H2417     1.0  0.68822  0.29395  0.02397  1.0000
  Fe  Fe295     1.0  0.70449  0.28781  0.18503  1.0000
  H   H2418     1.0  0.69623  0.29181  0.06708  1.0000
  C   C1514     1.0  0.69580  0.28500  0.05561  1.0000
  S   S595      1.0  0.71687  0.29433  0.14066  1.0000
  H   H2419     1.0  0.69864  0.24713  0.30649  1.0000
  H   H2420     1.0  0.72629  0.27386  0.05059  1.0000
  S   S596      1.0  0.74158  0.28693  0.41805  1.0000
  H   H2421     1.0  0.72815  0.31920  0.38253  1.0000
  H   H2422     1.0  0.74617  0.30590  0.33358  1.0000
  H   H2423     1.0  0.73594  0.33680  0.01128  1.0000
  C   C1515     1.0  0.70367  0.29415  0.25695  1.0000
  C   C1516     1.0  0.73772  0.32377  0.30975  1.0000
  C   C1517     1.0  0.69105  0.27763  0.01541  1.0000
  H   H2424     1.0  0.73317  0.32370  0.05948  1.0000
  S   S597      1.0  0.78112  0.32819  0.43658  1.0000
  H   H2425     1.0  0.73230  0.29588  0.47188  1.0000
  Fe  Fe296     1.0  0.69701  0.27868  0.44376  1.0000
  C   C1518     1.0  0.71367  0.28507  0.30099  1.0000
  H   H2426     1.0  0.70373  0.25986  0.31919  1.0000
  H   H2427     1.0  0.67528  0.26297  0.30187  1.0000
  H   H2428     1.0  0.67624  0.23643  0.35532  1.0000
  H   H2429     1.0  0.75147  0.28497  0.01412  1.0000
  H   H2430     1.0  0.76475  0.33153  0.01968  1.0000
  H   H2431     1.0  0.74511  0.32427  0.07646  1.0000
  H   H2432     1.0  0.67396  0.26173  0.35464  1.0000
  N   N154      1.0  0.74912  0.33697  0.03539  1.0000
  H   H2433     1.0  0.68632  0.25746  0.28185  1.0000
  C   C1519     1.0  0.74408  0.28711  0.00525  1.0000
  H   H2434     1.0  0.74547  0.32267  0.29458  1.0000
  H   H2435     1.0  0.67895  0.31677  0.17063  1.0000
  H   H2436     1.0  0.74810  0.33120  0.99685  1.0000
  H   H2437     1.0  0.74825  0.26666  0.99594  1.0000
  H   H2438     1.0  0.72097  0.28471  0.00816  1.0000
  C   C1520     1.0  0.72100  0.33627  0.13807  1.0000
  H   H2439     1.0  0.75043  0.30710  0.48256  1.0000
  H   H2440     1.0  0.67051  0.31553  0.12818  1.0000
  H   H2441     1.0  0.73777  0.33330  0.30344  1.0000
  H   H2442     1.0  0.76505  0.33800  0.04985  1.0000
  H   H2443     1.0  0.71869  0.27153  0.99557  1.0000
  C   C1521     1.0  0.72547  0.27953  0.99510  1.0000
  C   C1522     1.0  0.74563  0.33797  0.00782  1.0000
  H   H2444     1.0  0.67996  0.32978  0.18397  1.0000
  N   N155      1.0  0.67384  0.33081  0.14522  1.0000
  C   C1523     1.0  0.67469  0.32404  0.17332  1.0000
  C   C1524     1.0  0.76201  0.33845  0.02968  1.0000
  H   H2445     1.0  0.74805  0.29263  0.98270  1.0000
  C   C1525     1.0  0.68322  0.21624  0.90573  1.0000
  S   S598      1.0  0.69648  0.23736  0.91059  1.0000
  H   H2446     1.0  0.69160  0.21405  0.90086  1.0000
  N   N156      1.0  0.68086  0.24881  0.82721  1.0000
  H   H2447     1.0  0.74685  0.32835  0.67349  1.0000
  C   C1526     1.0  0.73273  0.30116  0.81615  1.0000
  C   C1527     1.0  0.69750  0.27346  0.51935  1.0000
  S   S599      1.0  0.76865  0.32555  0.96319  1.0000
  C   C1528     1.0  0.67779  0.32354  0.65597  1.0000
  H   H2448     1.0  0.74626  0.33034  0.59698  1.0000
  H   H2449     1.0  0.76813  0.32388  0.61220  1.0000
  C   C1529     1.0  0.75528  0.32822  0.65913  1.0000
  H   H2450     1.0  0.73914  0.28553  0.55470  1.0000
  C   C1530     1.0  0.71812  0.33183  0.66844  1.0000
  C   C1531     1.0  0.68977  0.24942  0.84425  1.0000
  C   C1532     1.0  0.68293  0.22728  0.91160  1.0000
  H   H2451     1.0  0.67982  0.32773  0.67336  1.0000
  H   H2452     1.0  0.72859  0.28490  0.97228  1.0000
  H   H2453     1.0  0.72636  0.27755  0.54685  1.0000
  H   H2454     1.0  0.72464  0.31616  0.78162  1.0000
  H   H2455     1.0  0.68631  0.25108  0.86557  1.0000
  H   H2456     1.0  0.74065  0.27634  0.52985  1.0000
  C   C1533     1.0  0.70954  0.27694  0.78080  1.0000
  C   C1534     1.0  0.67280  0.20802  0.90597  1.0000
  H   H2457     1.0  0.77494  0.33808  0.61645  1.0000
  H   H2458     1.0  0.72062  0.29645  0.53221  1.0000
  H   H2459     1.0  0.72434  0.29652  0.83288  1.0000
  H   H2460     1.0  0.67327  0.19964  0.90127  1.0000
  C   C1535     1.0  0.71827  0.32250  0.69085  1.0000
  C   C1536     1.0  0.76071  0.30126  0.91777  1.0000
  H   H2461     1.0  0.68474  0.26766  0.81028  1.0000
  S   S600      1.0  0.68520  0.27924  0.98511  1.0000
  H   H2462     1.0  0.73738  0.32663  0.63338  1.0000
  C   C1537     1.0  0.76732  0.33311  0.61019  1.0000
  H   H2463     1.0  0.74440  0.32044  0.95744  1.0000
  C   C1538     1.0  0.70183  0.27256  0.54412  1.0000
  H   H2464     1.0  0.74870  0.32976  0.78670  1.0000
  S   S601      1.0  0.71120  0.32902  0.64123  1.0000
  H   H2465     1.0  0.73099  0.30879  0.50569  1.0000
  H   H2466     1.0  0.74291  0.31358  0.84848  1.0000
  H   H2467     1.0  0.77644  0.31114  0.92584  1.0000
  S   S602      1.0  0.69927  0.29316  0.84323  1.0000
  N   N157      1.0  0.73678  0.29278  0.51278  1.0000
  H   H2468     1.0  0.71174  0.27663  0.82359  1.0000
  C   C1539     1.0  0.67197  0.22994  0.91775  1.0000
  H   H2469     1.0  0.74468  0.27479  0.96518  1.0000
  N   N158      1.0  0.73523  0.31412  0.81217  1.0000
  H   H2470     1.0  0.70665  0.26602  0.54922  1.0000
  Fe  Fe297     1.0  0.67939  0.29141  0.66624  1.0000
  H   H2471     1.0  0.69785  0.25662  0.83276  1.0000
  C   C1540     1.0  0.76710  0.31015  0.92791  1.0000
  H   H2472     1.0  0.72750  0.32829  0.79771  1.0000
  H   H2473     1.0  0.73338  0.30404  0.54100  1.0000
  N   N159      1.0  0.75597  0.33341  0.62845  1.0000
  Fe  Fe298     1.0  0.70284  0.30958  0.64986  1.0000
  H   H2474     1.0  0.76531  0.29569  0.90754  1.0000
  C   C1541     1.0  0.74935  0.29916  0.50032  1.0000
  H   H2475     1.0  0.69381  0.25440  0.78614  1.0000
  H   H2476     1.0  0.73184  0.29870  0.79576  1.0000
  H   H2477     1.0  0.71419  0.27021  0.77809  1.0000
  S   S603      1.0  0.69127  0.30234  0.62336  1.0000
  C   C1542     1.0  0.70194  0.28907  0.81044  1.0000
  C   C1543     1.0  0.73081  0.33627  0.70925  1.0000
  H   H2478     1.0  0.69253  0.24101  0.84868  1.0000
  H   H2479     1.0  0.68593  0.32642  0.63782  1.0000
  C   C1544     1.0  0.67719  0.25999  0.82282  1.0000
  S   S604      1.0  0.69014  0.29998  0.69248  1.0000
  H   H2480     1.0  0.74632  0.31808  0.76908  1.0000
  H   H2481     1.0  0.68893  0.23865  0.80125  1.0000
  Fe  Fe299     1.0  0.70121  0.25665  0.91449  1.0000
  H   H2482     1.0  0.67602  0.31381  0.66464  1.0000
  S   S605      1.0  0.70836  0.26318  0.94973  1.0000
  C   C1545     1.0  0.74842  0.29915  0.92180  1.0000
  H   H2483     1.0  0.72740  0.31267  0.85684  1.0000
  C   C1546     1.0  0.74267  0.30649  0.93520  1.0000
  H   H2484     1.0  0.67327  0.32364  0.60453  1.0000
  H   H2485     1.0  0.75403  0.31693  0.79721  1.0000
  H   H2486     1.0  0.68436  0.29576  0.52576  1.0000
  C   C1547     1.0  0.67049  0.23883  0.84305  1.0000
  S   S606      1.0  0.70544  0.27611  0.72811  1.0000
  C   C1548     1.0  0.72568  0.31848  0.80208  1.0000
  C   C1549     1.0  0.74659  0.31995  0.79040  1.0000
  C   C1550     1.0  0.68600  0.24698  0.79879  1.0000
  Fe  Fe300     1.0  0.69587  0.27484  0.94715  1.0000
  H   H2487     1.0  0.69283  0.30096  0.79068  1.0000
  H   H2488     1.0  0.76830  0.33725  0.58693  1.0000
  H   H2489     1.0  0.67362  0.26189  0.84377  1.0000
  C   C1551     1.0  0.73589  0.31688  0.84004  1.0000
  H   H2490     1.0  0.73785  0.32660  0.83782  1.0000
  H   H2491     1.0  0.73984  0.29758  0.82333  1.0000
  H   H2492     1.0  0.74627  0.31714  0.62264  1.0000
  C   C1552     1.0  0.69756  0.29429  0.78795  1.0000
  H   H2493     1.0  0.69516  0.29445  0.74550  1.0000
  H   H2494     1.0  0.75578  0.31885  0.66295  1.0000
  H   H2495     1.0  0.67152  0.23832  0.92246  1.0000
  H   H2496     1.0  0.69887  0.26751  0.50582  1.0000
  C   C1553     1.0  0.74907  0.31532  0.94575  1.0000
  H   H2497     1.0  0.67030  0.25975  0.81054  1.0000
  C   C1554     1.0  0.76136  0.31721  0.94230  1.0000
  S   S607      1.0  0.68796  0.26748  0.91451  1.0000
  S   S608      1.0  0.70904  0.29025  0.91429  1.0000
  Fe  Fe301     1.0  0.69957  0.28567  0.69074  1.0000
  C   C1555     1.0  0.70471  0.28180  0.75875  1.0000
  C   C1556     1.0  0.69889  0.29062  0.76224  1.0000
  C   C1557     1.0  0.70814  0.28055  0.80661  1.0000
  C   C1558     1.0  0.68915  0.28921  0.53094  1.0000
  S   S609      1.0  0.74079  0.28660  0.91197  1.0000
  H   H2498     1.0  0.72467  0.31744  0.72845  1.0000
  H   H2499     1.0  0.73322  0.30509  0.93842  1.0000
  C   C1559     1.0  0.73018  0.30090  0.52335  1.0000
  S   S610      1.0  0.71319  0.29597  0.64961  1.0000
  S   S611      1.0  0.68760  0.27609  0.66814  1.0000
  Fe  Fe302     1.0  0.70042  0.28768  0.62693  1.0000
  C   C1560     1.0  0.74607  0.32657  0.61994  1.0000
  H   H2500     1.0  0.69214  0.29424  0.56941  1.0000
  S   S612      1.0  0.70714  0.27988  0.59040  1.0000
  Fe  Fe303     1.0  0.72127  0.27848  0.91476  1.0000
  C   C1561     1.0  0.69351  0.28833  0.55575  1.0000
  H   H2501     1.0  0.75347  0.30226  0.51681  1.0000
  H   H2502     1.0  0.71378  0.31351  0.69214  1.0000
  Fe  Fe304     1.0  0.70260  0.28165  0.88176  1.0000
  S   S613      1.0  0.71565  0.27068  0.87963  1.0000
  C   C1562     1.0  0.69127  0.28187  0.51248  1.0000
  C   C1563     1.0  0.70000  0.28009  0.56218  1.0000
  C   C1564     1.0  0.73573  0.28261  0.53707  1.0000
  H   H2503     1.0  0.71703  0.31460  0.81832  1.0000
  C   C1565     1.0  0.72447  0.32474  0.71144  1.0000
  H   H2504     1.0  0.67953  0.24650  0.78531  1.0000
  H   H2505     1.0  0.72242  0.28346  0.49903  1.0000
  H   H2506     1.0  0.67298  0.23027  0.84766  1.0000
  H   H2507     1.0  0.76258  0.33324  0.66630  1.0000
  C   C1566     1.0  0.73184  0.28845  0.49035  1.0000
  H   H2508     1.0  0.75454  0.29346  0.49106  1.0000
  H   H2509     1.0  0.67056  0.18472  0.98322  1.0000
  H   H2510     1.0  0.73445  0.26135  0.98762  1.0000
  C   C1567     1.0  0.74092  0.26944  0.98801  1.0000
  S   S614      1.0  0.73968  0.33863  0.73310  1.0000
  Fe  Fe305     1.0  0.72625  0.47982  0.44033  1.0000
  S   S615      1.0  0.71648  0.46099  0.44602  1.0000
  S   S616      1.0  0.69346  0.46964  0.43420  1.0000
  Fe  Fe306     1.0  0.71015  0.46762  0.40728  1.0000
  S   S617      1.0  0.71496  0.46062  0.36806  1.0000
  Fe  Fe307     1.0  0.69696  0.44694  0.18276  1.0000
  S   S618      1.0  0.70444  0.43140  0.17940  1.0000
  S   S619      1.0  0.69770  0.46112  0.14346  1.0000
  Fe  Fe308     1.0  0.69044  0.44001  0.24870  1.0000
  S   S620      1.0  0.69724  0.42379  0.25061  1.0000
  S   S621      1.0  0.68171  0.44422  0.28974  1.0000
  Fe  Fe309     1.0  0.71253  0.43553  0.21489  1.0000
  S   S622      1.0  0.73089  0.43348  0.21335  1.0000
  Fe  Fe310     1.0  0.68848  0.42104  0.21511  1.0000
  S   S623      1.0  0.70649  0.45206  0.21538  1.0000
  S   S624      1.0  0.68023  0.43627  0.21608  1.0000
  S   S625      1.0  0.72551  0.35621  0.20700  1.0000
  C   C1568     1.0  0.67916  0.48109  0.37710  1.0000
  Fe  Fe311     1.0  0.77985  0.46109  0.26558  1.0000
  S   S626      1.0  0.76141  0.46325  0.27707  1.0000
  S   S627      1.0  0.78614  0.45336  0.22912  1.0000
  S   S628      1.0  0.77760  0.35355  0.13655  1.0000
  H   H2511     1.0  0.73158  0.48176  0.01003  1.0000
  C   C1569     1.0  0.72359  0.34895  0.17984  1.0000
  C   C1570     1.0  0.69991  0.48847  0.35302  1.0000
  S   S629      1.0  0.82768  0.47369  0.48746  1.0000
  H   H2512     1.0  0.74174  0.35553  0.15550  1.0000
  C   C1571     1.0  0.73804  0.44055  0.23553  1.0000
  C   C1572     1.0  0.74816  0.43755  0.24141  1.0000
  C   C1573     1.0  0.75500  0.44414  0.25561  1.0000
  C   C1574     1.0  0.75185  0.45387  0.26361  1.0000
  C   C1575     1.0  0.74139  0.45651  0.25913  1.0000
  C   C1576     1.0  0.73445  0.44981  0.24518  1.0000
  H   H2513     1.0  0.75092  0.43030  0.23446  1.0000
  H   H2514     1.0  0.76274  0.44170  0.26027  1.0000
  H   H2515     1.0  0.73884  0.46394  0.26561  1.0000
  H   H2516     1.0  0.72660  0.45213  0.24091  1.0000
  H   H2517     1.0  0.82038  0.48476  0.22803  1.0000
  H   H2518     1.0  0.71579  0.45560  0.07187  1.0000
  C   C1577     1.0  0.72643  0.45828  0.01648  1.0000
  C   C1578     1.0  0.69246  0.44935  0.06262  1.0000
  C   C1579     1.0  0.69186  0.44092  0.08789  1.0000
  C   C1580     1.0  0.69314  0.44442  0.11307  1.0000
  C   C1581     1.0  0.69515  0.45638  0.11299  1.0000
  C   C1582     1.0  0.69563  0.46479  0.08779  1.0000
  C   C1583     1.0  0.69426  0.46128  0.06265  1.0000
  H   H2519     1.0  0.69058  0.43168  0.08798  1.0000
  H   H2520     1.0  0.69268  0.43787  0.13244  1.0000
  H   H2521     1.0  0.69708  0.47405  0.08774  1.0000
  H   H2522     1.0  0.69454  0.46781  0.04341  1.0000
  C   C1584     1.0  0.70544  0.45593  0.34703  1.0000
  C   C1585     1.0  0.69323  0.45424  0.35604  1.0000
  C   C1586     1.0  0.68599  0.45059  0.33838  1.0000
  C   C1587     1.0  0.69093  0.44859  0.31173  1.0000
  C   C1588     1.0  0.70314  0.45020  0.30292  1.0000
  C   C1589     1.0  0.71035  0.45384  0.32052  1.0000
  H   H2523     1.0  0.68936  0.45553  0.37676  1.0000
  H   H2524     1.0  0.67654  0.44921  0.34544  1.0000
  H   H2525     1.0  0.70702  0.44861  0.28254  1.0000
  H   H2526     1.0  0.71979  0.45503  0.31351  1.0000
  H   H2527     1.0  0.67254  0.41874  0.17453  1.0000
  C   C1590     1.0  0.75749  0.48526  0.45059  1.0000
  H   H2528     1.0  0.78496  0.47097  0.12783  1.0000
  S   S630      1.0  0.78837  0.45166  0.29673  1.0000
  C   C1591     1.0  0.74593  0.34627  0.04884  1.0000
  H   H2529     1.0  0.74661  0.45880  0.40316  1.0000
  H   H2530     1.0  0.81150  0.38450  0.31356  1.0000
  C   C1592     1.0  0.81297  0.40699  0.28762  1.0000
  C   C1593     1.0  0.78929  0.41897  0.24170  1.0000
  H   H2531     1.0  0.76473  0.48566  0.34594  1.0000
  H   H2532     1.0  0.72189  0.39652  0.26677  1.0000
  C   C1594     1.0  0.72642  0.40350  0.24636  1.0000
  S   S631      1.0  0.76619  0.34891  0.27807  1.0000
  N   N160      1.0  0.73581  0.39992  0.22817  1.0000
  C   C1595     1.0  0.82468  0.50540  0.24205  1.0000
  S   S632      1.0  0.75493  0.34820  0.21004  1.0000
  C   C1596     1.0  0.77807  0.49542  0.46640  1.0000
  C   C1597     1.0  0.77888  0.40833  0.20353  1.0000
  H   H2533     1.0  0.67978  0.47175  0.38108  1.0000
  H   H2534     1.0  0.73605  0.46618  0.39210  1.0000
  C   C1598     1.0  0.77763  0.48566  0.45459  1.0000
  S   S633      1.0  0.77834  0.37017  0.19851  1.0000
  C   C1599     1.0  0.76746  0.36426  0.09597  1.0000
  H   H2535     1.0  0.74802  0.40654  0.18608  1.0000
  H   H2536     1.0  0.73936  0.47695  0.34117  1.0000
  C   C1600     1.0  0.80133  0.40198  0.47031  1.0000
  H   H2537     1.0  0.72691  0.38132  0.24201  1.0000
  H   H2538     1.0  0.77544  0.39190  0.23585  1.0000
  H   H2539     1.0  0.79707  0.38571  0.31017  1.0000
  H   H2540     1.0  0.82962  0.50298  0.25845  1.0000
  S   S634      1.0  0.75210  0.37148  0.23443  1.0000
  S   S635      1.0  0.77160  0.35720  0.44103  1.0000
  C   C1601     1.0  0.81076  0.46196  0.34859  1.0000
  Fe  Fe312     1.0  0.70404  0.48800  0.43010  1.0000
  H   H2541     1.0  0.77395  0.47895  0.12523  1.0000
  C   C1602     1.0  0.76743  0.48065  0.44672  1.0000
  S   S636      1.0  0.72038  0.48633  0.40041  1.0000
  H   H2542     1.0  0.76008  0.37303  0.06354  1.0000
  H   H2543     1.0  0.75196  0.45968  0.19151  1.0000
  H   H2544     1.0  0.82167  0.41315  0.47950  1.0000
  Fe  Fe313     1.0  0.80208  0.46872  0.21575  1.0000
  C   C1603     1.0  0.74388  0.46685  0.03026  1.0000
  S   S637      1.0  0.79229  0.38187  0.42647  1.0000
  S   S638      1.0  0.79097  0.50217  0.47572  1.0000
  C   C1604     1.0  0.77527  0.46995  0.13222  1.0000
  S   S639      1.0  0.74513  0.47862  0.43921  1.0000
  C   C1605     1.0  0.73069  0.38864  0.22191  1.0000
  C   C1606     1.0  0.79310  0.39531  0.06949  1.0000
  S   S640      1.0  0.67912  0.40231  0.21730  1.0000
  H   H2545     1.0  0.77194  0.46456  0.11809  1.0000
  H   H2546     1.0  0.78526  0.48213  0.45086  1.0000
  H   H2547     1.0  0.77322  0.48076  0.17545  1.0000
  H   H2548     1.0  0.76737  0.44658  0.15839  1.0000
  H   H2549     1.0  0.76705  0.44799  0.19438  1.0000
  C   C1607     1.0  0.72776  0.47618  0.03263  1.0000
  C   C1608     1.0  0.77120  0.45238  0.17112  1.0000
  C   C1609     1.0  0.80339  0.45824  0.12260  1.0000
  H   H2550     1.0  0.74550  0.41765  0.20443  1.0000
  S   S641      1.0  0.75776  0.37371  0.16435  1.0000
  C   C1610     1.0  0.77439  0.47164  0.18100  1.0000
  C   C1611     1.0  0.78441  0.40669  0.24906  1.0000
  N   N161      1.0  0.76936  0.46436  0.16313  1.0000
  Fe  Fe314     1.0  0.80611  0.49328  0.47581  1.0000
  C   C1612     1.0  0.78389  0.35663  0.07794  1.0000
  H   H2551     1.0  0.78074  0.45268  0.16731  1.0000
  H   H2552     1.0  0.72348  0.38942  0.21095  1.0000
  H   H2553     1.0  0.80011  0.38314  0.34499  1.0000
  H   H2554     1.0  0.77008  0.46771  0.20450  1.0000
  H   H2555     1.0  0.78452  0.40130  0.26965  1.0000
  C   C1613     1.0  0.80874  0.47512  0.14212  1.0000
  Fe  Fe315     1.0  0.80736  0.47192  0.02127  1.0000
  N   N162      1.0  0.82978  0.50304  0.21427  1.0000
  H   H2556     1.0  0.74891  0.34609  0.06902  1.0000
  H   H2557     1.0  0.76689  0.34716  0.01445  1.0000
  H   H2558     1.0  0.73776  0.45319  0.38061  1.0000
  H   H2559     1.0  0.78403  0.47245  0.17782  1.0000
  C   C1614     1.0  0.75658  0.46348  0.16822  1.0000
  Fe  Fe316     1.0  0.74477  0.36188  0.20453  1.0000
  H   H2560     1.0  0.75233  0.45765  0.15610  1.0000
  H   H2561     1.0  0.75483  0.47231  0.16172  1.0000
  S   S642      1.0  0.79554  0.42558  0.26601  1.0000
  H   H2562     1.0  0.75264  0.47771  0.31493  1.0000
  H   H2563     1.0  0.76481  0.45959  0.36721  1.0000
  C   C1615     1.0  0.77554  0.39741  0.10021  1.0000
  H   H2564     1.0  0.82623  0.50418  0.17245  1.0000
  H   H2565     1.0  0.73004  0.41174  0.25242  1.0000
  S   S643      1.0  0.77351  0.37219  0.00881  1.0000
  H   H2566     1.0  0.76752  0.46778  0.33027  1.0000
  H   H2567     1.0  0.73861  0.45672  0.48641  1.0000
  C   C1616     1.0  0.74267  0.46139  0.38482  1.0000
  H   H2568     1.0  0.76214  0.47767  0.38304  1.0000
  C   C1617     1.0  0.77463  0.36678  0.04418  1.0000
  S   S644      1.0  0.69124  0.44472  0.03120  1.0000
  C   C1618     1.0  0.77314  0.37110  0.34176  1.0000
  N   N163      1.0  0.75176  0.46889  0.35870  1.0000
  H   H2569     1.0  0.73744  0.38585  0.20745  1.0000
  C   C1619     1.0  0.77612  0.35845  0.10124  1.0000
  N   N164      1.0  0.73091  0.46473  0.03651  1.0000
  C   C1620     1.0  0.76678  0.36849  0.06750  1.0000
  H   H2570     1.0  0.76121  0.36541  0.11376  1.0000
  C   C1621     1.0  0.74502  0.39843  0.24370  1.0000
  C   C1622     1.0  0.75781  0.47977  0.36516  1.0000
  N   N165      1.0  0.78814  0.39774  0.09731  1.0000
  H   H2571     1.0  0.76903  0.38495  0.31275  1.0000
  H   H2572     1.0  0.68819  0.50458  0.36457  1.0000
  C   C1623     1.0  0.76807  0.49997  0.47064  1.0000
  H   H2573     1.0  0.75147  0.48490  0.37219  1.0000
  C   C1624     1.0  0.77259  0.35289  0.32669  1.0000
  C   C1625     1.0  0.77921  0.40137  0.22999  1.0000
  Fe  Fe317     1.0  0.76622  0.38211  0.19447  1.0000
  C   C1626     1.0  0.83658  0.39140  0.41699  1.0000
  H   H2574     1.0  0.77039  0.38862  0.09956  1.0000
  H   H2575     1.0  0.75622  0.45418  0.34408  1.0000
  H   H2576     1.0  0.74142  0.46405  0.32965  1.0000
  C   C1627     1.0  0.74607  0.47208  0.33508  1.0000
  C   C1628     1.0  0.76046  0.46231  0.34978  1.0000
  H   H2577     1.0  0.72787  0.44894  0.07054  1.0000
  C   C1629     1.0  0.78316  0.36079  0.04947  1.0000
  H   H2578     1.0  0.79866  0.38850  0.11972  1.0000
  S   S645      1.0  0.79487  0.47730  0.24947  1.0000
  H   H2579     1.0  0.81929  0.41310  0.33355  1.0000
  Fe  Fe318     1.0  0.78295  0.37105  0.40160  1.0000
  C   C1630     1.0  0.75780  0.49489  0.46289  1.0000
  C   C1631     1.0  0.78388  0.42056  0.19600  1.0000
  H   H2580     1.0  0.71665  0.45657  0.02058  1.0000
  C   C1632     1.0  0.78917  0.42585  0.21494  1.0000
  Fe  Fe319     1.0  0.76358  0.35883  0.23644  1.0000
  C   C1633     1.0  0.77004  0.37600  0.31666  1.0000
  C   C1634     1.0  0.80395  0.38801  0.32187  1.0000
  Fe  Fe320     1.0  0.83227  0.49366  0.47408  1.0000
  H   H2581     1.0  0.78934  0.35955  0.03164  1.0000
  H   H2582     1.0  0.74885  0.40672  0.24931  1.0000
  H   H2583     1.0  0.67666  0.48390  0.32295  1.0000
  H   H2584     1.0  0.80455  0.40288  0.44673  1.0000
  H   H2585     1.0  0.73438  0.41096  0.18895  1.0000
  H   H2586     1.0  0.73945  0.34464  0.11855  1.0000
  C   C1635     1.0  0.76817  0.36934  0.29666  1.0000
  H   H2587     1.0  0.77368  0.34398  0.33062  1.0000
  C   C1636     1.0  0.74115  0.40915  0.20066  1.0000
  C   C1637     1.0  0.72556  0.45759  0.06666  1.0000
  H   H2588     1.0  0.76573  0.37317  0.27747  1.0000
  S   S646      1.0  0.77219  0.40193  0.17965  1.0000
  Fe  Fe321     1.0  0.76854  0.36069  0.17171  1.0000
  C   C1638     1.0  0.78929  0.38865  0.12140  1.0000
  H   H2589     1.0  0.80036  0.44877  0.12584  1.0000
  H   H2590     1.0  0.79340  0.43520  0.20848  1.0000
  C   C1639     1.0  0.76931  0.35772  0.30179  1.0000
  C   C1640     1.0  0.73321  0.35003  0.15694  1.0000
  H   H2591     1.0  0.75247  0.39618  0.23021  1.0000
  H   H2592     1.0  0.74146  0.39127  0.26416  1.0000
  H   H2593     1.0  0.78381  0.42595  0.17536  1.0000
  S   S647      1.0  0.69570  0.50321  0.41854  1.0000
  Fe  Fe322     1.0  0.78246  0.36698  0.46550  1.0000
  H   H2594     1.0  0.71959  0.40533  0.23482  1.0000
  H   H2595     1.0  0.77687  0.35570  0.36598  1.0000
  Fe  Fe323     1.0  0.79577  0.44487  0.25902  1.0000
  H   H2596     1.0  0.79061  0.35213  0.08188  1.0000
  S   S648      1.0  0.77553  0.37962  0.36641  1.0000
  H   H2597     1.0  0.83464  0.48767  0.23489  1.0000
  H   H2598     1.0  0.81209  0.38510  0.45934  1.0000
  C   C1641     1.0  0.77449  0.35956  0.34666  1.0000
  H   H2599     1.0  0.80262  0.39555  0.06647  1.0000
  C   C1642     1.0  0.68043  0.50179  0.43240  1.0000
  H   H2600     1.0  0.68543  0.34083  0.10395  1.0000
  C   C1643     1.0  0.71256  0.34166  0.18155  1.0000
  H   H2601     1.0  0.76834  0.50756  0.47957  1.0000
  H   H2602     1.0  0.69315  0.50691  0.32616  1.0000
  C   C1644     1.0  0.68666  0.50092  0.34601  1.0000
  Fe  Fe324     1.0  0.78613  0.34814  0.43364  1.0000
  C   C1645     1.0  0.67288  0.49105  0.44989  1.0000
  Fe  Fe325     1.0  0.70103  0.46504  0.47241  1.0000
  S   S649      1.0  0.79651  0.35705  0.46131  1.0000
  N   N166      1.0  0.80763  0.40091  0.31853  1.0000
  H   H2603     1.0  0.67629  0.48338  0.45484  1.0000
  C   C1646     1.0  0.80489  0.46288  0.14620  1.0000
  H   H2604     1.0  0.78435  0.37963  0.12173  1.0000
  H   H2605     1.0  0.79228  0.40192  0.05078  1.0000
  H   H2606     1.0  0.70510  0.34076  0.19931  1.0000
  H   H2607     1.0  0.78846  0.38639  0.06830  1.0000
  S   S650      1.0  0.80318  0.45971  0.06615  1.0000
  H   H2608     1.0  0.80309  0.45700  0.16748  1.0000
  H   H2609     1.0  0.80119  0.41095  0.47326  1.0000
  H   H2610     1.0  0.78579  0.39031  0.14269  1.0000
  H   H2611     1.0  0.76733  0.47322  0.43721  1.0000
  H   H2612     1.0  0.77436  0.40419  0.08245  1.0000
  Fe  Fe326     1.0  0.80417  0.46726  0.27724  1.0000
  S   S651      1.0  0.79723  0.36179  0.39274  1.0000
  H   H2613     1.0  0.68675  0.47491  0.32781  1.0000
  H   H2614     1.0  0.79326  0.40119  0.35271  1.0000
  H   H2615     1.0  0.79021  0.40289  0.31789  1.0000
  H   H2616     1.0  0.68152  0.51996  0.41226  1.0000
  H   H2617     1.0  0.80800  0.44879  0.38855  1.0000
  H   H2618     1.0  0.73029  0.46341  0.99351  1.0000
  C   C1647     1.0  0.81942  0.47831  0.37798  1.0000
  S   S652      1.0  0.82481  0.38473  0.40302  1.0000
  H   H2619     1.0  0.81258  0.39889  0.35887  1.0000
  C   C1648     1.0  0.80576  0.46580  0.09486  1.0000
  H   H2620     1.0  0.82088  0.40408  0.27880  1.0000
  H   H2621     1.0  0.82282  0.48466  0.38908  1.0000
  H   H2622     1.0  0.74660  0.45841  0.03277  1.0000
  H   H2623     1.0  0.75012  0.35527  0.03406  1.0000
  C   C1649     1.0  0.80978  0.47802  0.09076  1.0000
  H   H2624     1.0  0.71802  0.47489  0.03734  1.0000
  H   H2625     1.0  0.81566  0.41678  0.28417  1.0000
  C   C1650     1.0  0.82110  0.40408  0.47651  1.0000
  H   H2626     1.0  0.80414  0.41016  0.09627  1.0000
  H   H2627     1.0  0.77151  0.39913  0.12107  1.0000
  H   H2628     1.0  0.79101  0.41163  0.11904  1.0000
  H   H2629     1.0  0.79394  0.41669  0.08039  1.0000
  H   H2630     1.0  0.82430  0.40031  0.32813  1.0000
  S   S653      1.0  0.82186  0.49424  0.44005  1.0000
  H   H2631     1.0  0.79956  0.41499  0.32550  1.0000
  C   C1651     1.0  0.82275  0.50606  0.19352  1.0000
  H   H2632     1.0  0.82259  0.49143  0.33781  1.0000
  C   C1652     1.0  0.81110  0.45811  0.37755  1.0000
  H   H2633     1.0  0.67766  0.50139  0.34403  1.0000
  Fe  Fe327     1.0  0.80611  0.37177  0.42076  1.0000
  H   H2634     1.0  0.81166  0.48391  0.06946  1.0000
  H   H2635     1.0  0.80656  0.40519  0.27440  1.0000
  C   C1653     1.0  0.81496  0.47398  0.33415  1.0000
  H   H2636     1.0  0.72841  0.46231  0.08249  1.0000
  H   H2637     1.0  0.80744  0.45562  0.33732  1.0000
  H   H2638     1.0  0.81340  0.50071  0.20181  1.0000
  N   N167      1.0  0.68786  0.48864  0.35035  1.0000
  C   C1654     1.0  0.79724  0.40519  0.32916  1.0000
  H   H2639     1.0  0.81430  0.49214  0.11108  1.0000
  S   S654      1.0  0.81530  0.47910  0.29744  1.0000
  H   H2640     1.0  0.82274  0.51557  0.18917  1.0000
  C   C1655     1.0  0.81127  0.48267  0.11436  1.0000
  C   C1656     1.0  0.81932  0.48213  0.34888  1.0000
  Fe  Fe328     1.0  0.81666  0.47441  0.45547  1.0000
  C   C1657     1.0  0.68573  0.48409  0.32540  1.0000
  S   S655      1.0  0.81606  0.46119  0.42833  1.0000
  H   H2641     1.0  0.70672  0.49388  0.33305  1.0000
  C   C1658     1.0  0.81538  0.46628  0.39235  1.0000
  S   S656      1.0  0.81003  0.48121  0.17154  1.0000
  C   C1659     1.0  0.81635  0.40345  0.33545  1.0000
  S   S657      1.0  0.81092  0.49179  0.00804  1.0000
  C   C1660     1.0  0.73190  0.34384  0.13590  1.0000
  S   S658      1.0  0.81242  0.45962  0.24233  1.0000
  C   C1661     1.0  0.79460  0.40957  0.09824  1.0000
  C   C1662     1.0  0.82955  0.49037  0.21907  1.0000
  H   H2642     1.0  0.70187  0.49210  0.37126  1.0000
  S   S659      1.0  0.71096  0.48351  0.46963  1.0000
  N   N168      1.0  0.80883  0.39661  0.48682  1.0000
  C   C1663     1.0  0.80857  0.38469  0.48248  1.0000
  H   H2643     1.0  0.70108  0.47931  0.35702  1.0000
  H   H2644     1.0  0.69209  0.48963  0.30480  1.0000
  H   H2645     1.0  0.68061  0.48428  0.39631  1.0000
  H   H2646     1.0  0.73620  0.34513  0.05465  1.0000
  H   H2647     1.0  0.75026  0.49859  0.46585  1.0000
  H   H2648     1.0  0.72856  0.44956  0.01882  1.0000
  H   H2649     1.0  0.83315  0.48815  0.19857  1.0000
  H   H2650     1.0  0.82474  0.51488  0.23944  1.0000
  H   H2651     1.0  0.81536  0.50005  0.25152  1.0000
  C   C1664     1.0  0.67576  0.51161  0.42585  1.0000
  H   H2652     1.0  0.82476  0.40500  0.45305  1.0000
  H   H2653     1.0  0.73100  0.48133  0.04732  1.0000
  H   H2654     1.0  0.74758  0.47176  0.04485  1.0000
  H   H2655     1.0  0.67523  0.41940  0.06012  1.0000
  H   H2656     1.0  0.69151  0.34197  0.13431  1.0000
  H   H2657     1.0  0.79202  0.39645  0.47733  1.0000
  H   H2658     1.0  0.74821  0.47221  0.00775  1.0000
  H   H2659     1.0  0.83162  0.37855  0.45815  1.0000
  H   H2660     1.0  0.67350  0.34662  0.15975  1.0000
  Fe  Fe329     1.0  0.69723  0.45865  0.98866  1.0000
  H   H2661     1.0  0.75010  0.34680  0.99250  1.0000
  S   S660      1.0  0.79398  0.46876  0.99568  1.0000
  H   H2662     1.0  0.82704  0.40020  0.48825  1.0000
  S   S661      1.0  0.70976  0.45451  0.95398  1.0000
  S   S662      1.0  0.68497  0.46217  0.96067  1.0000
  Fe  Fe330     1.0  0.69851  0.45974  0.92476  1.0000
  S   S663      1.0  0.69354  0.44729  0.89731  1.0000
  Fe  Fe331     1.0  0.69217  0.45033  0.67347  1.0000
  S   S664      1.0  0.69375  0.43167  0.67763  1.0000
  S   S665      1.0  0.69524  0.46441  0.63194  1.0000
  Fe  Fe332     1.0  0.68851  0.44828  0.73864  1.0000
  S   S666      1.0  0.68950  0.42934  0.74819  1.0000
  S   S667      1.0  0.68713  0.46010  0.76967  1.0000
  Fe  Fe333     1.0  0.70469  0.43542  0.70863  1.0000
  S   S668      1.0  0.72155  0.42977  0.70780  1.0000
  Fe  Fe334     1.0  0.67836  0.42710  0.71656  1.0000
  S   S669      1.0  0.70453  0.45449  0.70103  1.0000
  H   H2663     1.0  0.83223  0.37440  0.79892  1.0000
  H   H2664     1.0  0.80027  0.41633  0.67805  1.0000
  C   C1665     1.0  0.83349  0.38613  0.95364  1.0000
  H   H2665     1.0  0.72911  0.46807  0.88079  1.0000
  H   H2666     1.0  0.75947  0.46696  0.93912  1.0000
  Fe  Fe335     1.0  0.77292  0.46028  0.75890  1.0000
  S   S670      1.0  0.75365  0.45991  0.76900  1.0000
  S   S671      1.0  0.78025  0.45116  0.79342  1.0000
  S   S672      1.0  0.78237  0.45391  0.72300  1.0000
  C   C1666     1.0  0.73049  0.34564  0.68718  1.0000
  H   H2667     1.0  0.67816  0.34307  0.61672  1.0000
  H   H2668     1.0  0.73519  0.35458  0.68568  1.0000
  H   H2669     1.0  0.81701  0.37437  0.81059  1.0000
  C   C1667     1.0  0.73044  0.43795  0.72519  1.0000
  C   C1668     1.0  0.74198  0.43694  0.72381  1.0000
  C   C1669     1.0  0.74917  0.44359  0.73735  1.0000
  C   C1670     1.0  0.74488  0.45137  0.75200  1.0000
  C   C1671     1.0  0.73330  0.45227  0.75358  1.0000
  C   C1672     1.0  0.72607  0.44551  0.74042  1.0000
  H   H2670     1.0  0.74540  0.43110  0.71209  1.0000
  H   H2671     1.0  0.75798  0.44266  0.73649  1.0000
  H   H2672     1.0  0.72992  0.45830  0.76471  1.0000
  H   H2673     1.0  0.71712  0.44619  0.74208  1.0000
  H   H2674     1.0  0.76137  0.50335  0.97351  1.0000
  C   C1673     1.0  0.79213  0.43560  0.67325  1.0000
  Fe  Fe336     1.0  0.71953  0.47367  0.94231  1.0000
  C   C1674     1.0  0.69177  0.45527  0.54719  1.0000
  C   C1675     1.0  0.68781  0.44630  0.57313  1.0000
  C   C1676     1.0  0.68896  0.44891  0.59940  1.0000
  C   C1677     1.0  0.69394  0.46053  0.59976  1.0000
  C   C1678     1.0  0.69781  0.46947  0.57386  1.0000
  C   C1679     1.0  0.69670  0.46686  0.54771  1.0000
  H   H2675     1.0  0.68390  0.43731  0.57295  1.0000
  H   H2676     1.0  0.68587  0.44197  0.61938  1.0000
  H   H2677     1.0  0.70161  0.47849  0.57413  1.0000
  H   H2678     1.0  0.69958  0.47385  0.52805  1.0000
  C   C1680     1.0  0.69278  0.45119  0.86094  1.0000
  C   C1681     1.0  0.69493  0.46299  0.84547  1.0000
  C   C1682     1.0  0.69336  0.46560  0.81728  1.0000
  C   C1683     1.0  0.69007  0.45650  0.80396  1.0000
  C   C1684     1.0  0.68848  0.44476  0.81895  1.0000
  C   C1685     1.0  0.68972  0.44212  0.84742  1.0000
  H   H2679     1.0  0.69763  0.47009  0.85523  1.0000
  H   H2680     1.0  0.69470  0.47472  0.80564  1.0000
  H   H2681     1.0  0.68591  0.43769  0.80893  1.0000
  H   H2682     1.0  0.68814  0.43297  0.85914  1.0000
  H   H2683     1.0  0.78843  0.50219  0.82976  1.0000
  H   H2684     1.0  0.80358  0.44237  0.61686  1.0000
  H   H2685     1.0  0.79908  0.42650  0.62890  1.0000
  H   H2686     1.0  0.78954  0.35866  0.52434  1.0000
  H   H2687     1.0  0.78904  0.46504  0.66206  1.0000
  C   C1686     1.0  0.75526  0.34581  0.62456  1.0000
  H   H2688     1.0  0.77175  0.48651  0.60721  1.0000
  H   H2689     1.0  0.82424  0.38453  0.96417  1.0000
  C   C1687     1.0  0.79176  0.35877  0.81286  1.0000
  H   H2690     1.0  0.79271  0.51396  0.89318  1.0000
  H   H2691     1.0  0.68675  0.48799  0.52540  1.0000
  S   S673      1.0  0.82231  0.47103  0.98635  1.0000
  H   H2692     1.0  0.79476  0.35080  0.81319  1.0000
  S   S674      1.0  0.77274  0.35859  0.94477  1.0000
  C   C1688     1.0  0.79225  0.42907  0.84140  1.0000
  H   H2693     1.0  0.79610  0.50428  0.59256  1.0000
  S   S675      1.0  0.73937  0.47524  0.92963  1.0000
  S   S676      1.0  0.70898  0.47869  0.91037  1.0000
  H   H2694     1.0  0.80363  0.49664  0.56988  1.0000
  C   C1689     1.0  0.77420  0.49449  0.58863  1.0000
  N   N169      1.0  0.72747  0.39659  0.71753  1.0000
  C   C1690     1.0  0.71472  0.39591  0.72253  1.0000
  C   C1691     1.0  0.73379  0.40428  0.68839  1.0000
  C   C1692     1.0  0.72928  0.38458  0.71969  1.0000
  C   C1693     1.0  0.73211  0.40159  0.73950  1.0000
  H   H2695     1.0  0.70967  0.39020  0.74433  1.0000
  H   H2696     1.0  0.71093  0.39229  0.70618  1.0000
  H   H2697     1.0  0.71305  0.40483  0.72117  1.0000
  H   H2698     1.0  0.74344  0.40505  0.68396  1.0000
  H   H2699     1.0  0.73055  0.40081  0.67121  1.0000
  H   H2700     1.0  0.73264  0.41342  0.68605  1.0000
  H   H2701     1.0  0.73881  0.38478  0.71611  1.0000
  H   H2702     1.0  0.72596  0.38056  0.70329  1.0000
  H   H2703     1.0  0.72465  0.37854  0.74142  1.0000
  H   H2704     1.0  0.74171  0.40218  0.73637  1.0000
  H   H2705     1.0  0.72753  0.39607  0.76179  1.0000
  H   H2706     1.0  0.73093  0.41068  0.73835  1.0000
  S   S677      1.0  0.76180  0.36621  0.74066  1.0000
  C   C1694     1.0  0.77599  0.37127  0.58684  1.0000
  N   N170      1.0  0.73126  0.46018  0.84485  1.0000
  C   C1695     1.0  0.73436  0.47153  0.82257  1.0000
  C   C1696     1.0  0.74214  0.45714  0.85007  1.0000
  C   C1697     1.0  0.72444  0.45073  0.83482  1.0000
  C   C1698     1.0  0.72408  0.46133  0.87202  1.0000
  H   H2707     1.0  0.73974  0.47099  0.80169  1.0000
  H   H2708     1.0  0.73955  0.47885  0.82933  1.0000
  H   H2709     1.0  0.72632  0.47405  0.81813  1.0000
  H   H2710     1.0  0.74006  0.44858  0.86666  1.0000
  H   H2711     1.0  0.74784  0.45629  0.82996  1.0000
  H   H2712     1.0  0.74746  0.46406  0.85780  1.0000
  H   H2713     1.0  0.72128  0.44219  0.85176  1.0000
  H   H2714     1.0  0.72987  0.44919  0.81527  1.0000
  H   H2715     1.0  0.71653  0.45305  0.82902  1.0000
  H   H2716     1.0  0.72112  0.45280  0.88905  1.0000
  H   H2717     1.0  0.71603  0.46403  0.86859  1.0000
  S   S678      1.0  0.77397  0.37252  0.50460  1.0000
  C   C1699     1.0  0.75048  0.48038  0.94663  1.0000
  H   H2718     1.0  0.79291  0.48847  0.60303  1.0000
  C   C1700     1.0  0.72043  0.44943  0.55418  1.0000
  C   C1701     1.0  0.77974  0.40118  0.72915  1.0000
  S   S679      1.0  0.80321  0.47845  0.80685  1.0000
  C   C1702     1.0  0.77956  0.41050  0.84141  1.0000
  H   H2719     1.0  0.73550  0.44330  0.51447  1.0000
  H   H2720     1.0  0.72243  0.47239  0.53266  1.0000
  N   N171      1.0  0.72938  0.45744  0.52838  1.0000
  Fe  Fe337     1.0  0.69606  0.48092  0.94839  1.0000
  H   H2721     1.0  0.67432  0.46782  0.53203  1.0000
  H   H2722     1.0  0.76225  0.35107  0.63214  1.0000
  H   H2723     1.0  0.82014  0.38988  0.85215  1.0000
  Fe  Fe338     1.0  0.78827  0.36869  0.90783  1.0000
  C   C1703     1.0  0.75971  0.47477  0.94719  1.0000
  C   C1704     1.0  0.76943  0.47934  0.95743  1.0000
  C   C1705     1.0  0.77770  0.36898  0.53778  1.0000
  H   H2724     1.0  0.78552  0.42742  0.67390  1.0000
  C   C1706     1.0  0.81273  0.44597  0.66130  1.0000
  H   H2725     1.0  0.68305  0.48230  0.87490  1.0000
  C   C1707     1.0  0.78465  0.48477  0.55720  1.0000
  S   S680      1.0  0.81700  0.49469  0.50851  1.0000
  S   S681      1.0  0.78663  0.47752  0.74813  1.0000
  S   S682      1.0  0.70760  0.47760  0.97922  1.0000
  C   C1708     1.0  0.78926  0.41159  0.87993  1.0000
  C   C1709     1.0  0.80541  0.43451  0.63020  1.0000
  C   C1710     1.0  0.72476  0.46739  0.51640  1.0000
  H   H2726     1.0  0.78239  0.47650  0.57488  1.0000
  H   H2727     1.0  0.78247  0.37888  0.76902  1.0000
  C   C1711     1.0  0.79300  0.49148  0.89550  1.0000
  C   C1712     1.0  0.79460  0.51174  0.87190  1.0000
  S   S683      1.0  0.69052  0.45180  0.51442  1.0000
  C   C1713     1.0  0.77281  0.37348  0.56047  1.0000
  Fe  Fe339     1.0  0.75589  0.35390  0.71443  1.0000
  H   H2728     1.0  0.77167  0.41262  0.85344  1.0000
  S   S684      1.0  0.76314  0.39753  0.69836  1.0000
  H   H2729     1.0  0.76046  0.41798  0.71892  1.0000
  H   H2730     1.0  0.74410  0.45483  0.54552  1.0000
  S   S685      1.0  0.78608  0.37986  0.86688  1.0000
  H   H2731     1.0  0.77459  0.50235  0.59770  1.0000
  C   C1714     1.0  0.78478  0.37455  0.78799  1.0000
  H   H2732     1.0  0.80436  0.51356  0.86408  1.0000
  H   H2733     1.0  0.81446  0.43419  0.61982  1.0000
  C   C1715     1.0  0.77021  0.48978  0.96657  1.0000
  H   H2734     1.0  0.76692  0.49387  0.57753  1.0000
  N   N172      1.0  0.78874  0.49925  0.87460  1.0000
  H   H2735     1.0  0.77227  0.50276  0.86940  1.0000
  S   S686      1.0  0.75996  0.36801  0.67301  1.0000
  H   H2736     1.0  0.76659  0.37876  0.55755  1.0000
  H   H2737     1.0  0.78162  0.41365  0.89325  1.0000
  H   H2738     1.0  0.82999  0.35820  0.84229  1.0000
  H   H2739     1.0  0.80904  0.37626  0.85978  1.0000
  C   C1716     1.0  0.77055  0.40495  0.71963  1.0000
  H   H2740     1.0  0.77218  0.37476  0.60422  1.0000
  S   S687      1.0  0.80038  0.47357  0.48851  1.0000
  Fe  Fe340     1.0  0.76746  0.38007  0.69846  1.0000
  H   H2741     1.0  0.78465  0.43165  0.85331  1.0000
  H   H2742     1.0  0.78742  0.45738  0.61908  1.0000
  C   C1717     1.0  0.79062  0.36331  0.83729  1.0000
  H   H2743     1.0  0.73865  0.46710  0.55314  1.0000
  C   C1718     1.0  0.76084  0.49524  0.96663  1.0000
  H   H2744     1.0  0.67841  0.49413  0.50232  1.0000
  C   C1719     1.0  0.78898  0.36006  0.56792  1.0000
  N   N173      1.0  0.82669  0.37519  0.84307  1.0000
  Fe  Fe341     1.0  0.79071  0.44595  0.75672  1.0000
  C   C1720     1.0  0.76761  0.41504  0.72605  1.0000
  C   C1721     1.0  0.78405  0.36450  0.59065  1.0000
  H   H2745     1.0  0.80610  0.42502  0.70030  1.0000
  S   S688      1.0  0.79364  0.42771  0.76157  1.0000
  H   H2746     1.0  0.78889  0.48193  0.89811  1.0000
  S   S689      1.0  0.80582  0.45620  0.93376  1.0000
  N   N174      1.0  0.79042  0.41607  0.84866  1.0000
  H   H2747     1.0  0.78741  0.48716  0.84758  1.0000
  C   C1722     1.0  0.79513  0.46418  0.61808  1.0000
  H   H2748     1.0  0.79340  0.44636  0.89592  1.0000
  H   H2749     1.0  0.79311  0.48503  0.54236  1.0000
  C   C1723     1.0  0.78577  0.36222  0.54161  1.0000
  C   C1724     1.0  0.80063  0.41310  0.83188  1.0000
  H   H2750     1.0  0.79378  0.40512  0.74996  1.0000
  C   C1725     1.0  0.78877  0.36432  0.78823  1.0000
  Fe  Fe342     1.0  0.77793  0.36453  0.66439  1.0000
  C   C1726     1.0  0.78385  0.41828  0.74866  1.0000
  S   S690      1.0  0.77322  0.34943  0.70402  1.0000
  H   H2751     1.0  0.74410  0.49510  0.95606  1.0000
  H   H2752     1.0  0.80454  0.40448  0.52213  1.0000
  H   H2753     1.0  0.79266  0.35875  0.85628  1.0000
  H   H2754     1.0  0.67376  0.51286  0.92793  1.0000
  H   H2755     1.0  0.77115  0.48780  0.88802  1.0000
  H   H2756     1.0  0.77653  0.47499  0.95732  1.0000
  N   N175      1.0  0.80427  0.43519  0.66049  1.0000
  Fe  Fe343     1.0  0.79683  0.47032  0.71525  1.0000
  C   C1727     1.0  0.77413  0.42158  0.74099  1.0000
  H   H2757     1.0  0.77184  0.42937  0.74579  1.0000
  N   N176      1.0  0.78558  0.49540  0.56857  1.0000
  S   S691      1.0  0.79206  0.35088  0.97939  1.0000
  H   H2758     1.0  0.78787  0.40179  0.88611  1.0000
  H   H2759     1.0  0.79523  0.35480  0.57081  1.0000
  S   S692      1.0  0.78785  0.36100  0.62374  1.0000
  Fe  Fe344     1.0  0.78338  0.36583  0.97299  1.0000
  C   C1728     1.0  0.74032  0.46210  0.53650  1.0000
  Fe  Fe345     1.0  0.79491  0.46785  0.77951  1.0000
  C   C1729     1.0  0.75100  0.49054  0.95687  1.0000
  C   C1730     1.0  0.79794  0.46003  0.85593  1.0000
  H   H2760     1.0  0.81698  0.48706  0.84286  1.0000
  H   H2761     1.0  0.77789  0.40068  0.84678  1.0000
  C   C1731     1.0  0.78640  0.40785  0.74361  1.0000
  H   H2762     1.0  0.78194  0.39331  0.72466  1.0000
  H   H2763     1.0  0.79226  0.45494  0.84579  1.0000
  Fe  Fe346     1.0  0.77960  0.36302  0.72672  1.0000
  H   H2764     1.0  0.78104  0.38730  0.81167  1.0000
  C   C1732     1.0  0.78684  0.37364  0.83698  1.0000
  C   C1733     1.0  0.79605  0.46845  0.64242  1.0000
  H   H2765     1.0  0.80273  0.49289  0.88845  1.0000
  C   C1734     1.0  0.79156  0.49658  0.84616  1.0000
  S   S693      1.0  0.78588  0.37788  0.68620  1.0000
  C   C1735     1.0  0.78398  0.37930  0.81219  1.0000
  S   S694      1.0  0.79048  0.35844  0.75791  1.0000
  S   S695      1.0  0.78302  0.49676  0.97584  1.0000
  H   H2766     1.0  0.80124  0.49805  0.83755  1.0000
  Fe  Fe347     1.0  0.81187  0.47483  0.51908  1.0000
  S   S696      1.0  0.80309  0.46253  0.56325  1.0000
  S   S697      1.0  0.68774  0.49642  0.94066  1.0000
  H   H2767     1.0  0.78976  0.44322  0.66083  1.0000
  H   H2768     1.0  0.79731  0.41558  0.88620  1.0000
  H   H2769     1.0  0.67189  0.34424  0.65238  1.0000
  C   C1736     1.0  0.79496  0.49624  0.58417  1.0000
  H   H2770     1.0  0.79114  0.43651  0.69572  1.0000
  C   C1737     1.0  0.77583  0.49723  0.88493  1.0000
  H   H2771     1.0  0.77343  0.49944  0.90602  1.0000
  H   H2772     1.0  0.81853  0.37820  0.88339  1.0000
  H   H2773     1.0  0.80948  0.39126  0.53119  1.0000
  Fe  Fe348     1.0  0.79842  0.48841  0.97956  1.0000
  H   H2774     1.0  0.82261  0.48873  0.61426  1.0000
  H   H2775     1.0  0.68283  0.46834  0.89785  1.0000
  C   C1738     1.0  0.79855  0.45523  0.88425  1.0000
  H   H2776     1.0  0.79157  0.51791  0.85644  1.0000
  H   H2777     1.0  0.78018  0.41355  0.81791  1.0000
  H   H2778     1.0  0.80031  0.43357  0.84686  1.0000
  H   H2779     1.0  0.80174  0.41633  0.80819  1.0000
  C   C1739     1.0  0.82367  0.36218  0.85447  1.0000
  S   S698      1.0  0.79796  0.37770  0.93544  1.0000
  S   S699      1.0  0.79717  0.35384  0.91024  1.0000
  H   H2780     1.0  0.81139  0.45409  0.64801  1.0000
  H   H2781     1.0  0.77788  0.48403  0.54459  1.0000
  H   H2782     1.0  0.81572  0.42382  0.66824  1.0000
  H   H2783     1.0  0.82383  0.35967  0.87763  1.0000
  C   C1740     1.0  0.78850  0.50609  0.54432  1.0000
  H   H2784     1.0  0.79700  0.50698  0.52863  1.0000
  Fe  Fe349     1.0  0.82540  0.49083  0.97140  1.0000
  H   H2785     1.0  0.78163  0.50577  0.53198  1.0000
  H   H2786     1.0  0.78934  0.51430  0.55198  1.0000
  H   H2787     1.0  0.79104  0.49325  0.91722  1.0000
  C   C1741     1.0  0.80447  0.47159  0.84113  1.0000
  C   C1742     1.0  0.81226  0.47346  0.88274  1.0000
  H   H2788     1.0  0.80898  0.41714  0.83680  1.0000
  Fe  Fe350     1.0  0.80634  0.36251  0.93992  1.0000
  C   C1743     1.0  0.81824  0.38011  0.86032  1.0000
  H   H2789     1.0  0.82202  0.44579  0.65277  1.0000
  C   C1744     1.0  0.80557  0.46203  0.89786  1.0000
  S   S700      1.0  0.80613  0.46180  0.74584  1.0000
  C   C1745     1.0  0.80673  0.42463  0.67744  1.0000
  H   H2790     1.0  0.79334  0.43274  0.81787  1.0000
  H   H2791     1.0  0.73135  0.47377  0.49727  1.0000
  H   H2792     1.0  0.74667  0.34638  0.63705  1.0000
  S   S701      1.0  0.80776  0.48212  0.67185  1.0000
  H   H2793     1.0  0.81797  0.47860  0.89274  1.0000
  H   H2794     1.0  0.81175  0.44701  0.68377  1.0000
  C   C1746     1.0  0.81490  0.48192  0.61529  1.0000
  C   C1747     1.0  0.80415  0.46867  0.59247  1.0000
  S   S702      1.0  0.82671  0.36705  0.92985  1.0000
  H   H2795     1.0  0.67860  0.47965  0.91338  1.0000
  C   C1748     1.0  0.81173  0.47821  0.85445  1.0000
  H   H2796     1.0  0.79950  0.40335  0.83664  1.0000
  S   S703      1.0  0.81316  0.48942  0.94159  1.0000
  C   C1749     1.0  0.80605  0.47716  0.64124  1.0000
  C   C1750     1.0  0.72406  0.34343  0.66693  1.0000
  H   H2797     1.0  0.71796  0.45416  0.57100  1.0000
  Fe  Fe351     1.0  0.80922  0.46977  0.95934  1.0000
  C   C1751     1.0  0.81396  0.47767  0.59087  1.0000
  H   H2798     1.0  0.81389  0.38020  0.49511  1.0000
  H   H2799     1.0  0.79495  0.39027  0.52608  1.0000
  H   H2800     1.0  0.72388  0.44727  0.49962  1.0000
  H   H2801     1.0  0.74720  0.46823  0.51739  1.0000
  H   H2802     1.0  0.82094  0.48118  0.57109  1.0000
  H   H2803     1.0  0.72366  0.44191  0.56427  1.0000
  H   H2804     1.0  0.71669  0.46416  0.50937  1.0000
  Fe  Fe352     1.0  0.78191  0.34399  0.94902  1.0000
  H   H2805     1.0  0.71215  0.44560  0.54854  1.0000
  H   H2806     1.0  0.81468  0.35796  0.85299  1.0000
  C   C1752     1.0  0.80428  0.39564  0.51792  1.0000
  C   C1753     1.0  0.67811  0.47544  0.89525  1.0000
  H   H2807     1.0  0.82835  0.38782  0.80318  1.0000
  H   H2808     1.0  0.75627  0.35020  0.60145  1.0000
  C   C1754     1.0  0.73196  0.45088  0.50628  1.0000
  S   S704      1.0  0.67594  0.44559  0.71039  1.0000
  H   H2809     1.0  0.68004  0.49949  0.53335  1.0000
  C   C1755     1.0  0.67876  0.49137  0.52528  1.0000
  C   C1756     1.0  0.67228  0.49497  0.95106  1.0000
  H   H2810     1.0  0.72392  0.35067  0.64968  1.0000
  C   C1757     1.0  0.82607  0.37809  0.81258  1.0000
  H   H2811     1.0  0.67634  0.47513  0.57503  1.0000
  H   H2812     1.0  0.67029  0.47186  0.84944  1.0000
  H   H2813     1.0  0.79942  0.37893  0.48928  1.0000
  H   H2814     1.0  0.90682  0.39510  0.38597  1.0000
  C   C1758     1.0  0.93048  0.47852  0.26438  1.0000
  C   C1759     1.0  0.93616  0.48169  0.21259  1.0000
  H   H2815     1.0  0.94838  0.46979  0.24229  1.0000
  C   C1760     1.0  0.89946  0.48826  0.45066  1.0000
  C   C1761     1.0  0.86163  0.46690  0.40454  1.0000
  S   S705      1.0  0.88712  0.43653  0.46977  1.0000
  Fe  Fe353     1.0  0.89503  0.45140  0.42971  1.0000
  H   H2816     1.0  0.95805  0.48382  0.22107  1.0000
  S   S706      1.0  0.95224  0.44628  0.15011  1.0000
  Fe  Fe354     1.0  0.90858  0.43706  0.39806  1.0000
  S   S707      1.0  0.90215  0.42136  0.43732  1.0000
  S   S708      1.0  0.92245  0.43682  0.35839  1.0000
  Fe  Fe355     1.0  0.88418  0.42487  0.43941  1.0000
  S   S709      1.0  0.86767  0.40904  0.45088  1.0000
  Fe  Fe356     1.0  0.90564  0.43440  0.46444  1.0000
  H   H2817     1.0  0.89852  0.41044  0.32164  1.0000
  S   S710      1.0  0.89055  0.44019  0.39946  1.0000
  S   S711      1.0  0.91360  0.44960  0.42482  1.0000
  Fe  Fe357     1.0  0.94213  0.45458  0.18162  1.0000
  S   S712      1.0  0.92671  0.44687  0.22242  1.0000
  Fe  Fe358     1.0  0.95336  0.47924  0.14141  1.0000
  S   S713      1.0  0.96403  0.47297  0.10763  1.0000
  H   H2818     1.0  0.90630  0.50328  0.46616  1.0000
  Fe  Fe359     1.0  0.94750  0.45843  0.11424  1.0000
  S   S714      1.0  0.94100  0.45790  0.07262  1.0000
  S   S715      1.0  0.93672  0.46574  0.14607  1.0000
  S   S716      1.0  0.95802  0.46883  0.17909  1.0000
  H   H2819     1.0  0.98950  0.58098  0.07535  1.0000
  H   H2820     1.0  0.93510  0.48839  0.10647  1.0000
  H   H2821     1.0  0.93354  0.47200  0.21456  1.0000
  H   H2822     1.0  0.88888  0.40663  0.05634  1.0000
  H   H2823     1.0  0.90707  0.40060  0.33380  1.0000
  C   C1762     1.0  0.84790  0.47862  0.41502  1.0000
  C   C1763     1.0  0.87533  0.51066  0.46165  1.0000
  H   H2824     1.0  0.85096  0.46386  0.46060  1.0000
  H   H2825     1.0  0.84434  0.40550  0.37802  1.0000
  S   S717      1.0  0.98718  0.46165  0.14573  1.0000
  C   C1764     1.0  0.85494  0.47951  0.00487  1.0000
  H   H2826     1.0  0.91038  0.41044  0.38609  1.0000
  C   C1765     1.0  0.98354  0.59485  0.10931  1.0000
  C   C1766     1.0  0.88597  0.39464  0.37247  1.0000
  H   H2827     1.0  0.89826  0.42332  0.36877  1.0000
  H   H2828     1.0  0.88001  0.39234  0.39467  1.0000
  C   C1767     1.0  0.94132  0.50758  0.06189  1.0000
  H   H2829     1.0  0.00270  0.50337  0.14597  1.0000
  H   H2830     1.0  0.95584  0.49444  0.07687  1.0000
  H   H2831     1.0  0.95357  0.48100  0.25964  1.0000
  H   H2832     1.0  0.89319  0.49223  0.44178  1.0000
  H   H2833     1.0  0.93315  0.48022  0.28398  1.0000
  H   H2834     1.0  0.88049  0.39623  0.35690  1.0000
  H   H2835     1.0  0.95218  0.48370  0.05706  1.0000
  C   C1768     1.0  0.91525  0.48956  0.47526  1.0000
  C   C1769     1.0  0.86882  0.48710  0.40634  1.0000
  C   C1770     1.0  0.88194  0.52597  0.48529  1.0000
  H   H2836     1.0  0.95693  0.51536  0.34942  1.0000
  S   S718      1.0  0.85241  0.50124  0.46102  1.0000
  H   H2837     1.0  0.84038  0.47061  0.42477  1.0000
  C   C1771     1.0  0.99804  0.47405  0.14759  1.0000
  C   C1772     1.0  0.90344  0.40811  0.33810  1.0000
  H   H2838     1.0  0.88711  0.41460  0.02312  1.0000
  H   H2839     1.0  0.93165  0.47763  0.08647  1.0000
  N   N177      1.0  0.85915  0.47617  0.41902  1.0000
  C   C1773     1.0  0.96240  0.50604  0.15188  1.0000
  C   C1774     1.0  0.89103  0.41525  0.37224  1.0000
  S   S719      1.0  0.89103  0.46901  0.43080  1.0000
  H   H2840     1.0  0.92248  0.48177  0.26318  1.0000
  H   H2841     1.0  0.84818  0.38833  0.47573  1.0000
  H   H2842     1.0  0.95306  0.50166  0.37697  1.0000
  N   N178      1.0  0.88341  0.39578  0.02876  1.0000
  N   N179      1.0  0.89584  0.40514  0.36787  1.0000
  C   C1775     1.0  0.90010  0.47686  0.44858  1.0000
  H   H2843     1.0  0.85652  0.47884  0.46182  1.0000
  H   H2844     1.0  0.88535  0.41337  0.39460  1.0000
  H   H2845     1.0  0.93254  0.50957  0.06396  1.0000
  C   C1776     1.0  0.95243  0.49300  0.05797  1.0000
  H   H2846     1.0  0.98743  0.48644  0.14307  1.0000
  H   H2847     1.0  0.91110  0.41585  0.33433  1.0000
  H   H2848     1.0  0.84620  0.50864  0.18153  1.0000
  H   H2849     1.0  0.94261  0.49927  0.01437  1.0000
  H   H2850     1.0  0.85038  0.47344  0.02659  1.0000
  H   H2851     1.0  0.84763  0.50816  0.21765  1.0000
  H   H2852     1.0  0.85448  0.45854  0.41362  1.0000
  H   H2853     1.0  0.99087  0.57495  0.11063  1.0000
  H   H2854     1.0  0.00113  0.52947  0.15911  1.0000
  C   C1777     1.0  0.93649  0.49328  0.03477  1.0000
  C   C1778     1.0  0.99587  0.48522  0.14581  1.0000
  N   N180      1.0  0.94063  0.49523  0.06034  1.0000
  H   H2855     1.0  0.86980  0.49046  0.38279  1.0000
  H   H2856     1.0  0.95061  0.50172  0.21416  1.0000
  H   H2857     1.0  0.92325  0.48841  0.08906  1.0000
  H   H2858     1.0  0.97057  0.49204  0.16420  1.0000
  C   C1779     1.0  0.85579  0.40257  0.43701  1.0000
  C   C1780     1.0  0.85458  0.40731  0.40937  1.0000
  S   S720      1.0  0.88705  0.52671  0.99978  1.0000
  H   H2859     1.0  0.99630  0.60286  0.05409  1.0000
  C   C1781     1.0  0.85433  0.51034  0.99394  1.0000
  C   C1782     1.0  0.84732  0.39220  0.45445  1.0000
  H   H2860     1.0  0.92787  0.46873  0.26766  1.0000
  H   H2861     1.0  0.88923  0.38675  0.36976  1.0000
  H   H2862     1.0  0.89748  0.40029  0.41151  1.0000
  C   C1783     1.0  0.91965  0.43451  0.02524  1.0000
  C   C1784     1.0  0.92187  0.42935  0.05162  1.0000
  C   C1785     1.0  0.92820  0.43630  0.06659  1.0000
  C   C1786     1.0  0.93257  0.44858  0.05529  1.0000
  C   C1787     1.0  0.93032  0.45374  0.02892  1.0000
  C   C1788     1.0  0.92388  0.44681  0.01411  1.0000
  H   H2863     1.0  0.91872  0.41987  0.06056  1.0000
  H   H2864     1.0  0.92984  0.43212  0.08670  1.0000
  H   H2865     1.0  0.93362  0.46320  0.01976  1.0000
  C   C1789     1.0  0.92364  0.44081  0.32050  1.0000
  C   C1790     1.0  0.91388  0.44173  0.30933  1.0000
  C   C1791     1.0  0.91503  0.44367  0.27927  1.0000
  C   C1792     1.0  0.92598  0.44506  0.25989  1.0000
  C   C1793     1.0  0.93581  0.44458  0.27097  1.0000
  C   C1794     1.0  0.93460  0.44232  0.30109  1.0000
  H   H2866     1.0  0.90539  0.44062  0.32385  1.0000
  H   H2867     1.0  0.90737  0.44403  0.27093  1.0000
  H   H2868     1.0  0.94426  0.44548  0.25644  1.0000
  H   H2869     1.0  0.94219  0.44154  0.30945  1.0000
  H   H2870     1.0  0.89613  0.38805  0.00683  1.0000
  S   S721      1.0  0.95331  0.49837  0.13410  1.0000
  H   H2871     1.0  0.88559  0.41742  0.35695  1.0000
  H   H2872     1.0  0.86095  0.41526  0.39558  1.0000
  H   H2873     1.0  0.92847  0.48524  0.20975  1.0000
  C   C1795     1.0  0.90293  0.40261  0.38879  1.0000
  C   C1796     1.0  0.90807  0.47177  0.46072  1.0000
  H   H2874     1.0  0.86650  0.46351  0.02172  1.0000
  H   H2875     1.0  0.94357  0.50433  0.35353  1.0000
  H   H2876     1.0  0.90132  0.39633  0.03084  1.0000
  H   H2877     1.0  0.90828  0.46284  0.46065  1.0000
  C   C1797     1.0  0.90695  0.49456  0.46428  1.0000
  Fe  Fe360     1.0  0.96799  0.46173  0.14548  1.0000
  N   N181      1.0  0.94015  0.48423  0.23791  1.0000
  H   H2878     1.0  0.86875  0.38446  0.06300  1.0000
  C   C1798     1.0  0.85827  0.47202  0.45024  1.0000
  H   H2879     1.0  0.87792  0.37682  0.04429  1.0000
  H   H2880     1.0  0.86238  0.46973  0.38094  1.0000
  H   H2881     1.0  0.88302  0.38444  0.06939  1.0000
  H   H2882     1.0  0.93580  0.48401  0.03306  1.0000
  H   H2883     1.0  0.93156  0.51899  0.35950  1.0000
  C   C1799     1.0  0.95048  0.47950  0.24037  1.0000
  C   C1800     1.0  0.96971  0.50065  0.16608  1.0000
  H   H2884     1.0  0.84582  0.48568  0.42537  1.0000
  C   C1801     1.0  0.93227  0.48705  0.08677  1.0000
  H   H2885     1.0  0.94327  0.48575  0.19231  1.0000
  H   H2886     1.0  0.94743  0.51407  0.04219  1.0000
  H   H2887     1.0  0.93587  0.50107  0.23247  1.0000
  C   C1802     1.0  0.86380  0.51588  0.00384  1.0000
  C   C1803     1.0  0.99501  0.58233  0.09085  1.0000
  H   H2888     1.0  0.86727  0.39615  0.01581  1.0000
  C   C1804     1.0  0.93311  0.50468  0.40752  1.0000
  C   C1805     1.0  0.94346  0.49718  0.23424  1.0000
  H   H2889     1.0  0.92216  0.47428  0.48189  1.0000
  H   H2890     1.0  0.89357  0.51823  0.46001  1.0000
  H   H2891     1.0  0.86072  0.48749  0.00798  1.0000
  H   H2892     1.0  0.84263  0.51990  0.19853  1.0000
  H   H2893     1.0  0.95502  0.51315  0.41327  1.0000
  H   H2894     1.0  0.95894  0.49898  0.03817  1.0000
  H   H2895     1.0  0.94526  0.52983  0.35311  1.0000
  H   H2896     1.0  0.92764  0.49497  0.03562  1.0000
  Fe  Fe361     1.0  0.92613  0.51655  0.48447  1.0000
  C   C1806     1.0  0.88338  0.40624  0.04053  1.0000
  N   N182      1.0  0.99562  0.59393  0.09752  1.0000
  H   H2897     1.0  0.94677  0.49950  0.25259  1.0000
  H   H2898     1.0  0.98138  0.50209  0.19426  1.0000
  H   H2899     1.0  0.95829  0.52698  0.38629  1.0000
  C   C1807     1.0  0.94941  0.50857  0.36562  1.0000
  C   C1808     1.0  0.83781  0.38666  0.44460  1.0000
  C   C1809     1.0  0.93814  0.52297  0.37025  1.0000
  H   H2900     1.0  0.84813  0.48160  0.39174  1.0000
  S   S722      1.0  0.92883  0.54970  0.47849  1.0000
  C   C1810     1.0  0.97591  0.50641  0.18289  1.0000
  H   H2901     1.0  0.87006  0.46481  0.40723  1.0000
  C   C1811     1.0  0.86343  0.51057  0.47194  1.0000
  H   H2902     1.0  0.86716  0.49429  0.41672  1.0000
  H   H2903     1.0  0.86200  0.51779  0.02477  1.0000
  H   H2904     1.0  0.86661  0.47004  0.45399  1.0000
  Fe  Fe362     1.0  0.93770  0.54121  0.44547  1.0000
  S   S723      1.0  0.95296  0.54895  0.40464  1.0000
  S   S724      1.0  0.93702  0.53563  0.05040  1.0000
  Fe  Fe363     1.0  0.96959  0.56023  0.22935  1.0000
  S   S725      1.0  0.97792  0.57505  0.18818  1.0000
  S   S726      1.0  0.95601  0.56113  0.26885  1.0000
  Fe  Fe364     1.0  0.97994  0.54298  0.20253  1.0000
  S   S727      1.0  0.98908  0.55623  0.16044  1.0000
  S   S728      1.0  0.98201  0.52450  0.20785  1.0000
  Fe  Fe365     1.0  0.99452  0.56863  0.18747  1.0000
  H   H2905     1.0  0.95632  0.52171  0.14191  1.0000
  Fe  Fe366     1.0  0.97201  0.56152  0.16379  1.0000
  S   S729      1.0  0.96577  0.56608  0.12170  1.0000
  S   S730      1.0  0.98645  0.55462  0.22968  1.0000
  S   S731      1.0  0.96255  0.54743  0.20493  1.0000
  H   H2906     1.0  0.92799  0.50852  0.42309  1.0000
  H   H2907     1.0  0.94958  0.56103  0.03793  1.0000
  H   H2908     1.0  0.97165  0.55150  0.35479  1.0000
  S   S732      1.0  0.92112  0.52760  0.44843  1.0000
  H   H2909     1.0  0.84538  0.50800  0.00729  1.0000
  H   H2910     1.0  0.87742  0.48559  0.40931  1.0000
  C   C1812     1.0  0.91576  0.47817  0.47346  1.0000
  C   C1813     1.0  0.84510  0.40173  0.39947  1.0000
  H   H2911     1.0  0.96050  0.57237  0.06609  1.0000
  H   H2912     1.0  0.00322  0.60366  0.12482  1.0000
  H   H2913     1.0  0.84888  0.45687  0.00275  1.0000
  H   H2914     1.0  0.97793  0.59368  0.09397  1.0000
  H   H2915     1.0  0.94240  0.52937  0.10584  1.0000
  C   C1814     1.0  0.97499  0.51770  0.18504  1.0000
  H   H2916     1.0  0.96770  0.53219  0.17025  1.0000
  C   C1815     1.0  0.96821  0.52336  0.16950  1.0000
  H   H2917     1.0  0.92682  0.50008  0.39693  1.0000
  C   C1816     1.0  0.89570  0.39596  0.01528  1.0000
  C   C1817     1.0  0.95340  0.55182  0.36710  1.0000
  C   C1818     1.0  0.96400  0.55264  0.34708  1.0000
  C   C1819     1.0  0.96487  0.55511  0.31706  1.0000
  C   C1820     1.0  0.95520  0.55706  0.30658  1.0000
  C   C1821     1.0  0.94457  0.55614  0.32665  1.0000
  C   C1822     1.0  0.94363  0.55344  0.35671  1.0000
  H   H2918     1.0  0.97313  0.55589  0.30196  1.0000
  H   H2919     1.0  0.93705  0.55770  0.31882  1.0000
  H   H2920     1.0  0.93544  0.55296  0.37171  1.0000
  C   C1823     1.0  0.94517  0.54433  0.06962  1.0000
  C   C1824     1.0  0.94638  0.53877  0.09692  1.0000
  C   C1825     1.0  0.95261  0.54521  0.11302  1.0000
  C   C1826     1.0  0.95783  0.55739  0.10215  1.0000
  C   C1827     1.0  0.95663  0.56297  0.07486  1.0000
  C   C1828     1.0  0.95040  0.55653  0.05874  1.0000
  H   H2921     1.0  0.95325  0.54079  0.13404  1.0000
  H   H2922     1.0  0.98359  0.60352  0.11435  1.0000
  Fe  Fe367     1.0  0.93017  0.53473  0.00926  1.0000
  C   C1829     1.0  0.96184  0.51748  0.15320  1.0000
  H   H2923     1.0  0.97900  0.58782  0.12963  1.0000
  H   H2924     1.0  0.87429  0.40630  0.05140  1.0000
  S   S733      1.0  0.94334  0.52936  0.47942  1.0000
  H   H2925     1.0  0.93372  0.52768  0.38490  1.0000
  N   N183      1.0  0.94291  0.51395  0.38622  1.0000
  H   H2926     1.0  0.94452  0.50941  0.08085  1.0000
  H   H2927     1.0  0.99848  0.58795  0.13950  1.0000
  H   H2928     1.0  0.94630  0.52347  0.41777  1.0000
  S   S734      1.0  0.91573  0.51821  0.01495  1.0000
  C   C1830     1.0  0.00256  0.59504  0.11910  1.0000
  C   C1831     1.0  0.95101  0.51960  0.40152  1.0000
  C   C1832     1.0  0.87804  0.38488  0.05243  1.0000
  H   H2929     1.0  0.93638  0.49784  0.42046  1.0000
  H   H2930     1.0  0.84802  0.48247  0.99528  1.0000
  S   S735      1.0  0.91175  0.42516  0.00704  1.0000
  Fe  Fe368     1.0  0.91250  0.53498  0.48354  1.0000
  H   H2931     1.0  0.87751  0.50491  0.44812  1.0000
  C   C1833     1.0  0.87656  0.39606  0.00675  1.0000
  H   H2932     1.0  0.92234  0.45099  0.99388  1.0000
  C   C1834     1.0  0.84211  0.51027  0.20247  1.0000
  H   H2933     1.0  0.89989  0.40390  0.99677  1.0000
  H   H2934     1.0  0.00192  0.61238  0.07505  1.0000
  C   C1835     1.0  0.88450  0.51822  0.46842  1.0000
  C   C1836     1.0  0.00134  0.60349  0.07079  1.0000
  C   C1837     1.0  0.87069  0.46970  0.99997  1.0000
  H   H2935     1.0  0.87715  0.47732  0.00260  1.0000
  H   H2936     1.0  0.87631  0.38832  0.99730  1.0000
  H   H2937     1.0  0.88046  0.40415  0.98853  1.0000
  H   H2938     1.0  0.94836  0.51519  0.54228  1.0000
  C   C1838     1.0  0.90726  0.46946  0.96145  1.0000
  H   H2939     1.0  0.93002  0.48842  0.82264  1.0000
  H   H2940     1.0  0.88877  0.54117  0.92100  1.0000
  H   H2941     1.0  0.93060  0.46142  0.87576  1.0000
  Fe  Fe369     1.0  0.89395  0.44734  0.93403  1.0000
  H   H2942     1.0  0.96320  0.43237  0.68683  1.0000
  H   H2943     1.0  0.90853  0.45418  0.56477  1.0000
  Fe  Fe370     1.0  0.90814  0.43422  0.89968  1.0000
  S   S736      1.0  0.90157  0.41746  0.93671  1.0000
  S   S737      1.0  0.92345  0.43998  0.85857  1.0000
  Fe  Fe371     1.0  0.88344  0.42102  0.94016  1.0000
  S   S738      1.0  0.86443  0.40869  0.95372  1.0000
  C   C1839     1.0  0.93176  0.50315  0.59087  1.0000
  H   H2944     1.0  0.99537  0.57362  0.80214  1.0000
  S   S739      1.0  0.89001  0.43713  0.90186  1.0000
  S   S740      1.0  0.91242  0.44561  0.92968  1.0000
  Fe  Fe372     1.0  0.94208  0.45636  0.68348  1.0000
  S   S741      1.0  0.92930  0.44302  0.72386  1.0000
  Fe  Fe373     1.0  0.95069  0.48194  0.64859  1.0000
  C   C1840     1.0  0.89367  0.44770  0.53328  1.0000
  H   H2945     1.0  0.86136  0.48571  0.94725  1.0000
  Fe  Fe374     1.0  0.94753  0.46274  0.61598  1.0000
  S   S742      1.0  0.94220  0.46293  0.57266  1.0000
  S   S743      1.0  0.93519  0.46735  0.65071  1.0000
  S   S744      1.0  0.95649  0.47154  0.68430  1.0000
  H   H2946     1.0  0.92408  0.48704  0.90125  1.0000
  H   H2947     1.0  0.94754  0.52046  0.66824  1.0000
  H   H2948     1.0  0.88771  0.47252  0.54986  1.0000
  C   C1841     1.0  0.97237  0.43100  0.73300  1.0000
  C   C1842     1.0  0.95679  0.42846  0.70840  1.0000
  H   H2949     1.0  0.92523  0.48091  0.58480  1.0000
  N   N184      1.0  0.96094  0.43349  0.73092  1.0000
  H   H2950     1.0  0.94611  0.50400  0.52262  1.0000
  C   C1843     1.0  0.92863  0.48818  0.56451  1.0000
  C   C1844     1.0  0.94184  0.50744  0.54043  1.0000
  H   H2951     1.0  0.96910  0.45079  0.70200  1.0000
  S   S745      1.0  0.91229  0.43129  0.50611  1.0000
  C   C1845     1.0  0.95211  0.42813  0.75905  1.0000
  N   N185      1.0  0.93736  0.49817  0.56798  1.0000
  C   C1846     1.0  0.91593  0.47701  0.96947  1.0000
  H   H2952     1.0  0.94308  0.47332  0.85489  1.0000
  H   H2953     1.0  0.92567  0.47230  0.91200  1.0000
  H   H2954     1.0  0.87940  0.46238  0.53410  1.0000
  H   H2955     1.0  0.91063  0.46511  0.88666  1.0000
  C   C1847     1.0  0.95737  0.50738  0.66490  1.0000
  H   H2956     1.0  0.95549  0.41869  0.71353  1.0000
  H   H2957     1.0  0.89649  0.43999  0.54405  1.0000
  H   H2958     1.0  0.92104  0.49107  0.55825  1.0000
  C   C1848     1.0  0.94725  0.49391  0.57608  1.0000
  H   H2959     1.0  0.92178  0.47337  0.98085  1.0000
  H   H2960     1.0  0.86994  0.50982  0.92821  1.0000
  Fe  Fe375     1.0  0.90458  0.42949  0.96661  1.0000
  H   H2961     1.0  0.96544  0.45058  0.73967  1.0000
  H   H2962     1.0  0.95403  0.44855  0.72107  1.0000
  C   C1849     1.0  0.89993  0.47414  0.94594  1.0000
  H   H2963     1.0  0.97569  0.43465  0.74991  1.0000
  S   S746      1.0  0.96289  0.47813  0.61260  1.0000
  Fe  Fe376     1.0  0.96779  0.46665  0.64828  1.0000
  H   H2964     1.0  0.90453  0.46763  0.56822  1.0000
  N   N186      1.0  0.89290  0.45622  0.55121  1.0000
  H   H2965     1.0  0.99011  0.59215  0.80754  1.0000
  S   S747      1.0  0.89002  0.46503  0.93265  1.0000
  H   H2966     1.0  0.91595  0.55863  0.93293  1.0000
  H   H2967     1.0  0.93837  0.48425  0.89271  1.0000
  C   C1850     1.0  0.86779  0.48217  0.95780  1.0000
  C   C1851     1.0  0.91709  0.48924  0.96273  1.0000
  H   H2968     1.0  0.98166  0.50634  0.69063  1.0000
  H   H2969     1.0  0.95463  0.43210  0.77636  1.0000
  H   H2970     1.0  0.90068  0.53612  0.59309  1.0000
  H   H2971     1.0  0.94404  0.48690  0.59677  1.0000
  H   H2972     1.0  0.88814  0.44278  0.59126  1.0000
  H   H2973     1.0  0.91020  0.50322  0.94302  1.0000
  H   H2974     1.0  0.90895  0.47980  0.87681  1.0000
  H   H2975     1.0  0.99115  0.52485  0.57298  1.0000
  C   C1852     1.0  0.85643  0.50817  0.96651  1.0000
  H   H2976     1.0  0.95399  0.50114  0.57920  1.0000
  H   H2977     1.0  0.93265  0.48430  0.54725  1.0000
  C   C1853     1.0  0.96697  0.50341  0.67133  1.0000
  S   S748      1.0  0.95360  0.45061  0.64896  1.0000
  C   C1854     1.0  0.90936  0.49384  0.94843  1.0000
  C   C1855     1.0  0.96247  0.44642  0.72310  1.0000
  H   H2978     1.0  0.90023  0.45181  0.51202  1.0000
  H   H2979     1.0  0.87266  0.47794  0.94272  1.0000
  H   H2980     1.0  0.95165  0.48998  0.55947  1.0000
  H   H2981     1.0  0.86792  0.53180  0.50882  1.0000
  H   H2982     1.0  0.94817  0.43025  0.70629  1.0000
  H   H2983     1.0  0.97922  0.43508  0.71213  1.0000
  H   H2984     1.0  0.89416  0.47065  0.51527  1.0000
  H   H2985     1.0  0.91065  0.42989  0.77438  1.0000
  H   H2986     1.0  0.94329  0.42953  0.75777  1.0000
  H   H2987     1.0  0.91237  0.47204  0.84948  1.0000
  H   H2988     1.0  0.93172  0.46761  0.83845  1.0000
  H   H2989     1.0  0.96902  0.49588  0.66446  1.0000
  C   C1856     1.0  0.85413  0.39745  0.94534  1.0000
  C   C1857     1.0  0.85763  0.39051  0.92694  1.0000
  C   C1858     1.0  0.84915  0.38133  0.92243  1.0000
  H   H2990     1.0  0.97111  0.52061  0.60589  1.0000
  H   H2991     1.0  0.98859  0.53765  0.55101  1.0000
  C   C1859     1.0  0.84198  0.39514  0.95861  1.0000
  H   H2992     1.0  0.86689  0.39206  0.91665  1.0000
  H   H2993     1.0  0.85207  0.37590  0.90872  1.0000
  H   H2994     1.0  0.98704  0.49039  0.65264  1.0000
  C   C1860     1.0  0.92087  0.44022  0.52393  1.0000
  C   C1861     1.0  0.92714  0.45202  0.51081  1.0000
  C   C1862     1.0  0.93361  0.45874  0.52597  1.0000
  C   C1863     1.0  0.93397  0.45382  0.55454  1.0000
  C   C1864     1.0  0.92766  0.44202  0.56771  1.0000
  C   C1865     1.0  0.92121  0.43530  0.55252  1.0000
  S   S749      1.0  0.94878  0.50042  0.64505  1.0000
  H   H2995     1.0  0.93846  0.46782  0.51530  1.0000
  H   H2996     1.0  0.92782  0.43802  0.58955  1.0000
  H   H2997     1.0  0.91648  0.42618  0.56299  1.0000
  C   C1866     1.0  0.92412  0.44164  0.82110  1.0000
  C   C1867     1.0  0.93405  0.44954  0.80045  1.0000
  C   C1868     1.0  0.93543  0.45061  0.77056  1.0000
  C   C1869     1.0  0.92709  0.44342  0.76089  1.0000
  C   C1870     1.0  0.91714  0.43555  0.78151  1.0000
  C   C1871     1.0  0.91556  0.43478  0.81137  1.0000
  H   H2998     1.0  0.94079  0.45483  0.80765  1.0000
  H   H2999     1.0  0.94307  0.45681  0.75513  1.0000
  C   C1872     1.0  0.88832  0.46585  0.53707  1.0000
  H   H3000     1.0  0.90793  0.42857  0.82691  1.0000
  C   C1873     1.0  0.90085  0.48632  0.93989  1.0000
  S   S750      1.0  0.92868  0.49860  0.97074  1.0000
  S   S751      1.0  0.88616  0.43184  0.97242  1.0000
  C   C1874     1.0  0.91418  0.47369  0.86996  1.0000
  H   H3001     1.0  0.98532  0.58678  0.73852  1.0000
  H   H3002     1.0  0.93452  0.51072  0.53379  1.0000
  H   H3003     1.0  0.89521  0.49001  0.92790  1.0000
  S   S752      1.0  0.98681  0.46614  0.64897  1.0000
  S   S753      1.0  0.92525  0.49725  0.49106  1.0000
  H   H3004     1.0  0.92652  0.49640  0.84931  1.0000
  Fe  Fe377     1.0  0.92617  0.51657  0.97318  1.0000
  H   H3005     1.0  0.88505  0.44416  0.52888  1.0000
  N   N187      1.0  0.92693  0.47849  0.86666  1.0000
  C   C1875     1.0  0.93339  0.46988  0.85852  1.0000
  C   C1876     1.0  0.93128  0.48974  0.84384  1.0000
  H   H3006     1.0  0.94086  0.49366  0.84086  1.0000
  C   C1877     1.0  0.90475  0.46125  0.55458  1.0000
  C   C1878     1.0  0.98887  0.59358  0.78523  1.0000
  C   C1879     1.0  0.88485  0.45004  0.57999  1.0000
  C   C1880     1.0  0.92886  0.48063  0.89430  1.0000
  H   H3007     1.0  0.97161  0.42131  0.73856  1.0000
  H   H3008     1.0  0.93817  0.51071  0.59395  1.0000
  H   H3009     1.0  0.97940  0.58944  0.78714  1.0000
  H   H3010     1.0  0.84131  0.39018  0.83689  1.0000
  H   H3011     1.0  0.88933  0.55011  0.94640  1.0000
  C   C1881     1.0  0.99472  0.59053  0.73769  1.0000
  S   S754      1.0  0.84487  0.50147  0.95228  1.0000
  H   H3012     1.0  0.99535  0.55462  0.58760  1.0000
  H   H3013     1.0  0.91501  0.54208  0.59819  1.0000
  C   C1882     1.0  0.95497  0.51734  0.67314  1.0000
  Fe  Fe378     1.0  0.93114  0.54246  0.94368  1.0000
  S   S755      1.0  0.93873  0.55772  0.90246  1.0000
  S   S756      1.0  0.93864  0.53688  0.55606  1.0000
  Fe  Fe379     1.0  0.97170  0.56551  0.72776  1.0000
  S   S757      1.0  0.98162  0.57950  0.68600  1.0000
  S   S758      1.0  0.96253  0.57162  0.76585  1.0000
  Fe  Fe380     1.0  0.98015  0.54641  0.70395  1.0000
  S   S759      1.0  0.99094  0.55893  0.66201  1.0000
  S   S760      1.0  0.98177  0.52775  0.70889  1.0000
  Fe  Fe381     1.0  0.99689  0.57129  0.68863  1.0000
  H   H3014     1.0  0.87586  0.44599  0.57820  1.0000
  Fe  Fe382     1.0  0.97480  0.56585  0.66273  1.0000
  S   S761      1.0  0.96912  0.56932  0.61978  1.0000
  S   S762      1.0  0.98717  0.55792  0.73072  1.0000
  S   S763      1.0  0.96372  0.55280  0.70426  1.0000
  C   C1883     1.0  0.99577  0.48922  0.65224  1.0000
  H   H3015     1.0  0.95400  0.56140  0.53675  1.0000
  C   C1884     1.0  0.89710  0.56408  0.89157  1.0000
  H   H3016     1.0  0.83942  0.37824  0.86785  1.0000
  H   H3017     1.0  0.98236  0.55308  0.57399  1.0000
  H   H3018     1.0  0.99993  0.57138  0.76670  1.0000
  H   H3019     1.0  0.90475  0.56857  0.56935  1.0000
  H   H3020     1.0  0.85175  0.51824  0.49734  1.0000
  H   H3021     1.0  0.90915  0.56098  0.59952  1.0000
  H   H3022     1.0  0.90602  0.56790  0.93610  1.0000
  H   H3023     1.0  0.89518  0.55493  0.59295  1.0000
  H   H3024     1.0  0.90337  0.57160  0.87424  1.0000
  H   H3025     1.0  0.94203  0.53274  0.61376  1.0000
  S   S764      1.0  0.91691  0.52664  0.94522  1.0000
  H   H3026     1.0  0.98104  0.55138  0.61181  1.0000
  H   H3027     1.0  0.87429  0.48983  0.96005  1.0000
  H   H3028     1.0  0.92782  0.56086  0.56630  1.0000
  H   H3029     1.0  0.92339  0.56854  0.53622  1.0000
  C   C1885     1.0  0.94542  0.56039  0.86470  1.0000
  C   C1886     1.0  0.94890  0.55186  0.85119  1.0000
  C   C1887     1.0  0.95424  0.55496  0.82086  1.0000
  C   C1888     1.0  0.95599  0.56657  0.80398  1.0000
  C   C1889     1.0  0.95242  0.57491  0.81775  1.0000
  C   C1890     1.0  0.94728  0.57189  0.84761  1.0000
  H   H3030     1.0  0.95692  0.54839  0.81061  1.0000
  H   H3031     1.0  0.95365  0.58386  0.80518  1.0000
  H   H3032     1.0  0.94470  0.57858  0.85757  1.0000
  C   C1891     1.0  0.94715  0.54615  0.57325  1.0000
  C   C1892     1.0  0.94714  0.54167  0.60232  1.0000
  C   C1893     1.0  0.95370  0.54859  0.61692  1.0000
  C   C1894     1.0  0.96041  0.56017  0.60271  1.0000
  C   C1895     1.0  0.96036  0.56467  0.57369  1.0000
  C   C1896     1.0  0.95382  0.55774  0.55905  1.0000
  H   H3033     1.0  0.95351  0.54497  0.63927  1.0000
  H   H3034     1.0  0.96547  0.57360  0.56235  1.0000
  C   C1897     1.0  0.99181  0.53447  0.57028  1.0000
  H   H3035     1.0  0.90528  0.54637  0.87605  1.0000
  H   H3036     1.0  0.92718  0.45589  0.48875  1.0000
  H   H3037     1.0  0.91106  0.46603  0.53330  1.0000
  N   N188      1.0  0.91029  0.55300  0.56376  1.0000
  H   H3038     1.0  0.90794  0.54629  0.52714  1.0000
  C   C1898     1.0  0.98601  0.54949  0.59216  1.0000
  H   H3039     1.0  0.92728  0.55487  0.53582  1.0000
  H   H3040     1.0  0.91759  0.55900  0.86977  1.0000
  H   H3041     1.0  0.84540  0.37687  0.83227  1.0000
  H   H3042     1.0  0.92427  0.50652  0.58546  1.0000
  H   H3043     1.0  0.88663  0.51881  0.94655  1.0000
  H   H3044     1.0  0.95096  0.41841  0.76611  1.0000
  N   N189      1.0  0.99674  0.58843  0.76695  1.0000
  H   H3045     1.0  0.96696  0.53195  0.62138  1.0000
  C   C1899     1.0  0.92272  0.55963  0.54993  1.0000
  N   N190      1.0  0.98492  0.53666  0.59646  1.0000
  C   C1900     1.0  0.90459  0.55967  0.58223  1.0000
  H   H3046     1.0  0.98827  0.52254  0.62637  1.0000
  C   C1901     1.0  0.90396  0.55141  0.54122  1.0000
  S   S765      1.0  0.94126  0.53214  0.96880  1.0000
  S   S766      1.0  0.91660  0.52298  0.51965  1.0000
  H   H3047     1.0  0.94756  0.54294  0.86405  1.0000
  H   H3048     1.0  0.89453  0.54645  0.55073  1.0000
  H   H3049     1.0  0.90417  0.56004  0.52689  1.0000
  H   H3050     1.0  0.96863  0.53340  0.58354  1.0000
  Fe  Fe383     1.0  0.90717  0.52923  0.98680  1.0000
  H   H3051     1.0  0.99052  0.60327  0.77602  1.0000
  H   H3052     1.0  0.91556  0.54612  0.89808  1.0000
  H   H3053     1.0  0.98479  0.57104  0.78136  1.0000
  H   H3054     1.0  0.89936  0.54105  0.94218  1.0000
  C   C1902     1.0  0.87768  0.51655  0.95983  1.0000
  Fe  Fe384     1.0  0.93358  0.53685  0.51262  1.0000
  C   C1903     1.0  0.91116  0.56400  0.92066  1.0000
  S   S767      1.0  0.92073  0.54604  0.98397  1.0000
  H   H3055     1.0  0.83910  0.40039  0.97290  1.0000
  C   C1904     1.0  0.87003  0.52583  0.49582  1.0000
  H   H3056     1.0  0.99696  0.60015  0.72687  1.0000
  C   C1905     1.0  0.90990  0.54126  0.58168  1.0000
  C   C1906     1.0  0.96226  0.52343  0.68735  1.0000
  H   H3057     1.0  0.91802  0.57133  0.90409  1.0000
  H   H3058     1.0  0.96034  0.53110  0.69344  1.0000
  H   H3059     1.0  0.88397  0.45620  0.59411  1.0000
  H   H3060     1.0  0.00281  0.50690  0.65565  1.0000
  H   H3061     1.0  0.92842  0.49643  0.61214  1.0000
  H   H3062     1.0  0.90633  0.46003  0.96717  1.0000
  H   H3063     1.0  0.91381  0.53588  0.56822  1.0000
  C   C1907     1.0  0.97238  0.53036  0.60196  1.0000
  C   C1908     1.0  0.97190  0.51950  0.69374  1.0000
  N   N191      1.0  0.90346  0.55669  0.90728  1.0000
  C   C1909     1.0  0.98944  0.53231  0.62153  1.0000
  C   C1910     1.0  0.86817  0.51140  0.94950  1.0000
  C   C1911     1.0  0.89485  0.54685  0.93010  1.0000
  C   C1912     1.0  0.83875  0.38036  0.84500  1.0000
  C   C1913     1.0  0.97417  0.50938  0.68598  1.0000
  H   H3064     1.0  0.89121  0.55883  0.88122  1.0000
  C   C1914     1.0  0.91074  0.55184  0.88684  1.0000
  H   H3065     1.0  0.89151  0.56786  0.90643  1.0000
  C   C1915     1.0  0.87554  0.51902  0.98694  1.0000
  H   H3066     1.0  0.98469  0.53425  0.64136  1.0000
  H   H3067     1.0  0.00133  0.53912  0.56543  1.0000
  S   S768      1.0  0.89335  0.53612  0.49299  1.0000
  H   H3068     1.0  0.00016  0.58636  0.72360  1.0000
  H   H3069     1.0  0.99898  0.53657  0.61783  1.0000
  C   C1916     1.0  0.99803  0.47832  0.65041  1.0000
  C   C1917     1.0  0.99411  0.57555  0.77986  1.0000
  H   H3070     1.0  0.85870  0.45872  0.96802  1.0000
  H   H3071     1.0  0.84708  0.46617  0.97088  1.0000
  H   H3072     1.0  0.87581  0.46500  0.98678  1.0000
  C   C1918     1.0  0.83700  0.37904  0.93572  1.0000
  C   C1919     1.0  0.86082  0.51812  0.48939  1.0000
  C   C1920     1.0  0.85375  0.46339  0.98182  1.0000
  N   N192      1.0  0.86179  0.47369  0.98614  1.0000
