data_image0
_chemical_formula_structural       FeS2FeS2FeSFeS3FeS2FeS2FeSFeS3FeS2FeS2FeSFeS3FeS2FeS2FeSFeS3FeS2FeS2FeSFeS3FeS2FeS2FeSFeS3FeS2FeS2FeSFeS3FeS2FeS2FeSFeS3FeS2FeS2FeSFeS3FeS2FeS2FeSFeS3FeS2FeS2FeSFeS3FeS2FeS2FeSFeS3FeS2FeS2FeSFeS3FeS2FeS2FeSFeS3FeS2FeS2FeSFeS3FeS2FeS2FeSFeS3C6H4C6H4C6H4C6H4C6H4C6H4C6H4C6H4C6H4C6H4C6H4C6H4C6H4C6H4C6H4C6H4C6H4C6H4C6H4C6H4C6H4C6H4C6H4C6H4C6H4C6H4C6H4C6H4C6H4C6H4C6H4C6H4NC4H12NC4H12NC4H12NC4H12NC4H12NC4H12NC4H12NC4H12NC4H12NC4H12NC4H12NC4H12NC4H12NC4H12NC4H12NC4H12NC4H12NC4H12NC4H12NC4H12NC4H12NC4H12NC4H12NC4H12NC4H12NC4H12NC4H12NC4H12NC4H12NC4H12NC4H12NC4H12
_chemical_formula_sum              "Fe64 S128 C320 H512 N32"
_cell_length_a       30.6472004182374
_cell_length_b       22.533401676695345
_cell_length_c       36.92562805607707
_cell_angle_alpha    90.39349017153474
_cell_angle_beta     89.97948313044225
_cell_angle_gamma    90.14517232877044

_space_group_name_H-M_alt    "P 1"
_space_group_IT_number       1

loop_
  _space_group_symop_operation_xyz
  'x, y, z'

loop_
  _atom_site_type_symbol
  _atom_site_label
  _atom_site_symmetry_multiplicity
  _atom_site_fract_x
  _atom_site_fract_y
  _atom_site_fract_z
  _atom_site_occupancy
  Fe  Fe1       1.0  0.9255451356190533  0.49869641872706816  0.434073898075126  1.0000
  S   S1        1.0  0.9696809518612389  0.43668511300265866  0.4039376167520382  1.0000
  S   S2        1.0  0.9337368791852322  0.5971897762164898  0.43301571657371657  1.0000
  Fe  Fe2       1.0  0.8676979312668639  0.4002333895030939  0.46219669645806055  1.0000
  S   S3        1.0  0.9057861310075125  0.3288628870705108  0.4339881471988124  1.0000
  S   S4        1.0  0.8070908283428472  0.38461566428129146  0.4946734297228258  1.0000
  Fe  Fe3       1.0  0.9641128907597268  0.3804175302631367  0.4533287421053928  1.0000
  S   S5        1.0  0.021334654255308116  0.333395659317568  0.4767967686608353  1.0000
  Fe  Fe4       1.0  0.9074884774349498  0.3917885159712884  0.38733307346310314  1.0000
  S   S6        1.0  0.8948572983947238  0.36716238177389515  0.3295003610697878  1.0000
  S   S7        1.0  0.925821100722364  0.4470496901963898  0.48541803712906517  1.0000
  S   S8        1.0  0.8635288179004206  0.4585780923391412  0.4136504132851743  1.0000
  Fe  Fe5       1.0  0.27455408740551335  0.5852419726493323  0.4761424370370979  1.0000
  S   S9        1.0  0.2724015496000454  0.4864219809106763  0.47059072593863877  1.0000
  S   S10       1.0  0.3377394871169896  0.634831225822673  0.4790686354563607  1.0000
  Fe  Fe6       1.0  0.17622073629642696  0.5987534214726856  0.4705929288198118  1.0000
  S   S11       1.0  0.16539978159589236  0.5007626585196449  0.46402633775355345  1.0000
  S   S12       1.0  0.12721044840099616  0.6723103290886674  0.4694490508306305  1.0000
  Fe  Fe7       1.0  0.21522795857129084  0.492969786902412  0.5082623300705522  1.0000
  S   S13       1.0  0.20668874772298335  0.4240783933443749  0.5513582297045267  1.0000
  Fe  Fe8       1.0  0.22338488754754898  0.5038445373977796  0.427069198380909  1.0000
  S   S14       1.0  0.22717834022579045  0.4580035015821721  0.3729881022645184  1.0000
  S   S15       1.0  0.22156071605115957  0.5912685972838622  0.5176624181734895  1.0000
  S   S16       1.0  0.22975826636267793  0.602815449512764  0.4296962006629651  1.0000
  Fe  Fe9       1.0  0.41541164851195844  0.7706200728228615  0.6403779468876079  1.0000
  S   S17       1.0  0.3640544904849818  0.8296079985546997  0.6638222618481447  1.0000
  S   S18       1.0  0.40458902435071076  0.6719808916235996  0.6379934636392437  1.0000
  Fe  Fe10      1.0  0.4757223403799237  0.871955640737829  0.6242588323669696  1.0000
  S   S19       1.0  0.43034452137332846  0.9418976326617949  0.6460166782255291  1.0000
  S   S20       1.0  0.5430791678427475  0.8861990071585601  0.6021527829448361  1.0000
  Fe  Fe11      1.0  0.41894467442702993  0.8773629523515175  0.6910159755208735  1.0000
  S   S21       1.0  0.40631686624658314  0.9094467824302965  0.7475344657978643  1.0000
  Fe  Fe12      1.0  0.37831291245806264  0.8897754443647627  0.6173816397726273  1.0000
  S   S22       1.0  0.3177344203616454  0.9281272887803348  0.5931731079473157  1.0000
  S   S23       1.0  0.4695495387704903  0.8123761798722479  0.6723811833537214  1.0000
  S   S24       1.0  0.42449350916278455  0.8263536278210261  0.5907697708870476  1.0000
  Fe  Fe13      1.0  0.7942882237222998  0.58724516829936  0.6493818046936152  1.0000
  S   S25       1.0  0.828625571289295  0.6690332084806728  0.6689656650967949  1.0000
  S   S26       1.0  0.8337984312190188  0.503695055956553  0.6478356935438592  1.0000
  Fe  Fe14      1.0  0.7105151701788066  0.6529755035128961  0.6334584784987369  1.0000
  S   S27       1.0  0.737879478727998  0.7407288891985172  0.6515935867327758  1.0000
  S   S28       1.0  0.6405270980495598  0.6413743607232505  0.6164178313025017  1.0000
  Fe  Fe15      1.0  0.7975452208519818  0.7124006467418109  0.6211445352785886  1.0000
  S   S29       1.0  0.8382158426847734  0.7759788503689435  0.5889768428142232  1.0000
  Fe  Fe16      1.0  0.7659818625117016  0.6894868594336955  0.6976001123701462  1.0000
  S   S30       1.0  0.7592541762249208  0.7247125049329491  0.7543839830867886  1.0000
  S   S31       1.0  0.7680697074107673  0.628694238741388  0.5988678082316772  1.0000
  S   S32       1.0  0.7339624719555001  0.6034219361662181  0.682219215020351  1.0000
  Fe  Fe17      1.0  0.9830294471951614  0.9205510583069281  0.9282612482202469  1.0000
  S   S33       1.0  0.9584412024572182  0.8536295349921836  0.96797695254108  1.0000
  S   S34       1.0  0.026893696917442922  0.9968631880936425  0.9424536652275455  1.0000
  Fe  Fe18      1.0  0.9354370592517702  0.8637299678101484  0.8653927681015312  1.0000
  S   S35       1.0  0.906803078680951  0.7916158773671502  0.8995629671019929  1.0000
  S   S36       1.0  0.9256197235868372  0.868708029209909  0.805439180604325  1.0000
  Fe  Fe19      1.0  0.8946702945701617  0.8647752590944333  0.9396094473039832  1.0000
  S   S37       1.0  0.8314342658118866  0.8693500748468811  0.9695935748423438  1.0000
  Fe  Fe20      1.0  0.9731868641234059  0.787514932671074  0.9242444890943574  1.0000
  S   S38       1.0  0.0047423243655715375  0.7016276381453151  0.9389931309343753  1.0000
  S   S39       1.0  0.9175711972334796  0.9376869795308339  0.9033427699194597  1.0000
  S   S40       1.0  0.0034331552290647327  0.8536276924429281  0.8868007832471131  1.0000
  Fe  Fe21      1.0  0.2944661897297401  0.6403311666187607  0.9551432495775063  1.0000
  S   S41       1.0  0.34624011081578726  0.710771072295865  0.9527011360740376  1.0000
  S   S42       1.0  0.29628763118841533  0.5636366591266302  0.9934537596452283  1.0000
  Fe  Fe22      1.0  0.24027856859727187  0.6950631427452012  0.8955037150682875  1.0000
  S   S43       1.0  0.28679083427466445  0.7707256245976504  0.8883385634547821  1.0000
  S   S44       1.0  0.18446972059572467  0.6913991863566388  0.8562717248477917  1.0000
  Fe  Fe23      1.0  0.33859136289909253  0.7012723353494851  0.8925853522627845  1.0000
  S   S45       1.0  0.3923759009233847  0.6898107730515196  0.8521211068648199  1.0000
  Fe  Fe24      1.0  0.28959048506188384  0.7730905312721836  0.9490480090372251  1.0000
  S   S46       1.0  0.2860618327412726  0.8589368370728935  0.9803479703708338  1.0000
  S   S47       1.0  0.29177171021013987  0.6251127925058454  0.8952353154488544  1.0000
  S   S48       1.0  0.23795130341015622  0.7035589424847902  0.956016787823304  1.0000
  Fe  Fe25      1.0  0.42837702710027564  0.5430276073715735  0.16378418267929376  1.0000
  S   S49       1.0  0.3673538606567724  0.5168693302813774  0.19326351439631  1.0000
  S   S50       1.0  0.43481585006107254  0.6066602825530403  0.11760149245613544  1.0000
  Fe  Fe26      1.0  0.48707112248385154  0.46488532663260185  0.20909306752246748  1.0000
  S   S51       1.0  0.4319450637779504  0.4303988183737953  0.24308019018213006  1.0000
  S   S52       1.0  0.5564711379519699  0.4346177955083304  0.21305376315382057  1.0000
  Fe  Fe27      1.0  0.39511847874235523  0.42485549232725806  0.19069118166089424  1.0000
  S   S53       1.0  0.35898618042105335  0.34425100269644116  0.1712962636971627  1.0000
  Fe  Fe28      1.0  0.40897250699266446  0.5248091150550622  0.24299883103053954  1.0000
  S   S54       1.0  0.3887573343918807  0.572258013542023  0.29344281551618007  1.0000
  S   S55       1.0  0.4526033190123936  0.4502949131395066  0.15673364193483494  1.0000
  S   S56       1.0  0.4674588853564792  0.560074531737568  0.2139699544341067  1.0000
  Fe  Fe29      1.0  0.824700891639924  0.61246442440533  0.2032706919906667  1.0000
  S   S57       1.0  0.7818601668948549  0.6866008990767991  0.18479221770179696  1.0000
  S   S58       1.0  0.8447171583741043  0.6135721392090577  0.2617846457472248  1.0000
  Fe  Fe30      1.0  0.8399598963280815  0.5673390458361981  0.12653203070371985  1.0000
  S   S59       1.0  0.7988925691713332  0.6385157073362179  0.10174374366154434  1.0000
  S   S60       1.0  0.880294655801392  0.5008816475359242  0.09543135477983575  1.0000
  Fe  Fe31      1.0  0.8316981158553377  0.6995334003329574  0.14141797956113575  1.0000
  S   S61       1.0  0.8625128049380534  0.7881984242558712  0.13034163598816165  1.0000
  Fe  Fe32      1.0  0.7526253024149054  0.6184221241761125  0.14739611248025578  1.0000
  S   S62       1.0  0.680435081853985  0.6207680214411339  0.1361588977086436  1.0000
  S   S63       1.0  0.8767943796083453  0.6302650650346553  0.1624507685734799  1.0000
  S   S64       1.0  0.7914384758455164  0.5422673670321696  0.16951853173625428  1.0000
  Fe  Fe33      1.0  0.9334588727748377  0.0964340741843841  0.7011150320092983  1.0000
  S   S65       1.0  0.9890661928281979  0.03352814268694315  0.6936800076954152  1.0000
  S   S66       1.0  0.8718762989329188  0.06871613091494799  0.7284970865671752  1.0000
  Fe  Fe34      1.0  0.9742364268890674  0.1901392593897484  0.6534131678485713  1.0000
  S   S67       1.0  0.032503779798034094  0.13416259685699505  0.6400009694868329  1.0000
  S   S68       1.0  0.9660492097698685  0.2852668108293366  0.6382300570762341  1.0000
  Fe  Fe35      1.0  0.9838820695392961  0.05968708506783793  0.6352509943230142  1.0000
  S   S69       1.0  0.9786098345009249  0.9878659099516446  0.5930419929142341  1.0000
  Fe  Fe36      1.0  0.0318328461130124  0.11394953491566406  0.6994102698460545  1.0000
  S   S70       1.0  0.08921771919621002  0.12262941572165764  0.7369854755952782  1.0000
  S   S71       1.0  0.9255863908241264  0.11821993668936126  0.6426814204317756  1.0000
  S   S72       1.0  0.9761916539396005  0.1744963915776201  0.7129697882402655  1.0000
  Fe  Fe37      1.0  0.31822475001138995  0.402067394909297  0.712155473438952  1.0000
  S   S73       1.0  0.33506953850581006  0.3460916267520331  0.6637574366667116  1.0000
  S   S74       1.0  0.2876731533625698  0.49057706412434765  0.7025875506477334  1.0000
  Fe  Fe38      1.0  0.3489396535051439  0.31038698552590915  0.7644138140743612  1.0000
  S   S75       1.0  0.36889414455223907  0.2456255574773607  0.720901551088859  1.0000
  S   S76       1.0  0.3490482872349818  0.2923230058822395  0.8239448479670579  1.0000
  Fe  Fe39      1.0  0.39642537483048434  0.3264622674926412  0.693586365689502  1.0000
  S   S77       1.0  0.4592238684223969  0.32500623477068036  0.6621329202680537  1.0000
  Fe  Fe40      1.0  0.30572205874711555  0.27099156686842796  0.6946089871960838  1.0000
  S   S78       1.0  0.26408527772465634  0.20751921806970697  0.6620817101773974  1.0000
  S   S79       1.0  0.38238682136262037  0.3890529836919834  0.7397318347932165  1.0000
  S   S80       1.0  0.28312882681990714  0.3288104226811015  0.7404365560504953  1.0000
  Fe  Fe41      1.0  0.49577003666769887  0.15510625709040182  0.45804769652090177  1.0000
  S   S81       1.0  0.4515237991630712  0.11367697879673955  0.4164277891699769  1.0000
  S   S82       1.0  0.5558872306998734  0.11040174982254491  0.47901682014923136  1.0000
  Fe  Fe42      1.0  0.4415265022766608  0.26521932241758495  0.4664930433623169  1.0000
  S   S83       1.0  0.3928188468941453  0.23457538591975324  0.4254368528398642  1.0000
  S   S84       1.0  0.4282970377381742  0.35242955763573125  0.4939397529134977  1.0000
  Fe  Fe43      1.0  0.3977693429511162  0.14645342251985594  0.4523460013442931  1.0000
  S   S85       1.0  0.33357002850879947  0.1004639738915063  0.4598067236643909  1.0000
  Fe  Fe44      1.0  0.4503752757300221  0.20518940643254524  0.39276060907143556  1.0000
  S   S86       1.0  0.44645930811427825  0.22530670024607446  0.3331783683509016  1.0000
  S   S87       1.0  0.4416443063815517  0.1792584078246482  0.49653932276727464  1.0000
  S   S88       1.0  0.49928905658364753  0.2443185081260959  0.43146723329953324  1.0000
  Fe  Fe45      1.0  0.7937414428429247  0.9063459098013269  0.4079175223966218  1.0000
  S   S89       1.0  0.7765754858392087  0.9936281916403698  0.4333278459692535  1.0000
  S   S90       1.0  0.7683264435113766  0.8210757923124999  0.4308102224911919  1.0000
  Fe  Fe46      1.0  0.8416980986534609  0.9615090927036396  0.34534447423298525  1.0000
  S   S91       1.0  0.8286302223739338  0.053990730677077936  0.36456302435757804  1.0000
  S   S92       1.0  0.8799506981518932  0.939256545237163  0.29508748757725123  1.0000
  Fe  Fe47      1.0  0.8451226503812721  0.019492716917945963  0.41963784455871994  1.0000
  S   S93       1.0  0.8800804752310014  0.08502693986814447  0.4553158285635245  1.0000
  Fe  Fe48      1.0  0.7610912983661386  0.02168083751445482  0.37675960257023955  1.0000
  S   S94       1.0  0.7039174823121488  0.07862488228392372  0.36118456608994953  1.0000
  S   S95       1.0  0.8644306572508376  0.9289349271844802  0.3995290647383996  1.0000
  S   S96       1.0  0.7724360959760393  0.9317390170369496  0.3520765389307144  1.0000
  Fe  Fe49      1.0  0.5635476146372522  0.3028832468315028  0.013338072285759672  1.0000
  S   S97       1.0  0.5222410094087588  0.3312681156279875  0.9667767118806093  1.0000
  S   S98       1.0  0.6203458766727526  0.36148340595054584  0.02683723237744351  1.0000
  Fe  Fe50      1.0  0.5060892815446276  0.19784845097349635  0.030522271343606855  1.0000
  S   S99       1.0  0.45981046028026273  0.21626798236368616  0.9850630951061777  1.0000
  S   S100      1.0  0.4955094331391268  0.12614142788799887  0.07168009720982949  1.0000
  Fe  Fe51      1.0  0.5199702748257055  0.23475644525481343  0.9523200112629652  1.0000
  S   S101      1.0  0.5283077046265414  0.21479134642479059  0.8928913400105094  1.0000
  Fe  Fe52      1.0  0.4661923712936275  0.3105104140134771  0.0029865598352025735  1.0000
  S   S102      1.0  0.41040794882541537  0.3727754015390232  0.008382991045942534  1.0000
  S   S103      1.0  0.5663471636245961  0.2072550172708918  0.996198411612445  1.0000
  S   S104      1.0  0.5074910024097298  0.29142879031959  0.05131458768409991  1.0000
  Fe  Fe53      1.0  0.8568955475572315  0.38629990908118583  0.9140203877363334  1.0000
  S   S105      1.0  0.8835455285614986  0.31864766683907186  0.9522292519548693  1.0000
  S   S106      1.0  0.8583688148603916  0.4842437836702269  0.9257256052719268  1.0000
  Fe  Fe54      1.0  0.8215544303607741  0.29445449943719426  0.8627436745550947  1.0000
  S   S107      1.0  0.8452758784711625  0.21796081971966874  0.8955219626506242  1.0000
  S   S108      1.0  0.7804376383517593  0.2765054926763195  0.8139533111541235  1.0000
  Fe  Fe55      1.0  0.8214404424814608  0.26980819414223145  0.9431758060941989  1.0000
  S   S109      1.0  0.7904640519442996  0.21962763990980516  0.9885227757503181  1.0000
  Fe  Fe56      1.0  0.9060855553934807  0.2717692810816785  0.9019143507865455  1.0000
  S   S110      1.0  0.9684175149847839  0.2207068035183879  0.9057909414270722  1.0000
  S   S111      1.0  0.7915989478184146  0.34180707149528833  0.9098555475204523  1.0000
  S   S112      1.0  0.8851760362796958  0.34402549785775904  0.8639939338664578  1.0000
  Fe  Fe57      1.0  0.954629936173988  0.1524939942336705  0.15883021516275017  1.0000
  S   S113      1.0  0.9867358010834681  0.24143477929991697  0.16219504079784536  1.0000
  S   S114      1.0  0.886041494356027  0.14390997848905007  0.17925085059834325  1.0000
  Fe  Fe58      1.0  0.034813237053648693  0.09454145742017062  0.12730554595031668  1.0000
  S   S115      1.0  0.07469914730027183  0.17815574486717178  0.1276007792719615  1.0000
  S   S116      1.0  0.05974651882783277  0.005465183410595209  0.11039473974447181  1.0000
  Fe  Fe59      1.0  0.044995145250674495  0.19255716672752032  0.1824387914710046  1.0000
  S   S117      1.0  0.07926974013294208  0.22065972060029582  0.23316603550366635  1.0000
  Fe  Fe60      1.0  0.012909383065719204  0.21941703048246675  0.10706062351354408  1.0000
  S   S118      1.0  0.010739115074632544  0.2929046694766433  0.06671489439288744  1.0000
  S   S119      1.0  0.01077538271601819  0.10514488995541749  0.18407986610538438  1.0000
  S   S120      1.0  0.9752534078272246  0.13438336700527942  0.10169001459268004  1.0000
  Fe  Fe61      1.0  0.35280607627940014  0.9811332585958361  0.22212977366528064  1.0000
  S   S121      1.0  0.30849765206409324  0.059818087684545995  0.2221907662623559  1.0000
  S   S122      1.0  0.4167344418296154  0.9820576733173285  0.2516504049963725  1.0000
  Fe  Fe62      1.0  0.28987759561109483  0.9057714404452283  0.17771415771522195  1.0000
  S   S123      1.0  0.24008269233011495  0.9780805048410398  0.173941836604201  1.0000
  S   S124      1.0  0.28145827988665084  0.8181018520104893  0.14956220385627858  1.0000
  Fe  Fe63      1.0  0.2980836024450345  0.03632530773328502  0.1640139038679779  1.0000
  S   S125      1.0  0.29955364573964366  0.10599055582981198  0.12156446796937888  1.0000
  Fe  Fe64      1.0  0.2555123824180076  0.9940068602958383  0.2326090500178968  1.0000
  S   S126      1.0  0.2084547155164418  0.016048570406121954  0.2770780237137246  1.0000
  S   S127      1.0  0.3468754638556364  0.9625278641961168  0.16272105519854296  1.0000
  S   S128      1.0  0.3004981958659514  0.9162853428847365  0.2375577284660764  1.0000
  C   C1        1.0  0.17370296228006246  0.07410046388462366  0.2646490611389151  1.0000
  C   C2        1.0  0.16648728404100308  0.08684915511685976  0.22811101142806792  1.0000
  C   C3        1.0  0.13688166413813452  0.1312721718925718  0.21840529283882348  1.0000
  C   C4        1.0  0.11610507842837503  0.16499977241740105  0.24523658648852154  1.0000
  C   C5        1.0  0.12428925703524407  0.1534858747718595  0.28177387191902514  1.0000
  C   C6        1.0  0.15245951945256125  0.10729358276032874  0.2914758105385172  1.0000
  H   H1        1.0  0.18298475525044253  0.061883910252770624  0.2072333888638405  1.0000
  H   H2        1.0  0.13069893924137266  0.14008822185654823  0.1901339534905318  1.0000
  H   H3        1.0  0.10815561550911301  0.17942677825161546  0.3025781598095629  1.0000
  H   H4        1.0  0.15795708729399965  0.09762148774071688  0.3197742842207924  1.0000
  C   C7        1.0  0.9882380895337436  0.2401975503609901  0.9488122549423621  1.0000
  C   C8        1.0  0.988666217557715  0.2998615055122358  0.9593829732951651  1.0000
  C   C9        1.0  0.9970429155379164  0.31553819211166245  0.995462912561151  1.0000
  C   C10       1.0  0.0049033053129243775  0.27161628768652335  0.021192103242717808  1.0000
  C   C11       1.0  0.005827462685833229  0.21184735639427643  0.010507368256201799  1.0000
  C   C12       1.0  0.9978084854250263  0.19623950787586297  0.974162480385124  1.0000
  H   H5        1.0  0.9813540259971509  0.33403381926182596  0.9398645458703113  1.0000
  H   H6        1.0  0.9963170663426953  0.3617738200922431  0.0036025250812345977  1.0000
  H   H7        1.0  0.012394971822659695  0.1778098294997923  0.03021442922061568  1.0000
  H   H8        1.0  0.9975504136574974  0.1502092905297503  0.965815246386611  1.0000
  C   C13       1.0  0.4412293001340924  0.12427356480627494  0.08665015147551669  1.0000
  C   C14       1.0  0.4076313562197205  0.1453173368107714  0.06465133259485045  1.0000
  C   C15       1.0  0.3641525038088504  0.14184184525717947  0.07603678191359556  1.0000
  C   C16       1.0  0.3541221761904006  0.11722037102186689  0.10959261315047944  1.0000
  C   C17       1.0  0.3877473779893636  0.09776104851538392  0.13224190997008928  1.0000
  C   C18       1.0  0.4312390629130329  0.10036271806630337  0.12051879497425677  1.0000
  H   H9        1.0  0.41478182316897005  0.16275053936721373  0.038351137873797514  1.0000
  H   H10       1.0  0.338281516325859  0.15699206387767184  0.05844877127355381  1.0000
  H   H11       1.0  0.38031844508717744  0.08018279074836188  0.15867051062941528  1.0000
  H   H12       1.0  0.45707594982913796  0.08395457686522345  0.1377054396669002  1.0000
  C   C19       1.0  0.6692686426282094  0.32306912069195115  0.020522448235194224  1.0000
  C   C20       1.0  0.6712601224227557  0.2619395229384738  0.026642362003457487  1.0000
  C   C21       1.0  0.709316934994167  0.230401073560063  0.018179379305653276  1.0000
  C   C22       1.0  0.7451094322508597  0.2599674186415388  0.003217510130945289  1.0000
  C   C23       1.0  0.7436283549493521  0.3213713015934361  0.9981459648342828  1.0000
  C   C24       1.0  0.7057961285106739  0.35300804642756467  0.007062423671063467  1.0000
  H   H13       1.0  0.643457913165295  0.2389481138386007  0.03789896949056604  1.0000
  H   H14       1.0  0.7105005346362671  0.1829314069250072  0.022299061275887766  1.0000
  H   H15       1.0  0.7716272823455212  0.34464999498317583  0.9874056788400519  1.0000
  H   H16       1.0  0.7044402291625232  0.40040588179837644  0.0026159681168387294  1.0000
  C   C25       1.0  0.8806715401256756  0.9959611229152499  0.26277188445961985  1.0000
  C   C26       1.0  0.8513082422739842  0.04334140573065204  0.26482249702954014  1.0000
  C   C27       1.0  0.8517548817670604  0.08749754749860528  0.2382040678653794  1.0000
  C   C28       1.0  0.8821997122205656  0.08507107427295058  0.20997645956295224  1.0000
  C   C29       1.0  0.9108295441850495  0.036995695185367605  0.20748117161247234  1.0000
  C   C30       1.0  0.9099108591152076  0.9923595365973908  0.2337304180813533  1.0000
  H   H17       1.0  0.8276588237787136  0.045446390108680124  0.2864868452860231  1.0000
  H   H18       1.0  0.8290215536951531  0.12410038450654515  0.23989525610790477  1.0000
  H   H19       1.0  0.9333040812342068  0.033720735191058226  0.1850158353229261  1.0000
  H   H20       1.0  0.93203455596385  0.9551472037812743  0.2316283174075763  1.0000
  C   C31       1.0  0.4437826831067275  0.15961845216555548  0.30744226545810793  1.0000
  C   C32       1.0  0.4636595001901585  0.10777898036937716  0.3198099929891698  1.0000
  C   C33       1.0  0.4566998212309815  0.053728677952519455  0.30161240679601575  1.0000
  C   C34       1.0  0.4299437842098049  0.051362120086789975  0.2709360916796202  1.0000
  C   C35       1.0  0.412237697005827  0.10387950527335632  0.2572863320728448  1.0000
  C   C36       1.0  0.4191131919349786  0.157973165180042  0.27553744857464063  1.0000
  H   H21       1.0  0.48416039090956714  0.10916177676131134  0.34360376285544564  1.0000
  H   H22       1.0  0.4711837812083829  0.013456610473620678  0.3118984752525383  1.0000
  H   H23       1.0  0.39323860112720554  0.10285727032609904  0.23271152451774899  1.0000
  H   H24       1.0  0.4040584529580917  0.19810396002304276  0.2656649836161716  1.0000
  C   C37       1.0  0.5976929039139108  0.10633431878569244  0.4465754124911463  1.0000
  C   C38       1.0  0.6389077148689395  0.08578100811898715  0.45685576179583537  1.0000
  C   C39       1.0  0.6717037835579635  0.07762685921441248  0.4308480630485358  1.0000
  C   C40       1.0  0.6635683406722559  0.09006683854974185  0.39442699651010216  1.0000
  C   C41       1.0  0.6226565825005779  0.11212931736884713  0.38430105306083967  1.0000
  C   C42       1.0  0.5896522895555826  0.11998943108986437  0.41029961937030074  1.0000
  H   H25       1.0  0.6454936010878441  0.07593435518085645  0.4849349413191736  1.0000
  H   H26       1.0  0.7032423011237044  0.062077650113204985  0.4391250842312245  1.0000
  H   H27       1.0  0.6162279874669184  0.12221952249863177  0.35619198420144116  1.0000
  H   H28       1.0  0.557858361459672  0.13571064759556783  0.40211328942444047  1.0000
  C   C43       1.0  0.3991060190572165  0.26712059993256276  0.8406933450815346  1.0000
  C   C44       1.0  0.4379613180929159  0.2735335125460734  0.8210635972338733  1.0000
  C   C45       1.0  0.47785043502673435  0.25569874150540217  0.8364570320950482  1.0000
  C   C46       1.0  0.47863494735724216  0.23130543359414535  0.8712932926618681  1.0000
  C   C47       1.0  0.439441352811518  0.2226514042305896  0.8898290740649292  1.0000
  C   C48       1.0  0.39992432283933355  0.24111888377060398  0.8748726687915487  1.0000
  H   H29       1.0  0.43740255432087627  0.29328357551071793  0.7944440321354739  1.0000
  H   H30       1.0  0.5080106851969638  0.2620718051566824  0.8217619659390857  1.0000
  H   H31       1.0  0.43932367716359294  0.20042516693454826  0.9154154069408442  1.0000
  H   H32       1.0  0.369864981749623  0.23462560949860967  0.8897107598503577  1.0000
  C   C49       1.0  0.4508011425213604  0.3334699518706108  0.6154233695939697  1.0000
  C   C50       1.0  0.4759186548382896  0.3006097485348791  0.5908339618822545  1.0000
  C   C51       1.0  0.4693356404893905  0.3066865300066228  0.5534447984560107  1.0000
  C   C52       1.0  0.4385759296586233  0.34706148717185514  0.5405206191424028  1.0000
  C   C53       1.0  0.4145639901054104  0.38159912652266925  0.5650496039518826  1.0000
  C   C54       1.0  0.4201441877563628  0.3740615043746982  0.6024545692977894  1.0000
  H   H33       1.0  0.4999714731711432  0.269569893242809  0.6007164523030989  1.0000
  H   H34       1.0  0.48844364828609793  0.2804474495320839  0.5346372860652111  1.0000
  H   H35       1.0  0.39114920807733294  0.4135055107498049  0.555165410553839  1.0000
  H   H36       1.0  0.4013558889311292  0.4005913484850392  0.6212416857911418  1.0000
  C   C55       1.0  0.8469851159536469  0.1278322263578442  0.7512459365803288  1.0000
  C   C56       1.0  0.8720958150906789  0.16911347252083542  0.7705798412215716  1.0000
  C   C57       1.0  0.8515761645874396  0.2144031496127521  0.790370795833349  1.0000
  C   C58       1.0  0.8060938903971369  0.2198630235570349  0.7894750402696166  1.0000
  C   C59       1.0  0.7811383836095521  0.17992999280148614  0.7690233004498483  1.0000
  C   C60       1.0  0.8015413348234453  0.13318098333041473  0.7504907309734248  1.0000
  H   H37       1.0  0.9071771907229929  0.1651366890862569  0.7711344374431476  1.0000
  H   H38       1.0  0.8709597437651824  0.2453954360759214  0.8060743658010073  1.0000
  H   H39       1.0  0.745978520864155  0.18409063867838782  0.7683562790023213  1.0000
  H   H40       1.0  0.7821061980830819  0.10124131338984688  0.7355198743901683  1.0000
  C   C61       1.0  0.9521755208025044  0.014273881008356248  0.5541495622547588  1.0000
  C   C62       1.0  0.9339223221246532  0.9743175763760555  0.5290778701952072  1.0000
  C   C63       1.0  0.9112740177070416  0.9955026082731231  0.4987012232348766  1.0000
  C   C64       1.0  0.9075696388468178  0.056671957431086106  0.4931260970374134  1.0000
  C   C65       1.0  0.9261200437993876  0.09644859990023225  0.5180709499561732  1.0000
  C   C66       1.0  0.9481387970252155  0.07530064114723678  0.5486146098832652  1.0000
  H   H41       1.0  0.9370570484493789  0.9270542145682796  0.5332568981822267  1.0000
  H   H42       1.0  0.8970872143902108  0.9646171660719686  0.4794827099456499  1.0000
  H   H43       1.0  0.9236573135429625  0.1437806974706355  0.5137139485005024  1.0000
  H   H44       1.0  0.962635663439809  0.10631989286893906  0.567540025985636  1.0000
  C   C67       1.0  0.13772251213024256  0.14611259119710662  0.7159716623635347  1.0000
  C   C68       1.0  0.16952565208816317  0.17604385559332258  0.7363903175263162  1.0000
  C   C69       1.0  0.20828324806374354  0.19557458641982906  0.7199856199800818  1.0000
  C   C70       1.0  0.21558925376011043  0.18454877443001805  0.68318160560018  1.0000
  C   C71       1.0  0.18410689421054535  0.15388260793996178  0.6628634382051098  1.0000
  C   C72       1.0  0.14515187315271216  0.13494861170353722  0.679177529592492  1.0000
  H   H45       1.0  0.16409916746722253  0.1843878160383301  0.764939974806828  1.0000
  H   H46       1.0  0.23269334525398458  0.21831613867580013  0.7360255526208459  1.0000
  H   H47       1.0  0.18987461746875797  0.1444768757036634  0.634484729772193  1.0000
  H   H48       1.0  0.1213856747576898  0.11038464423818994  0.6634731137474112  1.0000
  C   C73       1.0  0.8742582682294762  0.49873085610769285  0.048169379885547425  1.0000
  C   C74       1.0  0.8405656767244627  0.5292654273614633  0.030855910860911  1.0000
  C   C75       1.0  0.8365872714657749  0.5266297399261326  0.9930032287957606  1.0000
  C   C76       1.0  0.8655313395366833  0.4920413476885792  0.9725691204222603  1.0000
  C   C77       1.0  0.899208681671654  0.4615927298273077  0.9898516284917666  1.0000
  C   C78       1.0  0.9037964409162293  0.4653524114728756  0.02752451818444657  1.0000
  H   H49       1.0  0.8169849945943205  0.553849103175506  0.04657098788219177  1.0000
  H   H50       1.0  0.8100583929270081  0.549463621270706  0.9797499254648859  1.0000
  H   H51       1.0  0.9220912676971942  0.4355404518014354  0.9741162681479787  1.0000
  H   H52       1.0  0.9304458320791001  0.4424562354262382  0.040555885515798584  1.0000
  C   C79       1.0  0.36456841571503606  0.34935059936224255  0.12426441926553906  1.0000
  C   C80       1.0  0.37537986937177964  0.2993633948568877  0.10354788936047747  1.0000
  C   C81       1.0  0.38840786579940484  0.3061848691400355  0.06736746698971353  1.0000
  C   C82       1.0  0.3886740028604845  0.3624930975436871  0.0516379168936536  1.0000
  C   C83       1.0  0.374998572276374  0.41165910008839957  0.0716661015320561  1.0000
  C   C84       1.0  0.363445663314379  0.4052386405842463  0.10809685048791864  1.0000
  H   H53       1.0  0.37590796807182686  0.2559903656354685  0.1158342718816256  1.0000
  H   H54       1.0  0.3989520932204534  0.26818383847901517  0.051736371503010775  1.0000
  H   H55       1.0  0.3756217898967885  0.4550747570851228  0.05946456182965232  1.0000
  H   H56       1.0  0.3548548569524612  0.44391364171176273  0.1239601292285862  1.0000
  C   C85       1.0  0.6470769168829389  0.5682039122276754  0.15789476791272897  1.0000
  C   C86       1.0  0.6646197541093292  0.5216742148667087  0.17812229024733464  1.0000
  C   C87       1.0  0.6368092010457657  0.4803121326825443  0.19485829553044876  1.0000
  C   C88       1.0  0.5914332167157157  0.4856087781458193  0.19157377956628535  1.0000
  C   C89       1.0  0.574042735117341  0.5318891244281923  0.17111789790026785  1.0000
  C   C90       1.0  0.6017468533606013  0.5730915163289303  0.15445563805690593  1.0000
  H   H57       1.0  0.6995086122555288  0.5174887876663924  0.18093960157280514  1.0000
  H   H58       1.0  0.6504880132295803  0.4445857547489375  0.2106107783588606  1.0000
  H   H59       1.0  0.539226266478854  0.536006705419311  0.16800211392111136  1.0000
  H   H60       1.0  0.588056339775129  0.6093545298854779  0.13919572561715648  1.0000
  C   C91       1.0  0.28249875494042054  0.8462950042912196  0.02715273542992347  1.0000
  C   C92       1.0  0.2873379159893326  0.7891442085935994  0.041196204887811394  1.0000
  C   C93       1.0  0.28627405170698866  0.7802912032399751  0.07882663167695382  1.0000
  C   C94       1.0  0.2808983725643627  0.8286519111825638  0.10244276975191834  1.0000
  C   C95       1.0  0.27580923439460026  0.8856587278561241  0.08829662443229153  1.0000
  C   C96       1.0  0.27610197262651665  0.8943482555684539  0.05074491458323301  1.0000
  H   H61       1.0  0.29233360532003616  0.751691704682094  0.023192142280237027  1.0000
  H   H62       1.0  0.29021613070509555  0.7360400884444817  0.08956115214782324  1.0000
  H   H63       1.0  0.2714310688480907  0.9232099803378039  0.10623977429138258  1.0000
  H   H64       1.0  0.2715514310292973  0.9384962698497696  0.04010593304111332  1.0000
  C   C97       1.0  0.33455975101587293  0.5760847810529959  0.028084185806622086  1.0000
  C   C98       1.0  0.3740845514604806  0.6047068320264608  0.020663011671647524  1.0000
  C   C99       1.0  0.4044273614706124  0.6148529725324238  0.048433676170320836  1.0000
  C   C100      1.0  0.39569424749800114  0.5954002343833669  0.08358992731010337  1.0000
  C   C101      1.0  0.3562699748376333  0.5666624783076715  0.09108761634353893  1.0000
  C   C102      1.0  0.32572869961413536  0.5569296968405058  0.06332546411112605  1.0000
  H   H65       1.0  0.3817854051313579  0.6178005837061834  0.9933584562311133  1.0000
  H   H66       1.0  0.43494592683329997  0.6369629626785934  0.04250406093258019  1.0000
  H   H67       1.0  0.3491604417312033  0.551978366174794  0.11819971721965708  1.0000
  H   H68       1.0  0.29528376105347437  0.5345219278918887  0.06914572274708153  1.0000
  C   C103      1.0  0.04110472101366103  0.9975391922049901  0.9884243236549242  1.0000
  C   C104      1.0  0.04011149656531643  0.9453196871587097  0.0086916472230536  1.0000
  C   C105      1.0  0.04776019449193947  0.9473335754675237  0.046084598690322005  1.0000
  C   C106      1.0  0.05557561856543369  0.0017883132338289975  0.06327428528769434  1.0000
  C   C107      1.0  0.05801323511020118  0.05372478943751702  0.042872060228184905  1.0000
  C   C108      1.0  0.05177413216413096  0.051332694162125714  0.005322709567822771  1.0000
  H   H69       1.0  0.03374594438125689  0.9032863479114085  0.9956811158145285  1.0000
  H   H70       1.0  0.04619996061009535  0.9070754620489473  0.06183289808964181  1.0000
  H   H71       1.0  0.06480156018150529  0.09579896561022094  0.056015005766422585  1.0000
  H   H72       1.0  0.05405378945749617  0.09150127841133782  0.9896004052436528  1.0000
  C   C109      1.0  0.8386425547964906  0.8498861659659172  0.01498360301839341  1.0000
  C   C110      1.0  0.8083632294396169  0.8125631200196571  0.03182172785494264  1.0000
  C   C111      1.0  0.8153641286521233  0.7937439166231396  0.06746029290033254  1.0000
  C   C112      1.0  0.852086278565276  0.8134793894405676  0.08651902352963672  1.0000
  C   C113      1.0  0.8815758605461204  0.8524690229117347  0.07012370323598337  1.0000
  C   C114      1.0  0.8751260626875598  0.8701414615846463  0.034218130790069745  1.0000
  H   H73       1.0  0.7799689357435154  0.7971420358184402  0.01704085644241715  1.0000
  H   H74       1.0  0.7920925457475373  0.7644257464239  0.08022348111758637  1.0000
  H   H75       1.0  0.9098660585760497  0.868088135901909  0.0849611566624878  1.0000
  H   H76       1.0  0.8980995562465596  0.899983718478927  0.021607282008907047  1.0000
  C   C115      1.0  0.053514056466907434  0.6929940493075555  0.9147023438495268  1.0000
  C   C116      1.0  0.056878781063502526  0.7140803904171512  0.8792774302003048  1.0000
  C   C117      1.0  0.09680379883534229  0.7108909065335262  0.8608169343465781  1.0000
  C   C118      1.0  0.13362936059812935  0.687568171423043  0.8779688951683132  1.0000
  C   C119      1.0  0.13003195585729044  0.6651791643888036  0.9131040535665014  1.0000
  C   C120      1.0  0.08985211268882987  0.667349871063778  0.9313304252561047  1.0000
  H   H77       1.0  0.028693245350435825  0.7327237818874084  0.8659966251350651  1.0000
  H   H78       1.0  0.09943992455413507  0.7280638348832903  0.833602185193396  1.0000
  H   H79       1.0  0.1581850105796955  0.6461942074197553  0.926260547340593  1.0000
  H   H80       1.0  0.08729814054356844  0.6505594402723078  0.9586367788257442  1.0000
  C   C121      1.0  0.817607661336305  0.7897311005128718  0.545535294343928  1.0000
  C   C122      1.0  0.7818923666575828  0.7576501126965669  0.5321929535928567  1.0000
  C   C123      1.0  0.7669395403084316  0.7673199479584665  0.4968437234106431  1.0000
  C   C124      1.0  0.7869958093414513  0.8101002080292183  0.4751034154871376  1.0000
  C   C125      1.0  0.8223659404795632  0.8427457772616971  0.4885898738764094  1.0000
  C   C126      1.0  0.8379726218034148  0.83207583362698  0.5236376846908202  1.0000
  H   H81       1.0  0.7657097381837799  0.7253588081639645  0.5489705859005889  1.0000
  H   H82       1.0  0.7394676829401156  0.742145657163917  0.4865019572389501  1.0000
  H   H83       1.0  0.8380364460138577  0.8758050833686283  0.47192131596088477  1.0000
  H   H84       1.0  0.8658475110794459  0.8567305663232868  0.5336675984364374  1.0000
  C   C127      1.0  0.8049069740270587  0.7661871973384368  0.7682728888230147  1.0000
  C   C128      1.0  0.8375285320857364  0.7813066604791258  0.7434904587618169  1.0000
  C   C129      1.0  0.8742773338980959  0.8135388094984142  0.7549602444464155  1.0000
  C   C130      1.0  0.8785592699866621  0.8306216817933673  0.7912922074270535  1.0000
  C   C131      1.0  0.8456046464504033  0.816306596715623  0.8160075609323738  1.0000
  C   C132      1.0  0.808836372621642  0.7840594913416359  0.8045139439912831  1.0000
  H   H85       1.0  0.8343749767441296  0.768588020318104  0.7154301969919451  1.0000
  H   H86       1.0  0.8996402972020845  0.824760925213807  0.7357719071610672  1.0000
  H   H87       1.0  0.8479963561149373  0.8310165992972521  0.8438343162444913  1.0000
  H   H88       1.0  0.7833987325678824  0.7731762987510021  0.823704832550255  1.0000
  C   C133      1.0  0.32409350914892526  0.9761356975841778  0.5564142623115214  1.0000
  C   C134      1.0  0.36517477957935796  0.9967367039881582  0.545480926170244  1.0000
  C   C135      1.0  0.36861221873738803  0.03561540069249358  0.5158938988745284  1.0000
  C   C136      1.0  0.3310121892589808  0.05290504573361221  0.49713321104962394  1.0000
  C   C137      1.0  0.2901961277019161  0.03188923422781742  0.5080889256276901  1.0000
  C   C138      1.0  0.286719705659647  0.9940298817304271  0.5378045489283231  1.0000
  H   H89       1.0  0.3941639289227046  0.9830539855563407  0.5598810368665644  1.0000
  H   H90       1.0  0.40028532478043916  0.051684600520403245  0.5074379600518617  1.0000
  H   H91       1.0  0.2610754832530777  0.04530583988924275  0.4937544915799623  1.0000
  H   H92       1.0  0.2548992860587496  0.9786048941890002  0.5463680840028871  1.0000
  C   C139      1.0  0.403185909127992  0.8488597783723643  0.7770383210842281  1.0000
  C   C140      1.0  0.4165708391206841  0.792534106669689  0.7654764030788185  1.0000
  C   C141      1.0  0.4146134229627776  0.7443183897538119  0.7891517223210986  1.0000
  C   C142      1.0  0.39772963828818114  0.751759041267837  0.8240565043052367  1.0000
  C   C143      1.0  0.38392789874497735  0.807913086405665  0.8356331201196617  1.0000
  C   C144      1.0  0.38707241632238465  0.8565995665490421  0.8122338877171932  1.0000
  H   H93       1.0  0.42872199379650855  0.786017113009581  0.7383832906680865  1.0000
  H   H94       1.0  0.425610587502554  0.7010585427431257  0.7802145979420055  1.0000
  H   H95       1.0  0.3716708140472045  0.8141244006285928  0.8628280637013679  1.0000
  H   H96       1.0  0.37685926695531335  0.9001388397815198  0.8213429559007998  1.0000
  C   C145      1.0  0.570250385496825  0.8178092818893595  0.6026896293421016  1.0000
  C   C146      1.0  0.615724632039599  0.8156295110968967  0.5994216712374167  1.0000
  C   C147      1.0  0.63756281035173  0.7611444212353229  0.6022699542453237  1.0000
  C   C148      1.0  0.6139623258955084  0.708976530791843  0.6086369662838561  1.0000
  C   C149      1.0  0.5684559296758606  0.7110451454014259  0.6105617627584259  1.0000
  C   C150      1.0  0.5466102821767116  0.7652319445918268  0.6073195300103386  1.0000
  H   H97       1.0  0.634099268804022  0.8560570419814068  0.595166499197968  1.0000
  H   H98       1.0  0.6725595300319166  0.759515816087023  0.5992091491238486  1.0000
  H   H99       1.0  0.5501070445834824  0.67093525252202  0.6153600547815498  1.0000
  H   H100      1.0  0.5114296991224956  0.7661535079021845  0.608655011648651  1.0000
  C   C151      1.0  0.2264329145526347  0.4459704007490953  0.5939298343797611  1.0000
  C   C152      1.0  0.2411184858520225  0.5038498857920761  0.6008549469738588  1.0000
  C   C153      1.0  0.257542094665796  0.5193642551757356  0.6351224589595404  1.0000
  C   C154      1.0  0.25961382867733257  0.47661574136937146  0.6622655663966224  1.0000
  C   C155      1.0  0.24375844213560105  0.4193710502825738  0.655602634342569  1.0000
  C   C156      1.0  0.22772032612909932  0.4039410968418559  0.6214238732657654  1.0000
  H   H101      1.0  0.24083016124584472  0.5363857805612053  0.5798523214088033  1.0000
  H   H102      1.0  0.27031506271646466  0.5634721244866658  0.6400323296822138  1.0000
  H   H103      1.0  0.24505106641919921  0.38627785114788504  0.6765695448933947  1.0000
  H   H104      1.0  0.21735149981907495  0.35899180612935444  0.6160401506312705  1.0000
  C   C157      1.0  0.2726850320415784  0.4874872417401829  0.3504581963667812  1.0000
  C   C158      1.0  0.28121638878188876  0.4728858005788088  0.31418739287310055  1.0000
  C   C159      1.0  0.3170159187777783  0.4986129493525772  0.296256646075717  1.0000
  C   C160      1.0  0.34358412363172325  0.5397147502266074  0.31450848611672216  1.0000
  C   C161      1.0  0.3351209286527876  0.5537906236542515  0.35071034472182494  1.0000
  C   C162      1.0  0.30038011304930573  0.526818028972608  0.3687983932883184  1.0000
  H   H105      1.0  0.2601101941182214  0.442044939271558  0.2999643211345605  1.0000
  H   H106      1.0  0.32369515731330784  0.48720803829431136  0.26831153062994  1.0000
  H   H107      1.0  0.3558611727125364  0.5850226250286013  0.36506035382693436  1.0000
  H   H108      1.0  0.29530191516824056  0.5366429099625617  0.3970650928353765  1.0000
  C   C163      1.0  0.36048315380714974  0.6358992629132768  0.5225016835167119  1.0000
  C   C164      1.0  0.3962489757714582  0.6728939650135654  0.5292404803279769  1.0000
  C   C165      1.0  0.41116528255263285  0.6814005845754859  0.5646613308609008  1.0000
  C   C166      1.0  0.39023766154646616  0.653287033008591  0.5934638526889998  1.0000
  C   C167      1.0  0.3565476583231524  0.6127219939354325  0.5865341717848531  1.0000
  C   C168      1.0  0.34154065313327064  0.6040660493036873  0.5509402641333898  1.0000
  H   H109      1.0  0.4115509099895833  0.6965152991497404  0.5071756020999298  1.0000
  H   H110      1.0  0.4389030824101976  0.7098836723401805  0.5696680026478746  1.0000
  H   H111      1.0  0.3408921641940262  0.5899246824339675  0.6087455383908587  1.0000
  H   H112      1.0  0.3144674342677709  0.574350170190051  0.5457281226199917  1.0000
  C   C169      1.0  0.008188084156169007  0.3199846529614052  0.5221137599811037  1.0000
  C   C170      1.0  0.9948273582198959  0.36690423559445956  0.5444788301044582  1.0000
  C   C171      1.0  0.9815117605467825  0.35591189069338425  0.5800868137670968  1.0000
  C   C172      1.0  0.9813608629746269  0.2979226205227645  0.5932987319393488  1.0000
  C   C173      1.0  0.994920581393115  0.2509831222070402  0.571057785112194  1.0000
  C   C174      1.0  0.008710473589309764  0.26208525707500074  0.5355299862648224  1.0000
  H   H113      1.0  0.9951529891215203  0.4117786003775721  0.5343644757406789  1.0000
  H   H114      1.0  0.9712863108868378  0.39232077522575026  0.5973094251179131  1.0000
  H   H115      1.0  0.99447956714619  0.2060482652288098  0.5810156473299981  1.0000
  H   H116      1.0  0.018488086815976912  0.22563404572174073  0.518107027361769  1.0000
  C   C175      1.0  0.8847135046544325  0.43467299193894926  0.3077099101181462  1.0000
  C   C176      1.0  0.8979280643854483  0.4876413166895825  0.3243426112604386  1.0000
  C   C177      1.0  0.8868091804021131  0.5421884612229377  0.30925426438093273  1.0000
  C   C178      1.0  0.8621618635291902  0.5443051913684211  0.277481591542307  1.0000
  C   C179      1.0  0.8504332761203488  0.4914143752439886  0.25981209817890505  1.0000
  C   C180      1.0  0.8617988155579029  0.4364385502685153  0.27493473729581797  1.0000
  H   H117      1.0  0.9163969851112005  0.48688612702728623  0.3491254719211594  1.0000
  H   H118      1.0  0.8970879696403568  0.5827180007738136  0.32247268866585516  1.0000
  H   H119      1.0  0.8314125493191816  0.4927501009086703  0.23522418796188807  1.0000
  H   H120      1.0  0.8514632240059398  0.395595627689633  0.26195040116626966  1.0000
  C   C181      1.0  0.8139026782246891  0.4141194568074841  0.5382664821483523  1.0000
  C   C182      1.0  0.8539888061486451  0.4092560494804518  0.5561484234949786  1.0000
  C   C183      1.0  0.8598164655906818  0.4358821624633667  0.5902341284041395  1.0000
  C   C184      1.0  0.8257134964174593  0.46786205292467165  0.6062178314072267  1.0000
  C   C185      1.0  0.7854672512825663  0.47187489490652823  0.5886384202406154  1.0000
  C   C186      1.0  0.779441690706318  0.444530020346805  0.5548107658760111  1.0000
  H   H121      1.0  0.8804156272373292  0.38453539832299694  0.543851374722416  1.0000
  H   H122      1.0  0.890993476664812  0.4326358611448736  0.6037823318279422  1.0000
  H   H123      1.0  0.7587974437675009  0.49573630589007145  0.601184163838816  1.0000
  H   H124      1.0  0.7483738494673037  0.448159639751163  0.5410747628076478  1.0000
  C   C187      1.0  0.9871634743886929  0.6172922673366805  0.4445476507011749  1.0000
  C   C188      1.0  0.017079852839458454  0.5745301691867549  0.4560666081558827  1.0000
  C   C189      1.0  0.060055765883574745  0.591216662794924  0.4645182264095833  1.0000
  C   C190      1.0  0.07311451268871827  0.6505267947024049  0.46128144516949415  1.0000
  C   C191      1.0  0.042805418487748215  0.6932929573117598  0.45060277077501787  1.0000
  C   C192      1.0  0.999888704773236  0.6767144350451343  0.44223156545223463  1.0000
  H   H125      1.0  0.007185420171060386  0.5286291917928808  0.4585365503538344  1.0000
  H   H126      1.0  0.08292397815127184  0.5583129509530376  0.47378461423359863  1.0000
  H   H127      1.0  0.052705143952967104  0.7392744503817815  0.4483461834289308  1.0000
  H   H128      1.0  0.9767583884565337  0.709968655512325  0.4336180019250353  1.0000
  N   N1        1.0  0.8373354877190579  0.6917768737249816  0.3741797410501539  1.0000
  C   C193      1.0  0.8787012270836301  0.7013250943869105  0.35444359224646904  1.0000
  C   C194      1.0  0.8427945179738697  0.7103336191598593  0.41238884342358545  1.0000
  C   C195      1.0  0.8254053303462647  0.6281840428803046  0.37253725971376433  1.0000
  C   C196      1.0  0.8024402778671644  0.7273300543935496  0.3573054467691853  1.0000
  H   H129      1.0  0.875562548781925  0.6881374272183215  0.3254031133017349  1.0000
  H   H130      1.0  0.9056596252704588  0.6747099903941335  0.36636521055330656  1.0000
  H   H131      1.0  0.8887704074263492  0.7488176668415935  0.3553312008393849  1.0000
  H   H132      1.0  0.8514078467423871  0.7582734726820185  0.4146276689640113  1.0000
  H   H133      1.0  0.8122034091068309  0.7035819113208092  0.4281126677569057  1.0000
  H   H134      1.0  0.8690254665490437  0.684825829133238  0.42591806238992175  1.0000
  H   H135      1.0  0.8515010289600751  0.5998799692666315  0.3843187922144332  1.0000
  H   H136      1.0  0.8201587341916433  0.6130643541104946  0.34405265177863426  1.0000
  H   H137      1.0  0.7947661229104355  0.6191666676918776  0.38772047937793613  1.0000
  H   H138      1.0  0.7708458160716845  0.7216910893836207  0.37182504740957206  1.0000
  H   H139      1.0  0.797348261270511  0.7141893198495637  0.3284604009537465  1.0000
  H   H140      1.0  0.8103721782587316  0.7756041315140496  0.3581545222995681  1.0000
  N   N2        1.0  0.09694206631370683  0.9231148985931659  0.2058077401393632  1.0000
  C   C197      1.0  0.13634485017901166  0.9249992873298043  0.22881160306217074  1.0000
  C   C198      1.0  0.06430405814873619  0.8828578215727119  0.22204493235524003  1.0000
  C   C199      1.0  0.10873572094882954  0.9014066884762204  0.16920483546079157  1.0000
  C   C200      1.0  0.0783268998463078  0.9833548375021689  0.20314922352458664  1.0000
  H   H141      1.0  0.15149882676838025  0.8804257920167666  0.23146673393623463  1.0000
  H   H142      1.0  0.12889242965777448  0.9417856243111806  0.2565821487612405  1.0000
  H   H143      1.0  0.16144232197251812  0.9550796035909507  0.21729974107382755  1.0000
  H   H144      1.0  0.034123136102539135  0.8804470187834055  0.20526796843991435  1.0000
  H   H145      1.0  0.07726636159447085  0.8369716162841023  0.2245418191273998  1.0000
  H   H146      1.0  0.054564789140058904  0.8983136452770926  0.249603382229584  1.0000
  H   H147      1.0  0.07957181890543308  0.8985384371296906  0.15127116317958533  1.0000
  H   H148      1.0  0.12398783405023517  0.8566778266991794  0.17010084245368162  1.0000
  H   H149      1.0  0.13229599001241765  0.9319143426092489  0.15572899508576765  1.0000
  H   H150      1.0  0.07113843804530573  0.0027330439673338702  0.23031552770222374  1.0000
  H   H151      1.0  0.04743997335479099  0.9828963557394382  0.18729119632401803  1.0000
  H   H152      1.0  0.10105439227477152  0.014240648775887266  0.18910547684424794  1.0000
  N   N3        1.0  0.9423600858035326  0.2120998551914448  0.2862852842357472  1.0000
  C   C201      1.0  0.9515904480939317  0.21263850203203694  0.32558412121495933  1.0000
  C   C202      1.0  0.9592988067001248  0.15671241012644588  0.26995431882222615  1.0000
  C   C203      1.0  0.9638495344696797  0.26355645394972926  0.26911242872777075  1.0000
  C   C204      1.0  0.89472439669001  0.21544774808588385  0.2803477051425855  1.0000
  H   H153      1.0  0.9391341556135488  0.25390047604679866  0.3387305173389746  1.0000
  H   H154      1.0  0.9872790230688483  0.21041389535003718  0.3309968035654944  1.0000
  H   H155      1.0  0.9358675902888549  0.17435280581800683  0.33940290849360016  1.0000
  H   H156      1.0  0.9524728799309365  0.15507309256419788  0.24039886656428866  1.0000
  H   H157      1.0  0.9953094236989249  0.1530637966792081  0.2734356034273348  1.0000
  H   H158      1.0  0.9438156633272862  0.11678523441314348  0.28217158467692965  1.0000
  H   H159      1.0  0.952107826001154  0.30620963816190017  0.28090155626209123  1.0000
  H   H160      1.0  0.9571420023651053  0.26477170868206445  0.23953110066100036  1.0000
  H   H161      1.0  0.9999177779127569  0.2621456193282321  0.2726572027768834  1.0000
  H   H162      1.0  0.8866316774297638  0.2146760796403855  0.250932643185228  1.0000
  H   H163      1.0  0.880867365815948  0.25706012463049044  0.2919499188473808  1.0000
  H   H164      1.0  0.8774282640712224  0.17752188467188623  0.2931778450986305  1.0000
  N   N4        1.0  0.29242162691842805  0.6444011777868797  0.7693305847312828  1.0000
  C   C205      1.0  0.2597901724245187  0.6035006249222532  0.7850037511427604  1.0000
  C   C206      1.0  0.29378526190868887  0.6998019647086552  0.790996281632806  1.0000
  C   C207      1.0  0.2802982560682443  0.6582165828587455  0.7315718186291884  1.0000
  C   C208      1.0  0.33585244052151403  0.615997502802106  0.7697262754512648  1.0000
  H   H165      1.0  0.25758969700831275  0.5613948373594152  0.7690593419480577  1.0000
  H   H166      1.0  0.2266842044704098  0.6238183326920683  0.7856460569811673  1.0000
  H   H167      1.0  0.2682141024904381  0.5918311308472436  0.8133848747300547  1.0000
  H   H168      1.0  0.3176040678258548  0.7321579301564355  0.7796840298553265  1.0000
  H   H169      1.0  0.2612415503752577  0.7216136070950692  0.7921525057371548  1.0000
  H   H170      1.0  0.30380735199531766  0.6909762232989952  0.8194044250449656  1.0000
  H   H171      1.0  0.3044712345938386  0.6886654048630663  0.7188587391626599  1.0000
  H   H172      1.0  0.2476725215034113  0.6796036265736236  0.7301950402344694  1.0000
  H   H173      1.0  0.2790449378498706  0.6172524166734302  0.7145112422051931  1.0000
  H   H174      1.0  0.36103273561714144  0.6451340699234857  0.7573190941691578  1.0000
  H   H175      1.0  0.3356837904671628  0.5733826347469333  0.7541999521429916  1.0000
  H   H176      1.0  0.34669522011729476  0.606377607890863  0.7978692819523028  1.0000
  N   N5        1.0  0.8695422168744  0.3081157997104096  0.08391851462335702  1.0000
  C   C209      1.0  0.8314473447691574  0.34592476518295023  0.07583061008923363  1.0000
  C   C210      1.0  0.9014670459819033  0.34205816006481515  0.10583528222798062  1.0000
  C   C211      1.0  0.8902691331481047  0.2890342294914472  0.04963529892575369  1.0000
  C   C212      1.0  0.8550618050583145  0.2553814376556538  0.10432819049649313  1.0000
  H   H177      1.0  0.8061353559054966  0.321161132051655  0.06019375418046531  1.0000
  H   H178      1.0  0.8409902767330709  0.38506521801779114  0.05943888847382519  1.0000
  H   H179      1.0  0.8159629703083011  0.3632493973307363  0.10104168183847521  1.0000
  H   H180      1.0  0.9304910598491518  0.3147632768137043  0.11256989187696756  1.0000
  H   H181      1.0  0.9137861685885285  0.3814512124878513  0.09102324111263531  1.0000
  H   H182      1.0  0.8868542262578889  0.35859656562377773  0.13158002408433697  1.0000
  H   H183      1.0  0.9031104482901817  0.3277467266232281  0.03428835236638106  1.0000
  H   H184      1.0  0.8667279686944858  0.2652474347395304  0.031738446099776274  1.0000
  H   H185      1.0  0.9184327331843436  0.2591875441730156  0.05468301224470063  1.0000
  H   H186      1.0  0.8830179218106423  0.2259728484542629  0.111102950905543  1.0000
  H   H187      1.0  0.8309793989226462  0.2286527022271354  0.08855533804946956  1.0000
  H   H188      1.0  0.839315131139229  0.26826245351349076  0.13040167780391979  1.0000
  N   N6        1.0  0.4243259008623247  0.41407108336550535  0.3737598269997478  1.0000
  C   C213      1.0  0.40366408308294877  0.426093186064785  0.40926338411423246  1.0000
  C   C214      1.0  0.39106897867251467  0.3913091561723989  0.34818489035984246  1.0000
  C   C215      1.0  0.45900042157587717  0.369242286358586  0.3780118421386208  1.0000
  C   C216      1.0  0.44359567640431985  0.46943067650164355  0.35955450739888517  1.0000
  H   H189      1.0  0.42781584233913883  0.44276245402241504  0.4294671952729271  1.0000
  H   H190      1.0  0.38876125910751724  0.3852317063410684  0.42077633606818055  1.0000
  H   H191      1.0  0.3773755090890176  0.459965261842308  0.40706351025283355  1.0000
  H   H192      1.0  0.40533281188049425  0.38251904956019467  0.32094918993979127  1.0000
  H   H193      1.0  0.37654307405586546  0.3489041626227565  0.35781171016626734  1.0000
  H   H194      1.0  0.36399906912822905  0.4235428870261571  0.34481253991966776  1.0000
  H   H195      1.0  0.4754979443090514  0.35934138651569514  0.35176582735929557  1.0000
  H   H196      1.0  0.4453955198119187  0.3266689104252858  0.3879658539024569  1.0000
  H   H197      1.0  0.484290833064132  0.3840641061391561  0.397749204841005  1.0000
  H   H198      1.0  0.45797123066038525  0.46262372049123845  0.3321298120513717  1.0000
  H   H199      1.0  0.4697611682124176  0.48676013825435155  0.3776578131990587  1.0000
  H   H200      1.0  0.41869889777428076  0.5049260657231484  0.35710605811462565  1.0000
  N   N7        1.0  0.886515257134444  0.6224838082547126  0.8513434440844693  1.0000
  C   C217      1.0  0.8460963222756794  0.6392020173607191  0.8707360583944898  1.0000
  C   C218      1.0  0.8800993271198546  0.5643613959657232  0.8332816181685658  1.0000
  C   C219      1.0  0.922889925112449  0.6181952263751599  0.8775328819929161  1.0000
  C   C220      1.0  0.8968140336808306  0.6678821955091401  0.823833765431331  1.0000
  H   H201      1.0  0.8496880868495361  0.6827621449123953  0.8848065173263489  1.0000
  H   H202      1.0  0.8373313839758347  0.605581407192525  0.8915773942972214  1.0000
  H   H203      1.0  0.8179774192887548  0.6429653757457787  0.8517875571267792  1.0000
  H   H204      1.0  0.8528851059390243  0.565914537975998  0.8133377551210885  1.0000
  H   H205      1.0  0.9100412921923419  0.5499958251943348  0.8186301972517239  1.0000
  H   H206      1.0  0.8720283291647544  0.5291240087616962  0.8532611000484662  1.0000
  H   H207      1.0  0.9161668208011068  0.5840047622700723  0.8985215602427299  1.0000
  H   H208      1.0  0.928612291871874  0.6610377268875123  0.8919189822053035  1.0000
  H   H209      1.0  0.9540501414598087  0.6059118900864088  0.8639551229486422  1.0000
  H   H210      1.0  0.9020157585110355  0.7123469627922066  0.8363786370947304  1.0000
  H   H211      1.0  0.8698440122022332  0.6725974367626419  0.8038142633533473  1.0000
  H   H212      1.0  0.9270364040929404  0.6566486109284079  0.8085732920625209  1.0000
  N   N8        1.0  0.8598225513544924  0.930685132033736  0.6468943545191755  1.0000
  C   C221      1.0  0.8286315465623536  0.979322397251885  0.6539706881857719  1.0000
  C   C222      1.0  0.8421443948582452  0.8746411371854695  0.6614207738971235  1.0000
  C   C223      1.0  0.9017136158003675  0.9443836250531571  0.6648382273823777  1.0000
  C   C224      1.0  0.8669956108604031  0.9246665365647151  0.6074464455432597  1.0000
  H   H213      1.0  0.8416239313140514  0.022577484013427185  0.6442122374191162  1.0000
  H   H214      1.0  0.822202915984506  0.9846431845967434  0.6835159082981692  1.0000
  H   H215      1.0  0.7968906619921209  0.9710094937070034  0.6402326650453732  1.0000
  H   H216      1.0  0.8358614651586711  0.8782738469706948  0.6910424777809789  1.0000
  H   H217      1.0  0.8109682122988311  0.8621165789621961  0.6479042109966228  1.0000
  H   H218      1.0  0.8653093872835357  0.8372677807543807  0.6570190638033622  1.0000
  H   H219      1.0  0.9263462760706448  0.9090442314151225  0.659777231927856  1.0000
  H   H220      1.0  0.8977359480232419  0.9496267761466264  0.6946951831706609  1.0000
  H   H221      1.0  0.9157191860045973  0.9863153286399876  0.6542834642268142  1.0000
  H   H222      1.0  0.891484607211315  0.8896055059592243  0.6011729675757692  1.0000
  H   H223      1.0  0.8794874001842857  0.9667149413323922  0.5956015152142082  1.0000
  H   H224      1.0  0.8363881902990296  0.9125225707879135  0.5929567759497938  1.0000
  N   N9        1.0  0.3823402678611236  0.7248411269192522  0.1975599799614769  1.0000
  C   C225      1.0  0.35505878272938507  0.7006392687839291  0.16786775136046006  1.0000
  C   C226      1.0  0.4287328588129545  0.7235070308332175  0.18664241652300828  1.0000
  C   C227      1.0  0.37620973216575465  0.688458611317737  0.23034073170225522  1.0000
  C   C228      1.0  0.36937152943831064  0.7867375704180867  0.20540024098214338  1.0000
  H   H225      1.0  0.363615548684981  0.6537717625789957  0.16147249026560817  1.0000
  H   H226      1.0  0.3591846016375342  0.7265119273309866  0.1424882169307684  1.0000
  H   H227      1.0  0.31974156489633976  0.7019168209944333  0.17489474687012985  1.0000
  H   H228      1.0  0.4502090370847151  0.7427616161173799  0.2080132885586965  1.0000
  H   H229      1.0  0.43993631276870354  0.6773234097600294  0.18150660121589568  1.0000
  H   H230      1.0  0.43424171352222185  0.7486978387023384  0.16121216248671844  1.0000
  H   H231      1.0  0.3965491184696741  0.7048183171214175  0.253326327593002  1.0000
  H   H232      1.0  0.3855249667125643  0.6414633021247768  0.2253200461920204  1.0000
  H   H233      1.0  0.3415977585190836  0.6883756527587225  0.23947098126383382  1.0000
  H   H234      1.0  0.3895008452178717  0.8067727398718825  0.22742929189425554  1.0000
  H   H235      1.0  0.3345748900091322  0.7892186820519932  0.21392396930360302  1.0000
  H   H236      1.0  0.3729261410881922  0.8151791571302591  0.18101757195580626  1.0000
  N   N10       1.0  0.7898742874116762  0.8715927420188588  0.21157084762701395  1.0000
  C   C229      1.0  0.7774197140309481  0.864624150864999  0.17309236170528783  1.0000
  C   C230      1.0  0.8341032265387907  0.8472098146729914  0.2171329510407039  1.0000
  C   C231      1.0  0.758406473215039  0.8394632176410584  0.23466621820305297  1.0000
  C   C232      1.0  0.7896054273104138  0.9352298596424305  0.22150657930400408  1.0000
  H   H237      1.0  0.74440380110446  0.8829357431931334  0.16770983788777838  1.0000
  H   H238      1.0  0.7770503761135386  0.8170694762151961  0.1647089773981721  1.0000
  H   H239      1.0  0.8010249993068923  0.887567144655685  0.15495243308099776  1.0000
  H   H240      1.0  0.8446019726567631  0.8515673780360016  0.24587493622213805  1.0000
  H   H241      1.0  0.8356380519848774  0.7993018195313188  0.2096316307244289  1.0000
  H   H242      1.0  0.858756383049096  0.8706094218629307  0.20022690004310692  1.0000
  H   H243      1.0  0.7669714978940263  0.8440699013457974  0.2638758067482428  1.0000
  H   H244      1.0  0.7578179519186523  0.7912157341520227  0.22809025535902816  1.0000
  H   H245      1.0  0.7246637856223243  0.8566188448604535  0.231101576543536  1.0000
  H   H246      1.0  0.7974689843396994  0.9417304606080314  0.25070604796609386  1.0000
  H   H247      1.0  0.7571255774719882  0.9556611309946738  0.2167151164048867  1.0000
  H   H248      1.0  0.8141456542203367  0.9606569540819985  0.20559054388467707  1.0000
  N   N11       1.0  0.4884015600844378  0.24863147087083348  0.18307090465399362  1.0000
  C   C233      1.0  0.5297552657199668  0.28251820145367335  0.18446692731096268  1.0000
  C   C234      1.0  0.4957308513409821  0.18754720098151467  0.19607769032908332  1.0000
  C   C235      1.0  0.47232619805273107  0.24653402721289708  0.14535418557286423  1.0000
  C   C236      1.0  0.4556202115266838  0.27810324832695343  0.20631512014961792  1.0000
  H   H249      1.0  0.5423592302830618  0.2866389210449882  0.21267609157852754  1.0000
  H   H250      1.0  0.525401983133363  0.3284990283552309  0.17419137994925496  1.0000
  H   H251      1.0  0.5555557434472685  0.26111689775590463  0.16769472753679712  1.0000
  H   H252      1.0  0.5079075141093813  0.18746100660073495  0.22451248208951274  1.0000
  H   H253      1.0  0.46501772906278094  0.16101604801467007  0.19546317040156952  1.0000
  H   H254      1.0  0.5200239136102145  0.16375605919270586  0.17890876427026714  1.0000
  H   H255      1.0  0.49624748754939807  0.22466486466707813  0.12691827325348484  1.0000
  H   H256      1.0  0.46592232857722726  0.2918452721555649  0.13474198329729772  1.0000
  H   H257      1.0  0.44126436150889925  0.22116828964404012  0.14331837415539314  1.0000
  H   H258      1.0  0.4236705887528614  0.25450291428499905  0.20532397926880497  1.0000
  H   H259      1.0  0.44965847847077456  0.3243395111338796  0.19728682818787707  1.0000
  H   H260      1.0  0.4663585851818221  0.2800808583831613  0.23512716818069013  1.0000
  N   N12       1.0  0.3427389147948785  0.42839782632268814  0.9193337587375403  1.0000
  C   C237      1.0  0.2960823823471185  0.44404074409351263  0.9225831630478029  1.0000
  C   C238      1.0  0.3574692294822589  0.4374098711321209  0.8816331429245154  1.0000
  C   C239      1.0  0.34882425480734836  0.36543325232676094  0.9291117751591788  1.0000
  C   C240      1.0  0.3685103108080272  0.4666626397632875  0.9440538033682223  1.0000
  H   H261      1.0  0.2903796394295651  0.49136171474829915  0.9156043770911173  1.0000
  H   H262      1.0  0.28424742904419403  0.4382706956953191  0.9509063001702176  1.0000
  H   H263      1.0  0.27544826259658844  0.4159878824844584  0.9044965228330974  1.0000
  H   H264      1.0  0.3539388365364779  0.4845426890387191  0.8733561118260685  1.0000
  H   H265      1.0  0.3923611917168536  0.4248008694335844  0.8782254381806684  1.0000
  H   H266      1.0  0.33838059163508444  0.4094422662672079  0.8622601789528319  1.0000
  H   H267      1.0  0.3838622336371763  0.3524870774874407  0.9278344765210174  1.0000
  H   H268      1.0  0.33065861063310076  0.3352810629688665  0.9103850746714783  1.0000
  H   H269      1.0  0.33746027927178457  0.35668473504672704  0.9572240580094501  1.0000
  H   H270      1.0  0.36495108587954517  0.5144792603933855  0.9372974246946648  1.0000
  H   H271      1.0  0.40379727838587487  0.4552742686404659  0.9431941544865965  1.0000
  H   H272      1.0  0.3575485374243355  0.46166777685550925  0.9726808554808962  1.0000
  N   N13       1.0  0.4958761345873171  0.5260110930899637  0.6126088150591962  1.0000
  C   C241      1.0  0.529092791995136  0.5412190089109012  0.6401980776092218  1.0000
  C   C242      1.0  0.4534986931499494  0.5150494252982425  0.63057226711174  1.0000
  C   C243      1.0  0.5095630325019569  0.4720900004772566  0.5926399828506851  1.0000
  C   C244      1.0  0.491353496929595  0.5757848420230645  0.5870362663546148  1.0000
  H   H273      1.0  0.5614260118227217  0.5506019583873343  0.6275520068045273  1.0000
  H   H274      1.0  0.5335677176806506  0.5042809083548887  0.6597338597987562  1.0000
  H   H275      1.0  0.5195347191452633  0.581451851043397  0.6559584295952792  1.0000
  H   H276      1.0  0.4426747988946099  0.5543604728516152  0.6466303906434899  1.0000
  H   H277      1.0  0.4273217253886275  0.5054711188575973  0.6104458963945727  1.0000
  H   H278      1.0  0.4552854847461638  0.47661213846075556  0.6493626470837618  1.0000
  H   H279      1.0  0.5121616274184868  0.43316471667349754  0.6109860334972085  1.0000
  H   H280      1.0  0.5419045721340272  0.47831483535135777  0.5794599526294726  1.0000
  H   H281      1.0  0.485776113401165  0.46018412717126944  0.5709978643287593  1.0000
  H   H282      1.0  0.4659562000752169  0.5663025108718722  0.5661787761766175  1.0000
  H   H283      1.0  0.5225868826994859  0.5850711634495676  0.5727131979408823  1.0000
  H   H284      1.0  0.4814832207172306  0.6172229667732818  0.6013979360562689  1.0000
  N   N14       1.0  0.5695314544752208  0.9284299354807568  0.49488215905572125  1.0000
  C   C245      1.0  0.5235124077877545  0.9427329429102382  0.5031976353136421  1.0000
  C   C246      1.0  0.5771961021651827  0.8643887342040284  0.5004194450887517  1.0000
  C   C247      1.0  0.5983669512610643  0.9631148128767605  0.5192044040425405  1.0000
  C   C248      1.0  0.5790550424194624  0.9435543389204553  0.4567748804225897  1.0000
  H   H285      1.0  0.5168578212167988  0.9909487832672851  0.49943546627183427  1.0000
  H   H286      1.0  0.5152907473738793  0.9320399763389371  0.5318168159157799  1.0000
  H   H287      1.0  0.5006662545210367  0.9175407734125804  0.485426802093656  1.0000
  H   H288      1.0  0.6118039016659892  0.8523710658716597  0.49488398434920416  1.0000
  H   H289      1.0  0.5698551651980621  0.8513600817031716  0.5287769708296826  1.0000
  H   H290      1.0  0.556147148128176  0.8367735551381438  0.4824208848183387  1.0000
  H   H291      1.0  0.6334129260044514  0.9548992186922376  0.5131663394200217  1.0000
  H   H292      1.0  0.5925715838051738  0.9517826080862374  0.5481219325018881  1.0000
  H   H293      1.0  0.5924570762052546  0.01158569174783386  0.5165269992816768  1.0000
  H   H294      1.0  0.5591625295975184  0.9164507914744935  0.4376280163847979  1.0000
  H   H295      1.0  0.6140959481984174  0.9365004256583214  0.4500133985858046  1.0000
  H   H296      1.0  0.5715362535769187  0.990827032960101  0.4512007755208246  1.0000
  N   N15       1.0  0.4008584637068785  0.9638299991618499  0.024822364925061624  1.0000
  C   C249      1.0  0.3665114137422918  0.9928569549794377  0.003175282891987097  1.0000
  C   C250      1.0  0.44294267704099527  0.9945170392119376  0.01883071483958032  1.0000
  C   C251      1.0  0.40464320915164625  0.9009096040945035  0.01364370753496913  1.0000
  C   C252      1.0  0.38925687547945426  0.967163889165707  0.06364621639892687  1.0000
  H   H297      1.0  0.33455597103021495  0.9699323211266849  0.006297229701120344  1.0000
  H   H298      1.0  0.37457616045983433  0.9921534595095935  0.973777616353606  1.0000
  H   H299      1.0  0.3619837105253545  0.040043100043121393  0.01156603618168428  1.0000
  H   H300      1.0  0.4408103932038646  0.04247621865849838  0.026011742600938303  1.0000
  H   H301      1.0  0.4694461640764486  0.9753894206308787  0.03570267008921957  1.0000
  H   H302      1.0  0.4533281213639111  0.9916623920276652  0.9899862650681029  1.0000
  H   H303      1.0  0.37353137577839757  0.8763708155402982  0.018215744133758704  1.0000
  H   H304      1.0  0.43058872129598563  0.877757114723622  0.02913817414460329  1.0000
  H   H305      1.0  0.41246637047677687  0.896575877115762  0.9842982190876183  1.0000
  H   H306      1.0  0.3851580331804585  0.013887613927335618  0.07274440061509391  1.0000
  H   H307      1.0  0.4148634354294749  0.9469857974953431  0.08097086104098183  1.0000
  H   H308      1.0  0.35803088221037926  0.9437523817760666  0.06930558207943394  1.0000
  N   N16       1.0  0.9318978177840694  0.672969061756348  0.032717678863189326  1.0000
  C   C253      1.0  0.9634218383706928  0.7218353775442305  0.03856953488565362  1.0000
  C   C254      1.0  0.9552276442561762  0.6191946877985454  0.02030999799503519  1.0000
  C   C255      1.0  0.8997051620217278  0.690601245221703  0.005010651771236274  1.0000
  C   C256      1.0  0.9091415996114208  0.6602134267802228  0.06707358753161641  1.0000
  H   H309      1.0  0.9881527883006779  0.709974851373033  0.05932396286675079  1.0000
  H   H310      1.0  0.9466992567749284  0.7629967561237413  0.047954288619673324  1.0000
  H   H311      1.0  0.9812215286251441  0.7326622278064416  0.01316205020729555  1.0000
  H   H312      1.0  0.9321164387965302  0.582337203508195  0.014332005816499294  1.0000
  H   H313      1.0  0.9740461924962219  0.6275096247509195  0.9950912126782058  1.0000
  H   H314      1.0  0.978523526248357  0.603088751803903  0.041136640308486294  1.0000
  H   H315      1.0  0.8751791096289803  0.6548524314912574  0.00016279923767492654  1.0000
  H   H316      1.0  0.9158860440948086  0.7003116955297638  0.9786907243703128  1.0000
  H   H317      1.0  0.8815724687566958  0.7311475932412659  0.013482593804950094  1.0000
  H   H318      1.0  0.8850517361240001  0.6237554357395901  0.06366638871831065  1.0000
  H   H319      1.0  0.8911524670997572  0.6996672882166355  0.07730182151473297  1.0000
  H   H320      1.0  0.9322673853885232  0.6462806871241863  0.08861838730064164  1.0000
  N   N17       1.0  0.8427364061022182  0.3197890860706032  0.6860035411369528  1.0000
  C   C257      1.0  0.8234817378600425  0.32684317600514423  0.722485530842601  1.0000
  C   C258      1.0  0.809516163588728  0.33360164859320585  0.6583040826908056  1.0000
  C   C259      1.0  0.8579430987299455  0.25801567673791603  0.6810319206362845  1.0000
  C   C260      1.0  0.8800612189651354  0.3609239775912232  0.6821591124369376  1.0000
  H   H321      1.0  0.8112651344867335  0.37279067065877247  0.727026144006619  1.0000
  H   H322      1.0  0.8477873790572276  0.3174824505870475  0.7440784332708885  1.0000
  H   H323      1.0  0.7954427631426431  0.29607470215759424  0.726554043659439  1.0000
  H   H324      1.0  0.8230766099097688  0.3291720555707509  0.630404323769883  1.0000
  H   H325      1.0  0.7808047112927949  0.3035018434053134  0.6603235053906008  1.0000
  H   H326      1.0  0.7975517991856658  0.38005186205943886  0.6612617618700349  1.0000
  H   H327      1.0  0.8726759700334044  0.25130100538487343  0.653709318504491  1.0000
  H   H328      1.0  0.8307586897685092  0.22556591749829225  0.6840939645667067  1.0000
  H   H329      1.0  0.8833560196157739  0.24635360243184024  0.7012995380562925  1.0000
  H   H330      1.0  0.9070852365761367  0.34955682678325517  0.7009717037582411  1.0000
  H   H331      1.0  0.8703341256369618  0.40764538664821637  0.6876787685386981  1.0000
  H   H332      1.0  0.8936049330919523  0.3594413568759216  0.6542030989576813  1.0000
  N   N18       1.0  0.15828795889055347  0.8722457927681033  0.938992611122063  1.0000
  C   C261      1.0  0.12223757263932877  0.915623775691505  0.9387779521406784  1.0000
  C   C262      1.0  0.1456238029144037  0.819510347737673  0.9174272323627916  1.0000
  C   C263      1.0  0.16744614822905302  0.8542666201432343  0.9766765822221943  1.0000
  C   C264      1.0  0.19774859766966646  0.8993843600957443  0.9230462566946763  1.0000
  H   H333      1.0  0.12993074964660756  0.9554331817263761  0.9556748241194316  1.0000
  H   H334      1.0  0.09164049403680208  0.8958150925881184  0.9495308455061128  1.0000
  H   H335      1.0  0.11489569755652163  0.9312735475348539  0.910916105803382  1.0000
  H   H336      1.0  0.17218645490447249  0.7859223784287586  0.9168559396591143  1.0000
  H   H337      1.0  0.11606478197081582  0.7975660253003588  0.9287445949948  1.0000
  H   H338      1.0  0.13830751510108574  0.8311055699951405  0.8888097596575546  1.0000
  H   H339      1.0  0.19404695789494264  0.8207692720822669  0.9777757958406715  1.0000
  H   H340      1.0  0.13814795980940908  0.8344082051422853  0.9897087197453021  1.0000
  H   H341      1.0  0.1781383490594708  0.8927225298888471  0.99361551293432  1.0000
  H   H342      1.0  0.22510880502941366  0.8670590485040939  0.9217590861851269  1.0000
  H   H343      1.0  0.2092989120766937  0.9379896771900396  0.939446507546027  1.0000
  H   H344      1.0  0.1916819178711675  0.9148960813659753  0.8949593834579259  1.0000
  N   N19       1.0  0.23722723753315367  0.2581489558155503  0.15504964027154874  1.0000
  C   C265      1.0  0.2474594851555716  0.31661746378597666  0.13916113472850256  1.0000
  C   C266      1.0  0.2211604226682642  0.21761590598185077  0.1263316334014892  1.0000
  C   C267      1.0  0.20330666996039315  0.26508429197622063  0.18324684166986518  1.0000
  C   C268      1.0  0.2771239772755867  0.2332072082913932  0.17143681801868005  1.0000
  H   H345      1.0  0.27274159368245  0.312679901399852  0.1175811895201414  1.0000
  H   H346      1.0  0.2606575470739758  0.3479675648282994  0.15991986262339603  1.0000
  H   H347      1.0  0.21808273192895689  0.3372569762262423  0.12687044974695824  1.0000
  H   H348      1.0  0.2137312243959486  0.17274228024015992  0.13726110466197858  1.0000
  H   H349      1.0  0.19093130103115175  0.23475183700192348  0.11343128730685766  1.0000
  H   H350      1.0  0.24605971373736368  0.21143300238429963  0.10463005981559123  1.0000
  H   H351      1.0  0.21398631672772028  0.29638752929721  0.20496527668340703  1.0000
  H   H352      1.0  0.19567353032959645  0.2219518165953107  0.19634539022915032  1.0000
  H   H353      1.0  0.1722665753770678  0.2823647062674026  0.17175251069448405  1.0000
  H   H354      1.0  0.2711316373668542  0.18819060883346128  0.18264527423938157  1.0000
  H   H355      1.0  0.28970968816473563  0.2620245315373084  0.1937092543224847  1.0000
  H   H356      1.0  0.3037935992001737  0.22891608623035165  0.15106884592687966  1.0000
  N   N20       1.0  0.985657721080863  0.08068649943482775  0.827340673143974  1.0000
  C   C269      1.0  0.987322957224052  0.14503156490595193  0.819937250200728  1.0000
  C   C270      1.0  0.9826846370153369  0.07153633016900973  0.8668449610751151  1.0000
  C   C271      1.0  0.025653844998379194  0.05212696556921803  0.8132692173702704  1.0000
  C   C272      1.0  0.9470833289204957  0.054035391443999714  0.8093855279418228  1.0000
  H   H357      1.0  0.015212764228184517  0.16671255282873765  0.8342194947827946  1.0000
  H   H358      1.0  0.9571307320791467  0.16777887582414963  0.8294075286851457  1.0000
  H   H359      1.0  0.9913519008624739  0.15377920111247523  0.7905513251747696  1.0000
  H   H360      1.0  0.01102596656717636  0.09171129979571702  0.8813567357049246  1.0000
  H   H361      1.0  0.9527883823347298  0.0923393173117224  0.878334798805082  1.0000
  H   H362      1.0  0.9821172650680013  0.0235496595579634  0.8735524877067847  1.0000
  H   H363      1.0  0.055513925647638684  0.07193220334845862  0.8256147852523632  1.0000
  H   H364      1.0  0.02856128145308423  0.05749356598783151  0.7833974334864856  1.0000
  H   H365      1.0  0.025789477186679344  0.003646730093479711  0.8189013205065646  1.0000
  H   H366      1.0  0.9483150352174778  0.060023573300139965  0.7794986473431696  1.0000
  H   H367      1.0  0.9161620527661287  0.07443663346121032  0.8191562420583964  1.0000
  H   H368      1.0  0.944852982373888  0.00537713111840743  0.8144048424373688  1.0000
  N   N21       1.0  0.2634672356110694  0.7792994431862539  0.5296238238313868  1.0000
  C   C273      1.0  0.24508485679855496  0.7551361118974683  0.4955228834447348  1.0000
  C   C274      1.0  0.26250463435755855  0.7329203838275195  0.5577151628840638  1.0000
  C   C275      1.0  0.23724768600260898  0.8306708954846213  0.5418001601786007  1.0000
  C   C276      1.0  0.3090832639962514  0.798361144147513  0.5235434049932417  1.0000
  H   H369      1.0  0.24508462841839565  0.7889510128262227  0.4737245015987241  1.0000
  H   H370      1.0  0.21079329395443674  0.7395980554493454  0.49917005196302916  1.0000
  H   H371      1.0  0.2643193367105772  0.7165114605901562  0.4854657586812297  1.0000
  H   H372      1.0  0.2769589112327935  0.7491551489513739  0.5836379021257466  1.0000
  H   H373      1.0  0.22858208387675996  0.717752490421845  0.5633004895119166  1.0000
  H   H374      1.0  0.28150252464478703  0.6933487843996247  0.5490682314258283  1.0000
  H   H375      1.0  0.2382475128892467  0.8672328090948674  0.5216958319063768  1.0000
  H   H376      1.0  0.24972272433798326  0.8491254530947515  0.567882399896588  1.0000
  H   H377      1.0  0.20243667783916877  0.8181573834120586  0.5459252061980945  1.0000
  H   H378      1.0  0.32423524175999385  0.8155909958692307  0.5489628847738778  1.0000
  H   H379      1.0  0.3110907959294958  0.8343702236970362  0.5031428882977363  1.0000
  H   H380      1.0  0.32955480014274463  0.7608380487036152  0.5136336665433575  1.0000
  N   N22       1.0  0.890316123991051  0.07284360516752719  0.9957319131172219  1.0000
  C   C277      1.0  0.8535021257956684  0.03046863293075308  0.9980243201716794  1.0000
  C   C278      1.0  0.9319785286916201  0.04031395519608205  0.9986083326759  1.0000
  C   C279      1.0  0.8872428241618113  0.11669155022738686  0.025583121116002916  1.0000
  C   C280      1.0  0.8885082430543653  0.10406935737833178  0.9606715098224619  1.0000
  H   H381      1.0  0.8547021727853138  0.9969311949672481  0.9757254386467135  1.0000
  H   H382      1.0  0.8214917100178448  0.053562272311333814  0.996080268397833  1.0000
  H   H383      1.0  0.8538497392951206  0.005641858437925418  0.023990546779735448  1.0000
  H   H384      1.0  0.9603950617746788  0.07096522180975029  0.9969509765621011  1.0000
  H   H385      1.0  0.9345937954344592  0.016244299143314045  0.02475093554390262  1.0000
  H   H386      1.0  0.9356304224433031  0.007021216191175794  0.9764277230796455  1.0000
  H   H387      1.0  0.9145748339550622  0.14934398775196867  0.024428947808360357  1.0000
  H   H388      1.0  0.8885351205318189  0.09475605534243026  0.0524934084918019  1.0000
  H   H389      1.0  0.8561250172011959  0.14204642573685922  0.02418259861076133  1.0000
  H   H390      1.0  0.9155626845462497  0.1368457020435676  0.9579852152502217  1.0000
  H   H391      1.0  0.8573369832514843  0.1289177118634799  0.9577154744938978  1.0000
  H   H392      1.0  0.8910152810558453  0.07250260989168544  0.9374633173333945  1.0000
  N   N23       1.0  0.3290436700239988  0.04899172513141825  0.6973510755999875  1.0000
  C   C281      1.0  0.2951271543961491  0.0812566866761264  0.7179892101739723  1.0000
  C   C282      1.0  0.3715151309509582  0.055713058692070216  0.7159555371000011  1.0000
  C   C283      1.0  0.33212222837867583  0.07358375717228749  0.6604021943048953  1.0000
  C   C284      1.0  0.31735598397735226  0.9853864102671163  0.6950828233724399  1.0000
  H   H393      1.0  0.30284825285501366  0.12950315440796722  0.7200686420782553  1.0000
  H   H394      1.0  0.291949475545938  0.06399502222821818  0.746031369986189  1.0000
  H   H395      1.0  0.2626284895019448  0.07728520254687554  0.7046921512212728  1.0000
  H   H396      1.0  0.3979047206716808  0.03171986192927867  0.7012825257143943  1.0000
  H   H397      1.0  0.38137895480177336  0.10318016755060455  0.7182581335838072  1.0000
  H   H398      1.0  0.37042412916422907  0.03714070969347061  0.7438396270821512  1.0000
  H   H399      1.0  0.356912194063295  0.049614039814252164  0.6438236425607311  1.0000
  H   H400      1.0  0.34122038443759295  0.12147240912017487  0.6610777901515134  1.0000
  H   H401      1.0  0.30038906500914286  0.06992934314376331  0.6458280289533922  1.0000
  H   H402      1.0  0.315575615943014  0.9649637257521381  0.7224354188774917  1.0000
  H   H403      1.0  0.34204994293766605  0.9599627192642342  0.679369871122385  1.0000
  H   H404      1.0  0.28539512654546956  0.9786019860144599  0.6813198748439668  1.0000
  N   N24       1.0  0.09408423694401846  0.5068925806631506  0.36404048057925775  1.0000
  C   C285      1.0  0.09228864214388799  0.4604816956149367  0.3921398777456434  1.0000
  C   C286      1.0  0.12277501762091769  0.5558853554779448  0.37636426595954203  1.0000
  C   C287      1.0  0.049715982150593474  0.5300645588755066  0.3574344152506891  1.0000
  C   C288      1.0  0.11169596079998144  0.48106805669300634  0.3301579404268301  1.0000
  H   H405      1.0  0.0707288967155064  0.42290511089174343  0.3839182078616018  1.0000
  H   H406      1.0  0.07948830000141882  0.4782695815730822  0.4182651487208911  1.0000
  H   H407      1.0  0.12527630829049974  0.44169301662366145  0.3974809287438502  1.0000
  H   H408      1.0  0.12485239907230093  0.5918261219081826  0.3559437337406626  1.0000
  H   H409      1.0  0.11085017601246026  0.576172683192621  0.4020575853369886  1.0000
  H   H410      1.0  0.15658357484090235  0.540058256246396  0.3813297417103369  1.0000
  H   H411      1.0  0.035252111627618536  0.5491747580107214  0.38258724173181774  1.0000
  H   H412      1.0  0.027291755196346523  0.49448591259713726  0.3476111025813335  1.0000
  H   H413      1.0  0.049946511770612816  0.5657259527275931  0.3367446537335311  1.0000
  H   H414      1.0  0.11382335270309452  0.5147924559239776  0.3083591830891657  1.0000
  H   H415      1.0  0.09094324254532869  0.44383007928538887  0.3201072455142277  1.0000
  H   H416      1.0  0.1451791708704222  0.4631172320032544  0.33429016071487366  1.0000
  N   N25       1.0  0.6276546060997341  0.7750449494046008  0.7231188483426602  1.0000
  C   C289      1.0  0.6396576212187419  0.7137699853952016  0.7127034602506407  1.0000
  C   C290      1.0  0.6586582967420731  0.817192100409341  0.7064885041212102  1.0000
  C   C291      1.0  0.6295406601928796  0.7812287911105964  0.7629721807135144  1.0000
  C   C292      1.0  0.5829809682237397  0.7879164092872241  0.7102640425093207  1.0000
  H   H417      1.0  0.6166215707040069  0.6806714351686768  0.7242264590750596  1.0000
  H   H418      1.0  0.6730008658152847  0.7023072270766033  0.7223376329590947  1.0000
  H   H419      1.0  0.639439335989047  0.7077983790509957  0.6828144861613091  1.0000
  H   H420      1.0  0.692757828375473  0.8084722544521553  0.7155203499751762  1.0000
  H   H421      1.0  0.6579806434836496  0.8137583469599695  0.6763826034068274  1.0000
  H   H422      1.0  0.6506833235445248  0.8638972226072861  0.7138498385380471  1.0000
  H   H423      1.0  0.6629971361841839  0.7717738850740553  0.7733615739178296  1.0000
  H   H424      1.0  0.6066642690701112  0.7499021585413036  0.7764506293109421  1.0000
  H   H425      1.0  0.6207298878706652  0.8269574926614233  0.7718796953036369  1.0000
  H   H426      1.0  0.5728320765697664  0.8339505646636333  0.7174297956990737  1.0000
  H   H427      1.0  0.55858905542965  0.7570108391769349  0.7222038828841904  1.0000
  H   H428      1.0  0.5806072506833564  0.7834991054501669  0.6802719711268719  1.0000
  N   N26       1.0  0.3130069116833774  0.07089206925219882  0.3452566658261655  1.0000
  C   C293      1.0  0.3226852092958038  0.014750308354315012  0.32596025516477894  1.0000
  C   C294      1.0  0.27610282997580504  0.06171295388856768  0.37041579492258625  1.0000
  C   C295      1.0  0.30149578657717613  0.11711642201709016  0.31872708719472664  1.0000
  C   C296      1.0  0.35185943922237767  0.09005273670364611  0.3659452828453733  1.0000
  H   H429      1.0  0.3500848158965492  0.020293362410940707  0.30647513784429387  1.0000
  H   H430      1.0  0.2939173017005105  0.9986626928076036  0.31031881184613364  1.0000
  H   H431      1.0  0.3321415728486099  0.9791061416519984  0.34510050864370023  1.0000
  H   H432      1.0  0.26820115674027245  0.10318333439883465  0.3856183450414201  1.0000
  H   H433      1.0  0.24614553821623275  0.04721225228655146  0.3556517199391633  1.0000
  H   H434      1.0  0.2839061941875324  0.02739554675870237  0.3909800528666477  1.0000
  H   H435      1.0  0.2941322611448807  0.16011661845731284  0.33238965215575067  1.0000
  H   H436      1.0  0.2722369032187718  0.10409605518253784  0.30261926436376974  1.0000
  H   H437      1.0  0.3287220180084444  0.12503780563875666  0.2993646399586595  1.0000
  H   H438      1.0  0.3458389397870483  0.13239616735416715  0.38079196706742  1.0000
  H   H439      1.0  0.38031261021515717  0.0971715683895471  0.3478702209057685  1.0000
  H   H440      1.0  0.3614309018042467  0.05639536248034327  0.3863857772529829  1.0000
  N   N27       1.0  0.9009996263308618  0.6137650431512084  0.54399036607536  1.0000
  C   C297      1.0  0.909093880668689  0.6721275654741626  0.5271456025005107  1.0000
  C   C298      1.0  0.9405693790807594  0.5767472955987945  0.5408899453172189  1.0000
  C   C299      1.0  0.8642298684277173  0.5838788582384357  0.5253464044429234  1.0000
  C   C300      1.0  0.8900842558559712  0.6223299757267903  0.5826432292921008  1.0000
  H   H441      1.0  0.8796765159262949  0.700877295481795  0.5286295514503903  1.0000
  H   H442      1.0  0.9180056727350134  0.6673592001863679  0.49806385191737046  1.0000
  H   H443      1.0  0.9361484991227533  0.6964397445999159  0.5408732376830844  1.0000
  H   H444      1.0  0.9497219009133181  0.5695289286892419  0.5120547435645771  1.0000
  H   H445      1.0  0.9690213314511177  0.5980599848945024  0.5545007838536197  1.0000
  H   H446      1.0  0.9354961825952786  0.5322985443650805  0.5532681794029258  1.0000
  H   H447      1.0  0.8337796482554872  0.6105875372474832  0.5272755131710669  1.0000
  H   H448      1.0  0.8571682523307822  0.5396748623355433  0.5373545015844996  1.0000
  H   H449      1.0  0.8714315371715139  0.5765986146521072  0.4960817747918266  1.0000
  H   H450      1.0  0.9171716730158739  0.6443395348203793  0.5976770640777336  1.0000
  H   H451      1.0  0.882988004572707  0.5792996922630057  0.5961231065065994  1.0000
  H   H452      1.0  0.860872739248955  0.6509161219914494  0.5859082754579226  1.0000
  N   N28       1.0  0.7878043865648761  0.22170324334616542  0.44626493235061826  1.0000
  C   C301      1.0  0.8265033742337047  0.2207501169218271  0.47018625065313235  1.0000
  C   C302      1.0  0.7827476809462118  0.1631323684612631  0.42856693203384105  1.0000
  C   C303      1.0  0.7935956255239893  0.26765707433205743  0.41826240715031987  1.0000
  C   C304      1.0  0.7484187037753476  0.23498518848839156  0.4679293624561218  1.0000
  H   H453      1.0  0.8310681301879719  0.2637706526393959  0.48462979998499917  1.0000
  H   H454      1.0  0.8569089170436156  0.21172836919578364  0.4545869106719697  1.0000
  H   H455      1.0  0.8238602199971383  0.1853320177681681  0.4909515903720602  1.0000
  H   H456      1.0  0.812106906684012  0.1519495946841476  0.4122599090970909  1.0000
  H   H457      1.0  0.7786552169841576  0.1272589201465042  0.4488527522736308  1.0000
  H   H458      1.0  0.7539483601023985  0.1617937347662899  0.4101609228767496  1.0000
  H   H459      1.0  0.7973670159489669  0.3125658124085351  0.4306269989139694  1.0000
  H   H460      1.0  0.765080699863182  0.26923670340104344  0.39962767165505253  1.0000
  H   H461      1.0  0.8231717140629325  0.2591045900611486  0.40152678271652426  1.0000
  H   H462      1.0  0.7185928481556012  0.2353924911459062  0.45069851829933205  1.0000
  H   H463      1.0  0.7510778927159387  0.2792228152824576  0.48145054694006967  1.0000
  H   H464      1.0  0.7432853768898298  0.20128645450779037  0.48941009012786546  1.0000
  N   N29       1.0  0.30658115078826054  0.27116431033496213  0.5473912482757565  1.0000
  C   C305      1.0  0.3474029663511638  0.2514926901192658  0.5648809343314846  1.0000
  C   C306      1.0  0.29881749092997134  0.23516128281620996  0.5143725308490528  1.0000
  C   C307      1.0  0.3102794137625052  0.3344846404880635  0.5375716505523334  1.0000
  C   C308      1.0  0.26976625724986664  0.263579841335535  0.572798828721929  1.0000
  H   H465      1.0  0.3757735536604108  0.25584580311221483  0.5462588579917439  1.0000
  H   H466      1.0  0.34539010246853147  0.20416407086994282  0.5731663510224668  1.0000
  H   H467      1.0  0.35477171273986335  0.2782894636699209  0.5895934271597391  1.0000
  H   H468      1.0  0.2961340208801806  0.18700269271627468  0.5207135440674743  1.0000
  H   H469      1.0  0.2681863462280293  0.24857633429761838  0.500503088233848  1.0000
  H   H470      1.0  0.3260536338297367  0.24007036071333765  0.49462223065757754  1.0000
  H   H471      1.0  0.3154885994150935  0.3630355038417705  0.5619499807058613  1.0000
  H   H472      1.0  0.2801235060831454  0.35065190557769044  0.5240495909918886  1.0000
  H   H473      1.0  0.3379712913148371  0.3422368195865855  0.5186785945126223  1.0000
  H   H474      1.0  0.23865806646270693  0.27999574259417037  0.5609822270540744  1.0000
  H   H475      1.0  0.2754922469426885  0.2887474968980761  0.5984347946458922  1.0000
  H   H476      1.0  0.2651526342805058  0.21617315942107607  0.580242014696735  1.0000
  N   N30       1.0  0.5308649271024127  0.49456475280685597  0.06127396576349279  1.0000
  C   C309      1.0  0.5517227091843833  0.4874834963223942  0.025426043345754712  1.0000
  C   C310      1.0  0.5361489236952593  0.5564913022639701  0.07398400434920273  1.0000
  C   C311      1.0  0.5518683837501396  0.45411502596032927  0.0873555723764327  1.0000
  C   C312      1.0  0.48388101094723013  0.48019116213935686  0.05824301926296738  1.0000
  H   H477      1.0  0.5379664469914104  0.5188969022265952  0.005358819510220103  1.0000
  H   H478      1.0  0.5468908939145339  0.4417406919190263  0.014568505549096722  1.0000
  H   H479      1.0  0.587616312224724  0.49515953255186207  0.027007111861944825  1.0000
  H   H480      1.0  0.519236705545333  0.5882009739657248  0.05581939883416286  1.0000
  H   H481      1.0  0.5220305574620333  0.5627280946373292  0.10152220265334908  1.0000
  H   H482      1.0  0.5712311571753484  0.5693900202226823  0.07550675593436852  1.0000
  H   H483      1.0  0.5497629796863968  0.4071116974451021  0.0781329551801746  1.0000
  H   H484      1.0  0.5364647308311964  0.4571891505032093  0.11455762225718641  1.0000
  H   H485      1.0  0.5872020382176557  0.46468107471948406  0.09079803434991544  1.0000
  H   H486      1.0  0.46636169537590205  0.4887995470028508  0.08406697024923385  1.0000
  H   H487      1.0  0.4785917775805253  0.4327504997262335  0.05086696823735831  1.0000
  H   H488      1.0  0.46749423260023526  0.507530769427537  0.037286139590133834  1.0000
  N   N31       1.0  0.66490922621032  0.261241129608049  0.8945232352120648  1.0000
  C   C313      1.0  0.7042399254764186  0.2252690601456242  0.901626907762705  1.0000
  C   C314      1.0  0.6433854253997471  0.2397607499528711  0.8610654956820866  1.0000
  C   C315      1.0  0.6775838318253092  0.32411131096047474  0.8901990832316221  1.0000
  C   C316      1.0  0.6343322323469742  0.2559178209781088  0.9252642682759656  1.0000
  H   H489      1.0  0.7211753245051771  0.24027899904757288  0.9267695026063482  1.0000
  H   H490      1.0  0.7281163220465487  0.2283945487893284  0.8789316685031289  1.0000
  H   H491      1.0  0.6958469867006492  0.1775850526965752  0.905151917497582  1.0000
  H   H492      1.0  0.613284658066914  0.2656296220402643  0.8551541754630966  1.0000
  H   H493      1.0  0.6655258897337888  0.2432073096948515  0.8372260123460731  1.0000
  H   H494      1.0  0.6330236727043526  0.1925469296578579  0.8635551308721704  1.0000
  H   H495      1.0  0.6928724589340127  0.34203381170883485  0.915391497834356  1.0000
  H   H496      1.0  0.6487502925572153  0.35229083218423063  0.8841427249250302  1.0000
  H   H497      1.0  0.7014643350910088  0.3295931533749039  0.8676677981471023  1.0000
  H   H498      1.0  0.6045076550873352  0.28311772217355213  0.921001775315973  1.0000
  H   H499      1.0  0.6495480262680785  0.2710216868136217  0.9510775034385505  1.0000
  H   H500      1.0  0.6233718819017975  0.20918835204772934  0.928879949866412  1.0000
  N   N32       1.0  0.10952127422493207  0.3202045403560203  0.6428408192783571  1.0000
  C   C317      1.0  0.14839538019742285  0.3195224497053748  0.6665327929978221  1.0000
  C   C318      1.0  0.12059647464220724  0.34677856000631846  0.6074669305348087  1.0000
  C   C319      1.0  0.07465083916929925  0.35540592751995614  0.6603193377249418  1.0000
  C   C320      1.0  0.09412098923580325  0.25876856170409157  0.6371440096104158  1.0000
  H   H501      1.0  0.14109048770316113  0.2986171523315253  0.6931253813357618  1.0000
  H   H502      1.0  0.1606309004597198  0.36521136089412254  0.6720509660959728  1.0000
  H   H503      1.0  0.17550856132517778  0.29362656991781844  0.6541014060480866  1.0000
  H   H504      1.0  0.09179204001953  0.34758370464497745  0.589018790252399  1.0000
  H   H505      1.0  0.13242519585372414  0.39331578484862595  0.6105636072256126  1.0000
  H   H506      1.0  0.14667616629502353  0.32138077795697684  0.5932843126007782  1.0000
  H   H507      1.0  0.06434560276295297  0.3354710214986356  0.6864867598995821  1.0000
  H   H508      1.0  0.04513486657147369  0.35766855140697973  0.6428251539015646  1.0000
  H   H509      1.0  0.08551464965787181  0.40176962395709426  0.6657666254028095  1.0000
  H   H510      1.0  0.11945704792520438  0.23087036874006306  0.6238046753917379  1.0000
  H   H511      1.0  0.0646075167831186  0.25747502076318507  0.6196758821231296  1.0000
  H   H512      1.0  0.08552018142039451  0.23738088537817625  0.6633122129855391  1.0000
