data_image0
_chemical_formula_structural       SFeSH3FeS2FeS2FeS2FeSFeHS2FeS2HFeS2C6H4C6H6C2H2CH2C2HNHC2H2CH2C2H3CH3CH2CHCH5NCH3NH2CHCH2CFeHSC2HCH2C2H3NCH4SCHCSHCH4FeH2CH2SHFeS2FeSFeSHSFeHSHC2HC5H2C7H5CSHC7H4C6H4CNCH2C2NH5SHSHCSH2SH2FeH2CH7CHCN2H4C2H4CSCHS2FeSHFeS2FeSFeS3HSFeS2FeSFeS3HCH3C6H4C6H4CHCH3SC3NC4H16NHCH2CH3CH5Fe2HNC4H7CH6CH2NC2NHSH2CHCH4C3HCH8CHFeS2FeSHFeSFeSHFeS2FeS2FeSFeS3FeS2C6H4C5H3C2H2NC6H4CHC6H11CHCHCH4NC4H13C2H3CNHCHSCHCHCH3CH4SHFeS2FeSFeSFeS2FeS2FeSFeS3FeS2C6H6CH3CH2C6H4NH2C6H7CHNC4H14C3H4CNH3C2HC2H5CFeC3NHC3H3C2H3NCH5SCSCH5FeHFeS2HCSHCHCHCH2CH3CHCHCHC3H5CHSHNHFeNSHNSHSH2SHC2H4C2H2FeC3HCHNCNCFeSCFeSHFe2S2FeS2FeS2FeSFeS3C2H3C6H5C3SH10CHNH4CSC3SNC4H13CH4CH3CH7C2H3SCHCNH4CSH2CH3CH2C3HCHCHSFeC2HC2H2CH9CH2CFeS2HSFe2SFeSH3SCHC4HCH2SCH3SH2C2H2CHCHCNCHCHCH2CH2FeH2CHCHS2C2H2FeS2FeS2FeSFeS3FeS2FeSHFeHSCHCFeH2SH2SH3CHC2S2C3HC2HCH2C6H2CHC6H4C6H5NC4H12SHCFeH2CHS2H2CSCHCHCNC2NCH6FeH4CH2CH4CHCH6C2FeSHFeS2FeSFeS3FeHSNHC8H4C6H4C6H4CH9CHC2H4NHNCSCHCNC4H14CHSH2SH3CH2SH3SCSFeS2FeS2FeSFeS3FeS2FeSFe2S3CH2C2H2C2HCH2C6H4C6H4C6H5CH7CH3CNC3H4SHCHCNCH5NC4H12NC4H5FeH12C2HNSHCNCSFeS2FeSFeSFeS3CHSHSHSHCH3NHC6H4C3H2C6H4FeHNHCH2CH2CH2SH2NC4H14CH2CH3C2HC2H3NCFeCHCH3CSH2CFeSHFeSCFeSFeSFeS2FeSHFeSFeS3HCH2C3H2C2H2C6H6CH2SH5SH4SHCH5C3HCNCHC3H4CH2CHCSH3NHFeSFeS2FeSFeS3HCH2SHSHCHC5H2FeH6C6H4CH4C6H4CHCH2CH5CH5N2C4H12NC4HCHCSH2CHCSH3CH2CSHNC2SFeS2FeS2FeSFeS2FeHSC2SFeHNH2CH2S2HFeS2FeS2C5H4SHCHNC2SH2Fe2H3SCHCHC6H4C6H4C3HCHCHCSFeCH3CH4NH2C2HNC4H13CHSCNC4HFeCH2C2H10CHSCSH3C2H2CHFeCHCHSH3C3H2NH5CHCFeSHFeSCFeSFeS3HFeS2FeS2FeSFeS3FeHSH2C6H4C6H4C6H8SCHSC6H4C2HCNH4SHC2SCH2NCH2CH3CNC4H12NHCH5C2H2CH2C2HCH5CH6CN2H7CH5CNH3CHC2HCSCH8CHC2SCH6CSH2SNFeS2FeS2Fe2S3H4FeS2FeSFeSFeS2CHC4H5C3H3C6SH3C2H2CH3C6H4CH3NHC2H2CH5CHSHCH2C2SHCN2H2FeH3CH2CH9C3H2CH2CFeSNC4H12C2HCHCH3SHCSCHCHSNFeH2FeS2CFeS2FeHFeHSHSHSH2FeS2FeS2FeSFeCS2C6H4C6H4CH2CHCHC8H4CFeHC3HNCH2C2HSHNHFeH2SNC4HCHSH6CHNH2FeHCH3CHC2HNC4H3CH5CH3CHCSHCHFeH8C2H3SH2CSCS2C2H4SH2CH2SFeS2FeS2FeSFeS3CHSH2FeS2FeS2FeHFeS3C2HCSHCHCH2CHC7H4C6H4C2H2C2H4C6H4CH3CHCHCH10C2FeH4NH3CHCHC3HCH2CH2NC4H3N2H2SHCH2CH3CH3NCHSH3CH3CHCHFeHFeS2HSFeSFeHSHCSHFeSHFeS2FeSFeS3C6H4C6H4C6H4CHFeC2SH8CH11CSHC2NCH3CH4NC4H12NHC2H2CH2NC3H7SHCSHCNC3H2CSC2NH2CH4SH2CHFeHCH2CH4FeSCFeS2FeSFeS3FeS2FeS2C6H4C6H2NHNC3H5C3HCH2CH2C4H7C2HNH6CH7CHCH5C2H4NH3CH2FeS2FeSFe2SHSFeS2FeSFeSFeS3H3C8H4CNHCH2C3HC3H6CH6C4HCH4SH2NCHC2HSCH7C2FeSHFeS2FeSFeS3FeS2FeS2C6H4CHC6H6C4H2CH3CN2C4H9C2H2C2HCH6CHC2HCH3FeH4CHSHFeS2FeS2H2FeSHSFeS2FeS2FeSFeS3HC6H5CHC7H4C6H5SH4C2NCH2CSHCFe2HCH2NHNH6CHNC4H2CHFeH4CHC2H4C3HC3H2NH2CHC2H8CH2SH3CH3SCHNCSFeS2FeS2FeSFeS3HSC6H4C6H5C5H7CHCHFeCH5C2H8SCH2CHCH3CHCN2HCH3NC2H2CH6FeHSH2CSCFeSHFeS2FeSCS2FeS2FeS2FeSFeS3HC6H8C6H4C6H5CHNH2CHSNC4H13C2H5CHCSH3CH4CH7NCH2CH3FeH2C2H2CH3FeS2FeHCFeH2CHS4HC2HNH2C2H3C5H2CH5FeS2H4CH4CH2CHSFeS2FeS2FeSFeS3FeS2FeSHFeSFeCSHC2H2C6H4CH2NH6C5HC2H3C2HCFeCHCSHC6H10CHCH11NC5H3CHCHSH3CNCH2SCH2CHSC2HCH2CH2FeS2FeSFeHSC2S2C5SH3CH2C3H2NC3H4CHCH4SHFeH3CHNC3NH3CHC2H2SH3C3H4SHCFeHCHFeSHFeS2FeCFeS3CFeS2FeS2FeSFeS3CSHC6H5C3H2C6H7C6H5C2H4CH2C3HNH2CH2CSHCH5NC4H12CHNHC2H2FeH7CSHSHNSH6C2SH3CHFeSHFeS2FeSFeCS3FeS2FeS2FeSFeS3C2SC6H5CH2C6H6SC8H4SCHCH2NHCH8NH2C2H4CHCH8CH4SH6NC3HCH6CH2C2HNHNC3H4CFeH2CH2CHCH5FeSCH2CFeSHFeS2FeSFeSFeS3FeS2HFeSHC2H6C6H4C6H5CH2CNCSCH2C2HCH2SH7CSHSH4NCH2FeHC3FeHCH3SNHCH4CHC2HCH2CHCHSCH2CFeS2FeS2FeHFeS3H2SH3SNC3SH2C6H7C3HC6H4C6H3CHC2HCH2CHCHNC4H12CHNCH3FeCH3SH7CH3SC2H2NH4SCHFeSHFeS2FeS2FeSFeS2FeS2FeSC2FeSHSC2HCH4FeHC6H4C6H15NSC2NC4HSH7CH2NC4H12NC4H6CH2CHCNHCSHSH2C2HC2H4
_chemical_formula_sum              "S544 Fe272 H2176 C1360 N136"
_cell_length_a       71.5572
_cell_length_b       71.2985
_cell_length_c       60.7523
_cell_angle_alpha    88.1013
_cell_angle_beta     88.0202
_cell_angle_gamma    87.3814

_space_group_name_H-M_alt    "P 1"
_space_group_IT_number       1

loop_
  _space_group_symop_operation_xyz
  'x, y, z'

loop_
  _atom_site_type_symbol
  _atom_site_label
  _atom_site_symmetry_multiplicity
  _atom_site_fract_x
  _atom_site_fract_y
  _atom_site_fract_z
  _atom_site_occupancy
  S   S1        1.0  0.03629  0.13749  0.02153  1.0000
  Fe  Fe1       1.0  0.07778  0.10091  0.02379  1.0000
  S   S2        1.0  0.05145  0.09767  0.04433  1.0000
  H   H1        1.0  0.11978  0.20814  0.11716  1.0000
  H   H2        1.0  0.20049  0.15994  0.30898  1.0000
  H   H3        1.0  0.09380  0.18857  0.28843  1.0000
  Fe  Fe2       1.0  0.05386  0.12847  0.05046  1.0000
  S   S3        1.0  0.04787  0.13751  0.08571  1.0000
  S   S4        1.0  0.08101  0.13130  0.03136  1.0000
  Fe  Fe3       1.0  0.06803  0.19245  0.22280  1.0000
  S   S5        1.0  0.08972  0.20593  0.24210  1.0000
  S   S6        1.0  0.04000  0.18236  0.23705  1.0000
  Fe  Fe4       1.0  0.09588  0.18489  0.18424  1.0000
  S   S7        1.0  0.11957  0.19708  0.20193  1.0000
  S   S8        1.0  0.10347  0.17532  0.14938  1.0000
  Fe  Fe5       1.0  0.10911  0.18148  0.23236  1.0000
  S   S9        1.0  0.12359  0.16690  0.26199  1.0000
  Fe  Fe6       1.0  0.09857  0.22057  0.21002  1.0000
  H   H4        1.0  0.09897  0.07584  0.12740  1.0000
  S   S10       1.0  0.08711  0.16750  0.21402  1.0000
  S   S11       1.0  0.07518  0.20892  0.19126  1.0000
  Fe  Fe7       1.0  0.21868  0.05069  0.32177  1.0000
  S   S12       1.0  0.23133  0.07535  0.30358  1.0000
  S   S13       1.0  0.22342  0.01918  0.31694  1.0000
  H   H5        1.0  0.08281  0.06041  0.09762  1.0000
  Fe  Fe8       1.0  0.20255  0.08980  0.30680  1.0000
  S   S14       1.0  0.19128  0.10588  0.27620  1.0000
  S   S15       1.0  0.18977  0.06420  0.32240  1.0000
  C   C1        1.0  0.14227  0.14965  0.26535  1.0000
  C   C2        1.0  0.14631  0.14276  0.28676  1.0000
  C   C3        1.0  0.16100  0.12919  0.29040  1.0000
  C   C4        1.0  0.17200  0.12240  0.27264  1.0000
  C   C5        1.0  0.16803  0.12937  0.25124  1.0000
  C   C6        1.0  0.15323  0.14282  0.24758  1.0000
  H   H6        1.0  0.13799  0.14791  0.30066  1.0000
  H   H7        1.0  0.16379  0.12399  0.30695  1.0000
  H   H8        1.0  0.17642  0.12426  0.23735  1.0000
  H   H9        1.0  0.15037  0.14795  0.23103  1.0000
  C   C7        1.0  0.06338  0.14859  0.10284  1.0000
  C   C8        1.0  0.08137  0.15327  0.09549  1.0000
  C   C9        1.0  0.09347  0.16141  0.10994  1.0000
  C   C10       1.0  0.08767  0.16515  0.13179  1.0000
  C   C11       1.0  0.06964  0.16060  0.13909  1.0000
  C   C12       1.0  0.05761  0.15230  0.12469  1.0000
  H   H10       1.0  0.08593  0.15070  0.07866  1.0000
  H   H11       1.0  0.10737  0.16493  0.10412  1.0000
  H   H12       1.0  0.06498  0.16338  0.15585  1.0000
  H   H13       1.0  0.04371  0.14876  0.13054  1.0000
  H   H14       1.0  0.08782  0.18594  0.31730  1.0000
  H   H15       1.0  0.06274  0.02618  0.03265  1.0000
  C   C13       1.0  0.02257  0.19243  0.25516  1.0000
  C   C14       1.0  0.02260  0.21114  0.26133  1.0000
  H   H16       1.0  0.22651  0.11677  0.28996  1.0000
  H   H17       1.0  0.03343  0.22008  0.25482  1.0000
  C   C15       1.0  0.07508  0.15945  0.27523  1.0000
  H   H18       1.0  0.08667  0.14850  0.27616  1.0000
  H   H19       1.0  0.24827  0.12774  0.28447  1.0000
  C   C16       1.0  0.09830  0.05637  0.03050  1.0000
  C   C17       1.0  0.07689  0.03090  0.03285  1.0000
  H   H20       1.0  0.12176  0.01386  0.03790  1.0000
  N   N1        1.0  0.22534  0.14659  0.29442  1.0000
  H   H21       1.0  0.14565  0.24995  0.13168  1.0000
  C   C18       1.0  0.08951  0.17829  0.30165  1.0000
  C   C19       1.0  0.09654  0.10382  0.08119  1.0000
  H   H22       1.0  0.12745  0.04798  0.03354  1.0000
  H   H23       1.0  0.10996  0.09918  0.07278  1.0000
  C   C20       1.0  0.13849  0.21695  0.15259  1.0000
  H   H24       1.0  0.10520  0.09990  0.12377  1.0000
  H   H25       1.0  0.21287  0.14352  0.32701  1.0000
  C   C21       1.0  0.10351  0.08664  0.11496  1.0000
  C   C22       1.0  0.07152  0.09592  0.10698  1.0000
  H   H26       1.0  0.06219  0.15271  0.27033  1.0000
  H   H27       1.0  0.07851  0.14443  0.31606  1.0000
  H   H28       1.0  0.06603  0.08556  0.11937  1.0000
  C   C23       1.0  0.23795  0.16110  0.30108  1.0000
  H   H29       1.0  0.06086  0.09821  0.09411  1.0000
  H   H30       1.0  0.10146  0.06646  0.07840  1.0000
  H   H31       1.0  0.11755  0.08198  0.10815  1.0000
  C   C24       1.0  0.23542  0.12803  0.29531  1.0000
  H   H32       1.0  0.20404  0.02943  0.27612  1.0000
  H   H33       1.0  0.06478  0.16243  0.33005  1.0000
  C   C25       1.0  0.00838  0.21841  0.27574  1.0000
  H   H34       1.0  0.25054  0.16175  0.28984  1.0000
  C   C26       1.0  0.11332  0.04321  0.03323  1.0000
  H   H35       1.0  0.08623  0.10670  0.06815  1.0000
  H   H36       1.0  0.07782  0.07338  0.07251  1.0000
  H   H37       1.0  0.07243  0.10956  0.11525  1.0000
  H   H38       1.0  0.09869  0.11736  0.08912  1.0000
  H   H39       1.0  0.10141  0.16777  0.30338  1.0000
  N   N2        1.0  0.07214  0.16924  0.29621  1.0000
  C   C27       1.0  0.08790  0.07162  0.08607  1.0000
  H   H40       1.0  0.21147  0.16470  0.27043  1.0000
  H   H41       1.0  0.20968  0.14011  0.26629  1.0000
  H   H42       1.0  0.04341  0.17728  0.29024  1.0000
  N   N3        1.0  0.08986  0.08948  0.09732  1.0000
  H   H43       1.0  0.05436  0.19173  0.30926  1.0000
  H   H44       1.0  0.07895  0.16940  0.26157  1.0000
  C   C28       1.0  0.06717  0.15551  0.31397  1.0000
  H   H45       1.0  0.23134  0.15100  0.25974  1.0000
  C   C29       1.0  0.21923  0.15085  0.27172  1.0000
  H   H46       1.0  0.13956  0.22167  0.16980  1.0000
  H   H47       1.0  0.10664  0.23265  0.16826  1.0000
  C   C30       1.0  0.09189  0.01772  0.03544  1.0000
  Fe  Fe9       1.0  0.03644  0.10697  0.01370  1.0000
  H   H48       1.0  0.23976  0.12415  0.31232  1.0000
  S   S16       1.0  0.11015  0.25028  0.20883  1.0000
  C   C31       1.0  0.05679  0.18370  0.29395  1.0000
  C   C32       1.0  0.13158  0.24884  0.13985  1.0000
  H   H49       1.0  0.11451  0.23180  0.10747  1.0000
  C   C33       1.0  0.20769  0.01453  0.27621  1.0000
  H   H50       1.0  0.06841  0.06015  0.02809  1.0000
  H   H51       1.0  0.09619  0.23849  0.14231  1.0000
  C   C34       1.0  0.08008  0.05015  0.03027  1.0000
  C   C35       1.0  0.11014  0.02391  0.03568  1.0000
  H   H52       1.0  0.05987  0.19397  0.28022  1.0000
  H   H53       1.0  0.24298  0.15804  0.31805  1.0000
  H   H54       1.0  0.00835  0.16647  0.25938  1.0000
  N   N4        1.0  0.12527  0.22936  0.14008  1.0000
  C   C36       1.0  0.10643  0.22874  0.15072  1.0000
  H   H55       1.0  0.23075  0.17527  0.30091  1.0000
  H   H56       1.0  0.13391  0.20219  0.15355  1.0000
  H   H57       1.0  0.19923  0.13520  0.30547  1.0000
  H   H58       1.0  0.13847  0.22308  0.10869  1.0000
  S   S17       1.0  0.20847  0.10217  0.33925  1.0000
  C   C37       1.0  0.12451  0.22285  0.11730  1.0000
  H   H59       1.0  0.10091  0.21443  0.15047  1.0000
  C   C38       1.0  0.20878  0.14635  0.30966  1.0000
  S   S18       1.0  0.10264  0.08048  0.02799  1.0000
  H   H60       1.0  0.05415  0.14839  0.31031  1.0000
  C   C39       1.0  0.00838  0.18103  0.26388  1.0000
  H   H61       1.0  0.15280  0.21678  0.14484  1.0000
  H   H62       1.0  0.18488  0.00753  0.17654  1.0000
  H   H63       1.0  0.00836  0.23300  0.28015  1.0000
  H   H64       1.0  0.19565  0.01027  0.24476  1.0000
  Fe  Fe10      1.0  0.23668  0.08638  0.33712  1.0000
  H   H65       1.0  0.13253  0.25393  0.15692  1.0000
  H   H66       1.0  0.18111  0.02298  0.32939  1.0000
  C   C40       1.0  0.17822  0.01060  0.34045  1.0000
  H   H67       1.0  0.22539  0.04080  0.52883  1.0000
  H   H68       1.0  0.27878  0.07047  0.36642  1.0000
  S   S19       1.0  0.10650  0.03319  0.54807  1.0000
  H   H69       1.0  0.22129  0.03743  0.55803  1.0000
  Fe  Fe11      1.0  0.14536  0.04135  0.50215  1.0000
  S   S20       1.0  0.14077  0.06020  0.53106  1.0000
  S   S21       1.0  0.17188  0.04386  0.48041  1.0000
  Fe  Fe12      1.0  0.13778  0.03375  0.55162  1.0000
  S   S22       1.0  0.15476  0.02680  0.58232  1.0000
  Fe  Fe13      1.0  0.11001  0.05830  0.52517  1.0000
  S   S23       1.0  0.09056  0.08422  0.52701  1.0000
  H   H70       1.0  0.29478  0.12590  0.34637  1.0000
  S   S24       1.0  0.11484  0.04187  0.49441  1.0000
  Fe  Fe14      1.0  0.19763  0.07548  0.35486  1.0000
  H   H71       1.0  0.19489  0.02689  0.52183  1.0000
  S   S25       1.0  0.17368  0.07445  0.38047  1.0000
  H   H72       1.0  0.17489  0.06270  0.55969  1.0000
  C   C41       1.0  0.31620  0.09854  0.66285  1.0000
  C   C42       1.0  0.28452  0.09857  0.35508  1.0000
  H   H73       1.0  0.02894  0.09868  0.60973  1.0000
  C   C43       1.0  0.31532  0.10936  0.36481  1.0000
  C   C44       1.0  0.31959  0.09217  0.37567  1.0000
  C   C45       1.0  0.30624  0.07821  0.37610  1.0000
  C   C46       1.0  0.28886  0.08135  0.36588  1.0000
  C   C47       1.0  0.01423  0.10860  0.55795  1.0000
  H   H74       1.0  0.16125  0.04233  0.35522  1.0000
  H   H75       1.0  0.30930  0.06484  0.38444  1.0000
  C   C48       1.0  0.21877  0.04731  0.54375  1.0000
  C   C49       1.0  0.17212  0.05214  0.45253  1.0000
  C   C50       1.0  0.15574  0.05848  0.44223  1.0000
  C   C51       1.0  0.15654  0.06528  0.42019  1.0000
  C   C52       1.0  0.17367  0.06578  0.40818  1.0000
  C   C53       1.0  0.19006  0.05928  0.41839  1.0000
  C   C54       1.0  0.18927  0.05250  0.44047  1.0000
  H   H76       1.0  0.14246  0.05832  0.45131  1.0000
  H   H77       1.0  0.14378  0.07031  0.41246  1.0000
  H   H78       1.0  0.20335  0.05965  0.40937  1.0000
  H   H79       1.0  0.20201  0.04763  0.44830  1.0000
  H   H80       1.0  0.04271  0.07566  0.58324  1.0000
  C   C55       1.0  0.29950  0.09133  0.65570  1.0000
  S   S26       1.0  0.33645  0.09783  0.64478  1.0000
  H   H81       1.0  0.29930  0.08552  0.63948  1.0000
  C   C56       1.0  0.03751  0.08513  0.56965  1.0000
  C   C57       1.0  0.17271  0.06636  0.63564  1.0000
  C   C58       1.0  0.17814  0.04725  0.63641  1.0000
  C   C59       1.0  0.17225  0.03531  0.62016  1.0000
  C   C60       1.0  0.16083  0.04227  0.60305  1.0000
  C   C61       1.0  0.15531  0.06134  0.60237  1.0000
  C   C62       1.0  0.16128  0.07330  0.61852  1.0000
  H   H82       1.0  0.18693  0.04171  0.64944  1.0000
  H   H83       1.0  0.17663  0.02058  0.62082  1.0000
  H   H84       1.0  0.14649  0.06692  0.58936  1.0000
  H   H85       1.0  0.15698  0.08805  0.61779  1.0000
  C   C63       1.0  0.02973  0.07829  0.50824  1.0000
  C   C64       1.0  0.04188  0.06235  0.51010  1.0000
  C   C65       1.0  0.06068  0.06407  0.51534  1.0000
  C   C66       1.0  0.06746  0.08179  0.51875  1.0000
  C   C67       1.0  0.05541  0.09780  0.51640  1.0000
  C   C68       1.0  0.03662  0.09608  0.51098  1.0000
  H   H86       1.0  0.03672  0.04856  0.50774  1.0000
  H   H87       1.0  0.06991  0.05168  0.51697  1.0000
  H   H88       1.0  0.06068  0.11156  0.51872  1.0000
  H   H89       1.0  0.02751  0.10849  0.50891  1.0000
  C   C69       1.0  0.15932  0.02947  0.36584  1.0000
  N   N5        1.0  0.19853  0.05131  0.54098  1.0000
  C   C70       1.0  0.18938  0.03359  0.53718  1.0000
  H   H90       1.0  0.00974  0.10037  0.54398  1.0000
  H   H91       1.0  0.14616  0.02320  0.36108  1.0000
  C   C71       1.0  0.19024  0.05984  0.56111  1.0000
  C   C72       1.0  0.19253  0.02496  0.37068  1.0000
  N   N6        1.0  0.02035  0.09611  0.57644  1.0000
  H   H92       1.0  0.19467  0.03825  0.36115  1.0000
  H   H93       1.0  0.02561  0.11769  0.55165  1.0000
  H   H94       1.0  0.03501  0.07624  0.55542  1.0000
  H   H95       1.0  0.22611  0.06038  0.54669  1.0000
  H   H96       1.0  0.19216  0.05032  0.57584  1.0000
  S   S27       1.0  0.22607  0.06067  0.35527  1.0000
  H   H97       1.0  0.33211  0.11673  0.42530  1.0000
  S   S28       1.0  0.00592  0.07520  0.50341  1.0000
  H   H98       1.0  0.31085  0.12084  0.44127  1.0000
  C   C73       1.0  0.31659  0.09211  0.47066  1.0000
  S   S29       1.0  0.14389  0.01472  0.52301  1.0000
  H   H99       1.0  0.19107  0.02332  0.55127  1.0000
  H   H100      1.0  0.20224  0.07805  0.52419  1.0000
  S   S30       1.0  0.18000  0.08226  0.65526  1.0000
  H   H101      1.0  0.03531  0.11766  0.59113  1.0000
  H   H102      1.0  0.17412  0.03615  0.53531  1.0000
  Fe  Fe15      1.0  0.11303  0.01659  0.51761  1.0000
  H   H103      1.0  0.32921  0.12692  0.47418  1.0000
  H   H104      1.0  0.32534  0.12029  0.36431  1.0000
  C   C74       1.0  0.32175  0.10992  0.43668  1.0000
  H   H105      1.0  0.30545  0.10243  0.47628  1.0000
  H   H106      1.0  0.19141  0.02857  0.38838  1.0000
  H   H107      1.0  0.19656  0.07337  0.56450  1.0000
  H   H108      1.0  0.04908  0.09443  0.56444  1.0000
  H   H109      1.0  0.18056  0.06751  0.51914  1.0000
  H   H110      1.0  0.32300  0.08542  0.48559  1.0000
  H   H111      1.0  0.15728  0.03427  0.38308  1.0000
  C   C75       1.0  0.29791  0.11251  0.35463  1.0000
  H   H112      1.0  0.31500  0.09925  0.42697  1.0000
  C   C76       1.0  0.19571  0.06443  0.52189  1.0000
  N   N7        1.0  0.17559  0.01603  0.36368  1.0000
  N   N8        1.0  0.33080  0.10125  0.45629  1.0000
  H   H113      1.0  0.20172  0.05839  0.50636  1.0000
  H   H114      1.0  0.32028  0.18587  0.67012  1.0000
  H   H115      1.0  0.30973  0.08096  0.46185  1.0000
  H   H116      1.0  0.27030  0.08626  0.66328  1.0000
  C   C77       1.0  0.28300  0.09171  0.66919  1.0000
  C   C78       1.0  0.02420  0.10760  0.59543  1.0000
  H   H117      1.0  0.01142  0.11599  0.60090  1.0000
  H   H118      1.0  0.00938  0.07350  0.59656  1.0000
  H   H119      1.0  0.20536  0.01575  0.36803  1.0000
  H   H120      1.0  0.31851  0.16264  0.65988  1.0000
  C   C79       1.0  0.32426  0.17076  0.67327  1.0000
  S   S31       1.0  0.26272  0.10355  0.34201  1.0000
  C   C80       1.0  0.00534  0.08317  0.58262  1.0000
  H   H121      1.0  0.27091  0.01622  0.73038  1.0000
  S   S32       1.0  0.06742  0.16296  0.97820  1.0000
  S   S33       1.0  0.06286  0.10760  0.99240  1.0000
  Fe  Fe16      1.0  0.10208  0.22028  0.83361  1.0000
  S   S34       1.0  0.07330  0.21352  0.84718  1.0000
  H   H122      1.0  0.20812  0.02581  0.79537  1.0000
  Fe  Fe17      1.0  0.10468  0.18581  0.80345  1.0000
  S   S35       1.0  0.07597  0.17689  0.81431  1.0000
  S   S36       1.0  0.12203  0.17451  0.77392  1.0000
  Fe  Fe18      1.0  0.06652  0.20731  0.81216  1.0000
  S   S37       1.0  0.04168  0.22158  0.79472  1.0000
  Fe  Fe19      1.0  0.08468  0.18338  0.84863  1.0000
  S   S38       1.0  0.07950  0.15976  0.87391  1.0000
  S   S39       1.0  0.09447  0.21593  0.79868  1.0000
  S   S40       1.0  0.11405  0.19049  0.83765  1.0000
  H   H123      1.0  0.04118  0.13599  0.96732  1.0000
  S   S41       1.0  0.20556  0.10401  0.70195  1.0000
  Fe  Fe20      1.0  0.21414  0.05195  0.72263  1.0000
  S   S42       1.0  0.22338  0.07695  0.74004  1.0000
  S   S43       1.0  0.22652  0.02446  0.73798  1.0000
  Fe  Fe21      1.0  0.19501  0.09067  0.73381  1.0000
  S   S44       1.0  0.17963  0.10327  0.76427  1.0000
  Fe  Fe22      1.0  0.23331  0.08821  0.70687  1.0000
  S   S45       1.0  0.26265  0.10014  0.70806  1.0000
  S   S46       1.0  0.18498  0.06471  0.71829  1.0000
  S   S47       1.0  0.22521  0.06260  0.68941  1.0000
  H   H124      1.0  0.03175  0.16832  0.95416  1.0000
  C   C81       1.0  0.29964  0.10656  0.69728  1.0000
  H   H125      1.0  0.16425  0.18217  0.78775  1.0000
  H   H126      1.0  0.29982  0.11245  0.71345  1.0000
  H   H127      1.0  0.07170  0.20300  0.73993  1.0000
  C   C82       1.0  0.13771  0.15439  0.77164  1.0000
  C   C83       1.0  0.14603  0.15027  0.75090  1.0000
  C   C84       1.0  0.15875  0.13468  0.74828  1.0000
  C   C85       1.0  0.16345  0.12303  0.76643  1.0000
  C   C86       1.0  0.15518  0.12722  0.78720  1.0000
  C   C87       1.0  0.14236  0.14274  0.78980  1.0000
  H   H128      1.0  0.14265  0.15918  0.73670  1.0000
  H   H129      1.0  0.16499  0.13173  0.73220  1.0000
  H   H130      1.0  0.15867  0.11836  0.80139  1.0000
  H   H131      1.0  0.13612  0.14565  0.80587  1.0000
  C   C88       1.0  0.07190  0.16185  0.94936  1.0000
  C   C89       1.0  0.07219  0.17864  0.93654  1.0000
  C   C90       1.0  0.07482  0.17831  0.91344  1.0000
  C   C91       1.0  0.07703  0.16115  0.90295  1.0000
  C   C92       1.0  0.07676  0.14438  0.91579  1.0000
  C   C93       1.0  0.07439  0.14471  0.93889  1.0000
  H   H132      1.0  0.07034  0.19197  0.94452  1.0000
  H   H133      1.0  0.07499  0.19132  0.90376  1.0000
  H   H134      1.0  0.07857  0.13104  0.90782  1.0000
  H   H135      1.0  0.07451  0.13170  0.94856  1.0000
  C   C94       1.0  0.02200  0.16183  0.94300  1.0000
  H   H136      1.0  0.18743  0.01480  0.74758  1.0000
  C   C95       1.0  0.02376  0.21011  0.78149  1.0000
  H   H137      1.0  0.19357  0.20883  0.80227  1.0000
  H   H138      1.0  0.18216  0.21003  0.77634  1.0000
  H   H139      1.0  0.03215  0.18210  0.79256  1.0000
  S   S48       1.0  0.12054  0.24550  0.83658  1.0000
  C   C96       1.0  0.16353  0.18746  0.80484  1.0000
  C   C97       1.0  0.27238  0.05273  0.73896  1.0000
  C   C98       1.0  0.02237  0.19059  0.78287  1.0000
  N   N9        1.0  0.07012  0.17293  0.74263  1.0000
  C   C99       1.0  0.08573  0.16921  0.72656  1.0000
  C   C100      1.0  0.05211  0.17316  0.73137  1.0000
  C   C101      1.0  0.07228  0.19133  0.75253  1.0000
  C   C102      1.0  0.07040  0.15802  0.76014  1.0000
  H   H140      1.0  0.09952  0.16884  0.73464  1.0000
  H   H141      1.0  0.08610  0.18027  0.71321  1.0000
  H   H142      1.0  0.08457  0.15544  0.71872  1.0000
  H   H143      1.0  0.04005  0.17608  0.74302  1.0000
  H   H144      1.0  0.05140  0.18424  0.71803  1.0000
  H   H145      1.0  0.04988  0.15945  0.72384  1.0000
  H   H146      1.0  0.08591  0.19175  0.76074  1.0000
  H   H147      1.0  0.08383  0.15751  0.76898  1.0000
  H   H148      1.0  0.06886  0.14391  0.75329  1.0000
  H   H149      1.0  0.31713  0.16619  0.68899  1.0000
  H   H150      1.0  0.13400  0.21160  0.80090  1.0000
  H   H151      1.0  0.25603  0.03838  0.70421  1.0000
  H   H152      1.0  0.01507  0.15440  0.98554  1.0000
  H   H153      1.0  0.21315  0.06509  0.81271  1.0000
  H   H154      1.0  0.09468  0.03100  0.98366  1.0000
  H   H155      1.0  0.29351  0.02058  0.74069  1.0000
  N   N10       1.0  0.01511  0.14404  0.95274  1.0000
  H   H156      1.0  0.02652  0.11684  0.96300  1.0000
  C   C103      1.0  0.00808  0.18203  0.77192  1.0000
  H   H157      1.0  0.17557  0.18087  0.81378  1.0000
  H   H158      1.0  0.25845  0.04702  0.74323  1.0000
  C   C104      1.0  0.31619  0.10601  0.68387  1.0000
  H   H159      1.0  0.14950  0.21015  0.83662  1.0000
  H   H160      1.0  0.03884  0.12767  0.94006  1.0000
  H   H161      1.0  0.12871  0.00819  0.94365  1.0000
  C   C105      1.0  0.28292  0.09947  0.69004  1.0000
  H   H162      1.0  0.08278  0.00991  0.99049  1.0000
  H   H163      1.0  0.27643  0.03831  0.68615  1.0000
  H   H164      1.0  0.17210  0.07472  0.80403  1.0000
  H   H165      1.0  0.28092  0.05135  0.75391  1.0000
  H   H166      1.0  0.18077  0.06174  0.82772  1.0000
  Fe  Fe23      1.0  0.06348  0.13776  0.00169  1.0000
  Fe  Fe24      1.0  0.19679  0.07737  0.68644  1.0000
  H   H167      1.0  0.08026  0.02103  0.96374  1.0000
  N   N11       1.0  0.19135  0.05160  0.79654  1.0000
  C   C106      1.0  0.20784  0.06339  0.79594  1.0000
  C   C107      1.0  0.18465  0.05009  0.77397  1.0000
  C   C108      1.0  0.17628  0.06035  0.81052  1.0000
  C   C109      1.0  0.19665  0.03264  0.80554  1.0000
  H   H168      1.0  0.14742  0.21152  0.77555  1.0000
  H   H169      1.0  0.20439  0.07771  0.78887  1.0000
  H   H170      1.0  0.21950  0.05714  0.78556  1.0000
  H   H171      1.0  0.19604  0.04477  0.76259  1.0000
  H   H172      1.0  0.17289  0.04044  0.77348  1.0000
  H   H173      1.0  0.17953  0.06397  0.76714  1.0000
  H   H174      1.0  0.30713  0.04440  0.70042  1.0000
  C   C110      1.0  0.16248  0.21465  0.82774  1.0000
  H   H175      1.0  0.16354  0.05192  0.81111  1.0000
  H   H176      1.0  0.18465  0.02320  0.80583  1.0000
  H   H177      1.0  0.20160  0.03317  0.82266  1.0000
  H   H178      1.0  0.06871  0.24999  0.80546  1.0000
  H   H179      1.0  0.06103  0.19438  0.76517  1.0000
  H   H180      1.0  0.05881  0.16038  0.77261  1.0000
  C   C111      1.0  0.09041  0.01756  0.97688  1.0000
  H   H181      1.0  0.16216  0.23028  0.82829  1.0000
  H   H182      1.0  0.18140  0.23021  0.79338  1.0000
  N   N12       1.0  0.28165  0.04292  0.72020  1.0000
  C   C112      1.0  0.14725  0.21619  0.79288  1.0000
  C   C113      1.0  0.18096  0.21461  0.79371  1.0000
  N   N13       1.0  0.16357  0.20822  0.80481  1.0000
  H   H183      1.0  0.30935  0.04985  0.72892  1.0000
  S   S49       1.0  0.01261  0.09316  0.99763  1.0000
  H   H184      1.0  0.15049  0.18214  0.81284  1.0000
  H   H185      1.0  0.14663  0.23183  0.79270  1.0000
  C   C114      1.0  0.28452  0.02275  0.72616  1.0000
  H   H186      1.0  0.17459  0.20902  0.83732  1.0000
  C   C115      1.0  0.00562  0.14763  0.97430  1.0000
  H   H187      1.0  0.00864  0.13311  0.92152  1.0000
  H   H188      1.0  0.29131  0.01488  0.71229  1.0000
  H   H189      1.0  0.01032  0.17230  0.93989  1.0000
  H   H190      1.0  0.32894  0.11126  0.68982  1.0000
  C   C116      1.0  0.29987  0.05122  0.71477  1.0000
  C   C117      1.0  0.03110  0.13052  0.95589  1.0000
  C   C118      1.0  0.01064  0.22091  0.76914  1.0000
  H   H191      1.0  0.29804  0.06646  0.71036  1.0000
  C   C119      1.0  0.26968  0.04500  0.70086  1.0000
  H   H192      1.0  0.26669  0.06008  0.69634  1.0000
  H   H193      1.0  0.01153  0.23601  0.76797  1.0000
  H   H194      1.0  0.02991  0.15954  0.92712  1.0000
  H   H195      1.0  0.27001  0.06800  0.73506  1.0000
  H   H196      1.0  0.12499  0.01559  0.99287  1.0000
  H   H197      1.0  0.04465  0.24625  0.83563  1.0000
  H   H198      1.0  0.00706  0.16694  0.77318  1.0000
  H   H199      1.0  0.12126  0.03012  0.95572  1.0000
  C   C120      1.0  0.11630  0.01651  0.95021  1.0000
  H   H200      1.0  0.10678  0.01965  0.93633  1.0000
  Fe  Fe25      1.0  0.30406  0.44118  0.22323  1.0000
  S   S50       1.0  0.29303  0.41787  0.24520  1.0000
  S   S51       1.0  0.30346  0.47312  0.22732  1.0000
  Fe  Fe26      1.0  0.31977  0.41336  0.18865  1.0000
  S   S52       1.0  0.30961  0.38815  0.20819  1.0000
  H   H201      1.0  0.16125  0.44734  0.16499  1.0000
  Fe  Fe27      1.0  0.28282  0.40595  0.21365  1.0000
  S   S53       1.0  0.25329  0.39404  0.21430  1.0000
  Fe  Fe28      1.0  0.32046  0.40171  0.23789  1.0000
  S   S54       1.0  0.29249  0.43025  0.19207  1.0000
  H   H202      1.0  0.09104  0.33398  0.04618  1.0000
  Fe  Fe29      1.0  0.12399  0.35261  0.14421  1.0000
  S   S55       1.0  0.10377  0.37610  0.13313  1.0000
  S   S56       1.0  0.11079  0.32363  0.14424  1.0000
  Fe  Fe30      1.0  0.15695  0.37940  0.14284  1.0000
  S   S57       1.0  0.13832  0.40365  0.13055  1.0000
  S   S58       1.0  0.18795  0.38691  0.14496  1.0000
  Fe  Fe31      1.0  0.11739  0.39444  0.15700  1.0000
  S   S59       1.0  0.10712  0.41592  0.18331  1.0000
  Fe  Fe32      1.0  0.12633  0.38337  0.10751  1.0000
  S   S60       1.0  0.11718  0.39012  0.07154  1.0000
  S   S61       1.0  0.13636  0.37043  0.16977  1.0000
  S   S62       1.0  0.14616  0.35965  0.11809  1.0000
  Fe  Fe33      1.0  0.02324  0.48200  0.24914  1.0000
  S   S63       1.0  0.03369  0.46167  0.22186  1.0000
  S   S64       1.0  0.02701  0.47611  0.28536  1.0000
  C   C121      1.0  0.08639  0.42837  0.19377  1.0000
  C   C122      1.0  0.06882  0.42721  0.18454  1.0000
  C   C123      1.0  0.05303  0.43754  0.19329  1.0000
  C   C124      1.0  0.05441  0.44922  0.21142  1.0000
  C   C125      1.0  0.07193  0.45023  0.22081  1.0000
  C   C126      1.0  0.08774  0.43994  0.21203  1.0000
  H   H203      1.0  0.06741  0.41848  0.17052  1.0000
  H   H204      1.0  0.03962  0.43656  0.18579  1.0000
  H   H205      1.0  0.07335  0.45904  0.23475  1.0000
  H   H206      1.0  0.10114  0.44101  0.21944  1.0000
  C   C127      1.0  0.10894  0.34236  0.08237  1.0000
  C   C128      1.0  0.13840  0.37353  0.03657  1.0000
  C   C129      1.0  0.12284  0.38494  0.04311  1.0000
  C   C130      1.0  0.11105  0.39242  0.02652  1.0000
  C   C131      1.0  0.08466  0.32897  0.06220  1.0000
  H   H207      1.0  0.14769  0.36763  0.04891  1.0000
  H   H208      1.0  0.09898  0.40130  0.03115  1.0000
  H   H209      1.0  0.08261  0.34394  0.11486  1.0000
  C   C132      1.0  0.30484  0.48593  0.25184  1.0000
  C   C133      1.0  0.30486  0.47714  0.27277  1.0000
  H   H210      1.0  0.11538  0.32837  0.08713  1.0000
  H   H211      1.0  0.30416  0.46202  0.27434  1.0000
  N   N14       1.0  0.08850  0.34167  0.08008  1.0000
  C   C134      1.0  0.23548  0.39197  0.19455  1.0000
  C   C135      1.0  0.23729  0.39887  0.17276  1.0000
  C   C136      1.0  0.22274  0.39693  0.15789  1.0000
  C   C137      1.0  0.20611  0.38811  0.16445  1.0000
  C   C138      1.0  0.20431  0.38118  0.18624  1.0000
  C   C139      1.0  0.21883  0.38316  0.20112  1.0000
  H   H212      1.0  0.24993  0.40565  0.16733  1.0000
  H   H213      1.0  0.22441  0.40235  0.14112  1.0000
  H   H214      1.0  0.19185  0.37407  0.19160  1.0000
  H   H215      1.0  0.21727  0.37763  0.21785  1.0000
  C   C140      1.0  0.08059  0.36072  0.07468  1.0000
  H   H216      1.0  0.09052  0.31449  0.06572  1.0000
  C   C141      1.0  0.10949  0.27087  0.19110  1.0000
  C   C142      1.0  0.12177  0.28527  0.19475  1.0000
  C   C143      1.0  0.12222  0.30160  0.18089  1.0000
  C   C144      1.0  0.11041  0.30375  0.16300  1.0000
  C   C145      1.0  0.09808  0.28937  0.15937  1.0000
  C   C146      1.0  0.09746  0.27317  0.17340  1.0000
  H   H217      1.0  0.13109  0.28377  0.20842  1.0000
  H   H218      1.0  0.13180  0.31244  0.18398  1.0000
  H   H219      1.0  0.08871  0.29092  0.14577  1.0000
  H   H220      1.0  0.30566  0.48095  0.30784  1.0000
  H   H221      1.0  0.08348  0.37076  0.08770  1.0000
  H   H222      1.0  0.11228  0.35215  0.09535  1.0000
  H   H223      1.0  0.08749  0.26262  0.17071  1.0000
  H   H224      1.0  0.03700  0.42149  0.24017  1.0000
  H   H225      1.0  0.33305  0.35092  0.25797  1.0000
  H   H226      1.0  0.01981  0.38925  0.26704  1.0000
  H   H227      1.0  0.01798  0.43472  0.29569  1.0000
  C   C147      1.0  0.01435  0.42058  0.29034  1.0000
  H   H228      1.0  0.32137  0.45581  0.10375  1.0000
  C   C148      1.0  0.03537  0.42241  0.25842  1.0000
  H   H229      1.0  0.08685  0.36649  0.05897  1.0000
  C   C149      1.0  0.07987  0.33465  0.10105  1.0000
  H   H230      1.0  0.00697  0.44809  0.26039  1.0000
  H   H231      1.0  0.06517  0.36083  0.07295  1.0000
  H   H232      1.0  0.08571  0.32041  0.10584  1.0000
  H   H233      1.0  0.32404  0.49856  0.18673  1.0000
  N   N15       1.0  0.16358  0.42679  0.19163  1.0000
  C   C150      1.0  0.18378  0.42940  0.19408  1.0000
  C   C151      1.0  0.15253  0.43848  0.20746  1.0000
  C   C152      1.0  0.15957  0.40684  0.19597  1.0000
  C   C153      1.0  0.15837  0.43239  0.16894  1.0000
  H   H234      1.0  0.19238  0.42126  0.18177  1.0000
  H   H235      1.0  0.18849  0.42453  0.21068  1.0000
  H   H236      1.0  0.18726  0.44438  0.19156  1.0000
  H   H237      1.0  0.13722  0.43677  0.20583  1.0000
  H   H238      1.0  0.15601  0.43452  0.22475  1.0000
  H   H239      1.0  0.15511  0.45366  0.20465  1.0000
  H   H240      1.0  0.14433  0.40455  0.19527  1.0000
  H   H241      1.0  0.16422  0.40176  0.21248  1.0000
  H   H242      1.0  0.16676  0.39772  0.18353  1.0000
  H   H243      1.0  0.14319  0.43063  0.16654  1.0000
  H   H244      1.0  0.16636  0.42369  0.15657  1.0000
  H   H245      1.0  0.31607  0.43555  0.13730  1.0000
  H   H246      1.0  0.06936  0.32812  0.05996  1.0000
  C   C154      1.0  0.30571  0.48793  0.29175  1.0000
  C   C155      1.0  0.33338  0.49604  0.17192  1.0000
  H   H247      1.0  0.11602  0.34744  0.06683  1.0000
  H   H248      1.0  0.06444  0.33389  0.10003  1.0000
  H   H249      1.0  0.04542  0.41191  0.26590  1.0000
  C   C156      1.0  0.14211  0.36990  0.01395  1.0000
  N   N16       1.0  0.01588  0.41932  0.26609  1.0000
  H   H250      1.0  0.03971  0.43665  0.26257  1.0000
  C   C157      1.0  0.32931  0.43449  0.12819  1.0000
  H   H251      1.0  0.31562  0.46755  0.15390  1.0000
  S   S65       1.0  0.33186  0.42602  0.21791  1.0000
  C   C158      1.0  0.30576  0.50563  0.25019  1.0000
  H   H252      1.0  0.02379  0.40998  0.29868  1.0000
  C   C159      1.0  0.33225  0.44578  0.10902  1.0000
  H   H253      1.0  0.31284  0.46716  0.18329  1.0000
  C   C160      1.0  0.32309  0.46450  0.16947  1.0000
  H   H254      1.0  0.32540  0.50070  0.15714  1.0000
  H   H255      1.0  0.15424  0.36113  0.00931  1.0000
  H   H256      1.0  0.01150  0.39922  0.24143  1.0000
  C   C161      1.0  0.01053  0.40055  0.25966  1.0000
  H   H257      1.0  0.32715  0.44925  0.17026  1.0000
  H   H258      1.0  0.12168  0.25876  0.13110  1.0000
  H   H259      1.0  0.33546  0.33594  0.34230  1.0000
  H   H260      1.0  0.03638  0.26228  0.80060  1.0000
  S   S66       1.0  0.31462  0.38781  0.83692  1.0000
  H   H261      1.0  0.08649  0.48833  0.71680  1.0000
  Fe  Fe34      1.0  0.29995  0.43913  0.81810  1.0000
  S   S67       1.0  0.28836  0.41376  0.80284  1.0000
  S   S68       1.0  0.29212  0.47047  0.81294  1.0000
  Fe  Fe35      1.0  0.28549  0.40201  0.83786  1.0000
  S   S69       1.0  0.26195  0.38476  0.85416  1.0000
  Fe  Fe36      1.0  0.31815  0.40121  0.80310  1.0000
  S   S70       1.0  0.29536  0.42804  0.85306  1.0000
  Fe  Fe37      1.0  0.11879  0.35179  0.89209  1.0000
  S   S71       1.0  0.10071  0.36979  0.91527  1.0000
  S   S72       1.0  0.10607  0.32315  0.88660  1.0000
  Fe  Fe38      1.0  0.14832  0.38213  0.88672  1.0000
  S   S73       1.0  0.13178  0.40113  0.90982  1.0000
  S   S74       1.0  0.17309  0.39766  0.87051  1.0000
  Fe  Fe39      1.0  0.12742  0.37570  0.93216  1.0000
  S   S75       1.0  0.13613  0.37253  0.96887  1.0000
  Fe  Fe40      1.0  0.10646  0.39393  0.89098  1.0000
  S   S76       1.0  0.08581  0.41855  0.88054  1.0000
  S   S77       1.0  0.14536  0.35683  0.90977  1.0000
  S   S78       1.0  0.12307  0.37571  0.86719  1.0000
  Fe  Fe41      1.0  0.02351  0.47769  0.78203  1.0000
  S   S79       1.0  0.02587  0.48238  0.74490  1.0000
  S   S80       1.0  0.04604  0.45551  0.79428  1.0000
  C   C162      1.0  0.05646  0.44521  0.81870  1.0000
  C   C163      1.0  0.05305  0.45239  0.83972  1.0000
  C   C164      1.0  0.06198  0.44395  0.85829  1.0000
  C   C165      1.0  0.07437  0.42806  0.85637  1.0000
  C   C166      1.0  0.07780  0.42088  0.83532  1.0000
  C   C167      1.0  0.06903  0.42945  0.81671  1.0000
  H   H262      1.0  0.04350  0.46447  0.84175  1.0000
  H   H263      1.0  0.05914  0.44974  0.87437  1.0000
  H   H264      1.0  0.08706  0.40860  0.83336  1.0000
  H   H265      1.0  0.07177  0.42360  0.80066  1.0000
  H   H266      1.0  0.08345  0.26046  0.82447  1.0000
  H   H267      1.0  0.08703  0.45857  0.73930  1.0000
  C   C168      1.0  0.29866  0.48542  0.79015  1.0000
  H   H268      1.0  0.17863  0.38584  0.91538  1.0000
  H   H269      1.0  0.03613  0.26635  0.85064  1.0000
  H   H270      1.0  0.10548  0.39474  0.99158  1.0000
  C   C169      1.0  0.31192  0.47967  0.77402  1.0000
  H   H271      1.0  0.19491  0.34871  0.95524  1.0000
  H   H272      1.0  0.06388  0.46460  0.74984  1.0000
  C   C170      1.0  0.23725  0.38873  0.85859  1.0000
  C   C171      1.0  0.22682  0.37451  0.86916  1.0000
  C   C172      1.0  0.20724  0.37690  0.87296  1.0000
  C   C173      1.0  0.19780  0.39364  0.86629  1.0000
  C   C174      1.0  0.20823  0.40791  0.85588  1.0000
  C   C175      1.0  0.22779  0.40550  0.85203  1.0000
  H   H273      1.0  0.23394  0.36144  0.87419  1.0000
  H   H274      1.0  0.19948  0.36569  0.88075  1.0000
  H   H275      1.0  0.20116  0.42093  0.85060  1.0000
  H   H276      1.0  0.23553  0.41656  0.84387  1.0000
  N   N17       1.0  0.08353  0.48634  0.75222  1.0000
  H   H277      1.0  0.32195  0.41012  0.90571  1.0000
  H   H278      1.0  0.32732  0.48751  0.74420  1.0000
  C   C176      1.0  0.11649  0.26687  0.85099  1.0000
  C   C177      1.0  0.10151  0.26950  0.86615  1.0000
  C   C178      1.0  0.09873  0.28672  0.87694  1.0000
  C   C179      1.0  0.11086  0.30158  0.87285  1.0000
  C   C180      1.0  0.12594  0.29888  0.85781  1.0000
  C   C181      1.0  0.12872  0.28164  0.84699  1.0000
  H   H279      1.0  0.32143  0.41630  0.94572  1.0000
  H   H280      1.0  0.08714  0.28855  0.88871  1.0000
  H   H281      1.0  0.13542  0.31009  0.85446  1.0000
  H   H282      1.0  0.14043  0.27981  0.83541  1.0000
  H   H283      1.0  0.21450  0.39479  0.93872  1.0000
  H   H284      1.0  0.04511  0.28497  0.79342  1.0000
  H   H285      1.0  0.22024  0.37104  0.94785  1.0000
  C   C182      1.0  0.21022  0.38000  0.93806  1.0000
  H   H286      1.0  0.19829  0.37501  0.98040  1.0000
  N   N18       1.0  0.13445  0.43973  0.84929  1.0000
  C   C183      1.0  0.12997  0.42075  0.84259  1.0000
  C   C184      1.0  0.11934  0.45335  0.84260  1.0000
  C   C185      1.0  0.15244  0.44490  0.83860  1.0000
  C   C186      1.0  0.13602  0.43980  0.87348  1.0000
  H   H287      1.0  0.14126  0.41017  0.84693  1.0000
  H   H288      1.0  0.12810  0.42024  0.82454  1.0000
  H   H289      1.0  0.11685  0.41610  0.85095  1.0000
  H   H290      1.0  0.12237  0.46789  0.84707  1.0000
  H   H291      1.0  0.11725  0.45328  0.82456  1.0000
  H   H292      1.0  0.10575  0.44993  0.85097  1.0000
  H   H293      1.0  0.15640  0.45908  0.84337  1.0000
  H   H294      1.0  0.15182  0.44489  0.82033  1.0000
  H   H295      1.0  0.16402  0.43472  0.84346  1.0000
  H   H296      1.0  0.13922  0.45393  0.87917  1.0000
  H   H297      1.0  0.14736  0.42975  0.87911  1.0000
  H   H298      1.0  0.12273  0.43573  0.88208  1.0000
  H   H299      1.0  0.06548  0.30042  0.81921  1.0000
  H   H300      1.0  0.17099  0.35632  0.95133  1.0000
  C   C187      1.0  0.07261  0.49587  0.77004  1.0000
  C   C188      1.0  0.07207  0.26352  0.81268  1.0000
  C   C189      1.0  0.07903  0.46629  0.75243  1.0000
  H   H301      1.0  0.10775  0.48131  0.77182  1.0000
  H   H302      1.0  0.02764  0.28249  0.81521  1.0000
  H   H303      1.0  0.31724  0.50221  0.89166  1.0000
  H   H304      1.0  0.04811  0.29777  0.84108  1.0000
  C   C190      1.0  0.31091  0.48925  0.89864  1.0000
  N   N19       1.0  0.31817  0.47241  0.88701  1.0000
  H   H305      1.0  0.18667  0.35346  0.92788  1.0000
  H   H306      1.0  0.08212  0.45916  0.76858  1.0000
  H   H307      1.0  0.21195  0.37584  0.92056  1.0000
  C   C191      1.0  0.04865  0.26001  0.84185  1.0000
  C   C192      1.0  0.33383  0.41622  0.91285  1.0000
  H   H308      1.0  0.31466  0.44275  0.88852  1.0000
  C   C193      1.0  0.07877  0.49530  0.73071  1.0000
  C   C194      1.0  0.06032  0.29064  0.83249  1.0000
  H   H309      1.0  0.05736  0.49495  0.76785  1.0000
  H   H310      1.0  0.17435  0.38251  0.97632  1.0000
  H   H311      1.0  0.18162  0.40512  0.93296  1.0000
  H   H312      1.0  0.11239  0.48095  0.74253  1.0000
  H   H313      1.0  0.29386  0.45657  0.89528  1.0000
  C   C195      1.0  0.31704  0.49215  0.75655  1.0000
  Fe  Fe42      1.0  0.32438  0.41478  0.84975  1.0000
  C   C196      1.0  0.18895  0.38384  0.96959  1.0000
  C   C197      1.0  0.31374  0.47438  0.86341  1.0000
  C   C198      1.0  0.18565  0.35826  0.94516  1.0000
  N   N20       1.0  0.19073  0.37805  0.94643  1.0000
  H   H314      1.0  0.16325  0.38928  0.93901  1.0000
  C   C199      1.0  0.13036  0.37746  0.99735  1.0000
  C   C200      1.0  0.30933  0.45565  0.89685  1.0000
  C   C201      1.0  0.17802  0.39012  0.93285  1.0000
  H   H315      1.0  0.19251  0.39876  0.97118  1.0000
  H   H316      1.0  0.09221  0.25820  0.86982  1.0000
  H   H317      1.0  0.31824  0.46560  0.77498  1.0000
  C   C202      1.0  0.10371  0.48793  0.75573  1.0000
  C   C203      1.0  0.04047  0.27574  0.80751  1.0000
  H   H318      1.0  0.29834  0.47547  0.86103  1.0000
  H   H319      1.0  0.31404  0.48813  0.91650  1.0000
  H   H320      1.0  0.07162  0.28870  0.84460  1.0000
  N   N21       1.0  0.05538  0.27250  0.82364  1.0000
  C   C204      1.0  0.29061  0.50380  0.78855  1.0000
  H   H321      1.0  0.33662  0.35215  0.79457  1.0000
  H   H322      1.0  0.07784  0.27266  0.79913  1.0000
  H   H323      1.0  0.31932  0.46205  0.85404  1.0000
  H   H324      1.0  0.31980  0.48707  0.85541  1.0000
  H   H325      1.0  0.29544  0.49117  0.89736  1.0000
  S   S81       1.0  0.32947  0.42756  0.81596  1.0000
  C   C205      1.0  0.11471  0.38872  0.00392  1.0000
  S   S82       1.0  0.33591  0.39015  0.77355  1.0000
  C   C206      1.0  0.33359  0.41971  0.93552  1.0000
  H   H326      1.0  0.31235  0.45366  0.91467  1.0000
  H   H327      1.0  0.06353  0.49477  0.72773  1.0000
  H   H328      1.0  0.07557  0.48934  0.78653  1.0000
  H   H329      1.0  0.10750  0.50292  0.75569  1.0000
  H   H330      1.0  0.05962  0.25706  0.85421  1.0000
  Fe  Fe43      1.0  0.32282  0.59095  0.30511  1.0000
  H   H331      1.0  0.03407  0.58618  0.29908  1.0000
  Fe  Fe44      1.0  0.30782  0.55220  0.31922  1.0000
  S   S83       1.0  0.30710  0.52048  0.31470  1.0000
  S   S84       1.0  0.29742  0.57528  0.29609  1.0000
  H   H332      1.0  0.03982  0.75363  0.29560  1.0000
  C   C207      1.0  0.24499  0.55256  0.31548  1.0000
  S   S85       1.0  0.05297  0.52074  0.30645  1.0000
  H   H333      1.0  0.08956  0.53039  0.31989  1.0000
  C   C208      1.0  0.04771  0.55130  0.33473  1.0000
  H   H334      1.0  0.21371  0.61105  0.31925  1.0000
  C   C209      1.0  0.01816  0.73301  0.32229  1.0000
  H   H335      1.0  0.26291  0.50761  0.31851  1.0000
  C   C210      1.0  0.23249  0.52538  0.29958  1.0000
  H   H336      1.0  0.00713  0.73074  0.33535  1.0000
  H   H337      1.0  0.03605  0.57191  0.24039  1.0000
  C   C211      1.0  0.06032  0.53857  0.32424  1.0000
  H   H338      1.0  0.30759  0.53151  0.26756  1.0000
  H   H339      1.0  0.25772  0.54457  0.27472  1.0000
  H   H340      1.0  0.24776  0.51928  0.33867  1.0000
  C   C212      1.0  0.01395  0.55735  0.28794  1.0000
  H   H341      1.0  0.27031  0.52801  0.33149  1.0000
  C   C213      1.0  0.07958  0.54007  0.32781  1.0000
  H   H342      1.0  0.03286  0.55029  0.33260  1.0000
  C   C214      1.0  0.03869  0.57914  0.28361  1.0000
  H   H343      1.0  0.08403  0.69468  0.33689  1.0000
  C   C215      1.0  0.25794  0.52158  0.32469  1.0000
  C   C216      1.0  0.21475  0.60325  0.33477  1.0000
  C   C217      1.0  0.26325  0.53519  0.28821  1.0000
  H   H344      1.0  0.02519  0.71913  0.31874  1.0000
  H   H345      1.0  0.22184  0.52419  0.31330  1.0000
  H   H346      1.0  0.23557  0.51104  0.29323  1.0000
  H   H347      1.0  0.04579  0.58961  0.27265  1.0000
  H   H348      1.0  0.23476  0.55208  0.32969  1.0000
  C   C218      1.0  0.30676  0.51641  0.26916  1.0000
  H   H349      1.0  0.27651  0.54101  0.29336  1.0000
  S   S86       1.0  0.30723  0.60516  0.33315  1.0000
  H   H350      1.0  0.02386  0.54539  0.29202  1.0000
  N   N22       1.0  0.02279  0.57118  0.27275  1.0000
  H   H351      1.0  0.04057  0.55059  0.25624  1.0000
  Fe  Fe45      1.0  0.28273  0.58758  0.32628  1.0000
  N   N23       1.0  0.24965  0.53367  0.30699  1.0000
  S   S87       1.0  0.25238  0.59929  0.32352  1.0000
  H   H352      1.0  0.30575  0.51260  0.23410  1.0000
  N   N24       1.0  0.03177  0.74648  0.32915  1.0000
  S   S88       1.0  0.33412  0.56676  0.32630  1.0000
  H   H353      1.0  0.04939  0.56793  0.28818  1.0000
  S   S89       1.0  0.08906  0.73446  0.33535  1.0000
  H   H354      1.0  0.05458  0.73568  0.30848  1.0000
  H   H355      1.0  0.25767  0.55915  0.32121  1.0000
  S   S90       1.0  0.02657  0.51321  0.25207  1.0000
  H   H356      1.0  0.22601  0.53413  0.28611  1.0000
  C   C219      1.0  0.00880  0.58627  0.26693  1.0000
  C   C220      1.0  0.02969  0.56182  0.25250  1.0000
  H   H357      1.0  0.01810  0.55519  0.24419  1.0000
  H   H358      1.0  0.01493  0.59699  0.25544  1.0000
  H   H359      1.0  0.23891  0.56227  0.30260  1.0000
  H   H360      1.0  0.26699  0.52121  0.28123  1.0000
  C   C221      1.0  0.04616  0.74894  0.31139  1.0000
  C   C222      1.0  0.30669  0.50761  0.29010  1.0000
  H   H361      1.0  0.01103  0.73822  0.30710  1.0000
  H   H362      1.0  0.00904  0.56374  0.30368  1.0000
  Fe  Fe46      1.0  0.02844  0.50765  0.28886  1.0000
  C   C223      1.0  0.23233  0.59565  0.34116  1.0000
  C   C224      1.0  0.08615  0.55398  0.34143  1.0000
  C   C225      1.0  0.09580  0.54359  0.40806  1.0000
  H   H363      1.0  0.20555  0.64570  0.35230  1.0000
  C   C226      1.0  0.08053  0.53632  0.44313  1.0000
  H   H364      1.0  0.30352  0.61869  0.62353  1.0000
  N   N25       1.0  0.08051  0.54939  0.42374  1.0000
  C   C227      1.0  0.18036  0.65212  0.40018  1.0000
  N   N26       1.0  0.18343  0.65267  0.37598  1.0000
  C   C228      1.0  0.06238  0.54902  0.41284  1.0000
  Fe  Fe47      1.0  0.12145  0.63704  0.64963  1.0000
  S   S91       1.0  0.14524  0.63304  0.62443  1.0000
  C   C229      1.0  0.20094  0.59553  0.66461  1.0000
  Fe  Fe48      1.0  0.11018  0.59553  0.64770  1.0000
  S   S92       1.0  0.13345  0.58885  0.62264  1.0000
  H   H365      1.0  0.13221  0.70627  0.39071  1.0000
  Fe  Fe49      1.0  0.15178  0.60578  0.64356  1.0000
  Fe  Fe50      1.0  0.12579  0.61620  0.60485  1.0000
  S   S93       1.0  0.12043  0.62229  0.56758  1.0000
  S   S94       1.0  0.10172  0.62209  0.62887  1.0000
  Fe  Fe51      1.0  0.12194  0.60324  0.43199  1.0000
  S   S95       1.0  0.14510  0.62048  0.41755  1.0000
  S   S96       1.0  0.11882  0.59203  0.46831  1.0000
  Fe  Fe52      1.0  0.10682  0.59693  0.38498  1.0000
  S   S97       1.0  0.12933  0.61408  0.36776  1.0000
  S   S98       1.0  0.08083  0.58468  0.36949  1.0000
  Fe  Fe53      1.0  0.14949  0.59924  0.39112  1.0000
  S   S99       1.0  0.17958  0.58692  0.38610  1.0000
  Fe  Fe54      1.0  0.12373  0.63460  0.39510  1.0000
  S   S100      1.0  0.12729  0.66651  0.39217  1.0000
  S   S101      1.0  0.12741  0.58085  0.40664  1.0000
  S   S102      1.0  0.10011  0.61854  0.41120  1.0000
  C   C230      1.0  0.07355  0.56680  0.35174  1.0000
  C   C231      1.0  0.29814  0.55682  0.50420  1.0000
  H   H366      1.0  0.29808  0.62957  0.66150  1.0000
  H   H367      1.0  0.33267  0.56818  0.51019  1.0000
  H   H368      1.0  0.09392  0.52927  0.40195  1.0000
  C   C232      1.0  0.12148  0.61364  0.53994  1.0000
  C   C233      1.0  0.11808  0.62631  0.52202  1.0000
  C   C234      1.0  0.11786  0.62014  0.50005  1.0000
  C   C235      1.0  0.12064  0.60104  0.49554  1.0000
  C   C236      1.0  0.12396  0.58835  0.51348  1.0000
  C   C237      1.0  0.12466  0.59457  0.53538  1.0000
  H   H369      1.0  0.11557  0.64108  0.52513  1.0000
  H   H370      1.0  0.11515  0.63017  0.48666  1.0000
  H   H371      1.0  0.12621  0.57356  0.51037  1.0000
  H   H372      1.0  0.12750  0.58456  0.54871  1.0000
  H   H373      1.0  0.08351  0.57889  0.41674  1.0000
  C   C238      1.0  0.23339  0.58532  0.36110  1.0000
  C   C239      1.0  0.21710  0.58280  0.37449  1.0000
  C   C240      1.0  0.19954  0.59055  0.36824  1.0000
  S   S103      1.0  0.33041  0.58844  0.38594  1.0000
  H   H374      1.0  0.07011  0.55328  0.58199  1.0000
  H   H375      1.0  0.24677  0.57937  0.36629  1.0000
  H   H376      1.0  0.21814  0.57485  0.38993  1.0000
  H   H377      1.0  0.29190  0.57023  0.49722  1.0000
  H   H378      1.0  0.12984  0.74289  0.62292  1.0000
  H   H379      1.0  0.27312  0.59551  0.66567  1.0000
  H   H380      1.0  0.06916  0.54026  0.45529  1.0000
  H   H381      1.0  0.18998  0.68184  0.37454  1.0000
  H   H382      1.0  0.10970  0.54354  0.41577  1.0000
  H   H383      1.0  0.33598  0.54752  0.39021  1.0000
  C   C241      1.0  0.08338  0.56863  0.43095  1.0000
  H   H384      1.0  0.04854  0.72547  0.34669  1.0000
  N   N27       1.0  0.27730  0.61793  0.64185  1.0000
  H   H385      1.0  0.05360  0.55283  0.66066  1.0000
  H   H386      1.0  0.18230  0.67304  0.34910  1.0000
  H   H387      1.0  0.31338  0.55475  0.59602  1.0000
  H   H388      1.0  0.09834  0.66791  0.35867  1.0000
  C   C242      1.0  0.28119  0.59847  0.65008  1.0000
  S   S104      1.0  0.10638  0.66288  0.66533  1.0000
  C   C243      1.0  0.11630  0.68513  0.37625  1.0000
  C   C244      1.0  0.12170  0.70366  0.37895  1.0000
  C   C245      1.0  0.11356  0.71891  0.36665  1.0000
  S   S105      1.0  0.12889  0.61057  0.66979  1.0000
  N   N28       1.0  0.07887  0.58167  0.58297  1.0000
  C   C246      1.0  0.06606  0.56675  0.58999  1.0000
  C   C247      1.0  0.09810  0.57583  0.58918  1.0000
  C   C248      1.0  0.07301  0.59923  0.59401  1.0000
  C   C249      1.0  0.07839  0.58491  0.55882  1.0000
  H   H389      1.0  0.05136  0.57069  0.58576  1.0000
  H   H390      1.0  0.06628  0.56405  0.60819  1.0000
  H   H391      1.0  0.13547  0.74775  0.65059  1.0000
  H   H392      1.0  0.10811  0.58688  0.58447  1.0000
  H   H393      1.0  0.09889  0.57311  0.60730  1.0000
  H   H394      1.0  0.10319  0.56278  0.58093  1.0000
  H   H395      1.0  0.08249  0.61076  0.58911  1.0000
  H   H396      1.0  0.07326  0.59729  0.61229  1.0000
  H   H397      1.0  0.05858  0.60413  0.58969  1.0000
  H   H398      1.0  0.08742  0.59663  0.55330  1.0000
  H   H399      1.0  0.06399  0.58880  0.55343  1.0000
  H   H400      1.0  0.08357  0.57226  0.54983  1.0000
  H   H401      1.0  0.05049  0.55317  0.42419  1.0000
  C   C250      1.0  0.11234  0.68565  0.67361  1.0000
  H   H402      1.0  0.25214  0.61055  0.62630  1.0000
  H   H403      1.0  0.31322  0.52171  0.50117  1.0000
  H   H404      1.0  0.09640  0.55329  0.39335  1.0000
  H   H405      1.0  0.07211  0.57354  0.44274  1.0000
  C   C251      1.0  0.13269  0.75440  0.63410  1.0000
  H   H406      1.0  0.18502  0.60616  0.34263  1.0000
  H   H407      1.0  0.28739  0.54606  0.50383  1.0000
  H   H408      1.0  0.06187  0.55894  0.39831  1.0000
  C   C252      1.0  0.13071  0.69166  0.67259  1.0000
  H   H409      1.0  0.15544  0.64557  0.36913  1.0000
  H   H410      1.0  0.30106  0.55908  0.52181  1.0000
  H   H411      1.0  0.16579  0.65699  0.40492  1.0000
  H   H412      1.0  0.17153  0.62583  0.37286  1.0000
  H   H413      1.0  0.07851  0.52163  0.43830  1.0000
  H   H414      1.0  0.31249  0.56727  0.63383  1.0000
  H   H415      1.0  0.11786  0.73304  0.36898  1.0000
  C   C253      1.0  0.31109  0.54811  0.46847  1.0000
  C   C254      1.0  0.18026  0.67215  0.36735  1.0000
  H   H416      1.0  0.24859  0.61912  0.65357  1.0000
  H   H417      1.0  0.09692  0.56947  0.43931  1.0000
  H   H418      1.0  0.30588  0.56142  0.46020  1.0000
  S   S106      1.0  0.29192  0.56373  0.34908  1.0000
  C   C255      1.0  0.32922  0.56558  0.49282  1.0000
  H   H419      1.0  0.28590  0.63578  0.61449  1.0000
  C   C256      1.0  0.04083  0.73918  0.34940  1.0000
  N   N29       1.0  0.31540  0.55091  0.49174  1.0000
  H   H420      1.0  0.21326  0.65486  0.37751  1.0000
  H   H421      1.0  0.18260  0.63759  0.40722  1.0000
  H   H422      1.0  0.05989  0.53481  0.40677  1.0000
  H   H423      1.0  0.16568  0.67755  0.37134  1.0000
  C   C257      1.0  0.32420  0.56997  0.62262  1.0000
  S   S107      1.0  0.18119  0.59192  0.64822  1.0000
  H   H424      1.0  0.17246  0.63994  0.34780  1.0000
  H   H425      1.0  0.30033  0.53749  0.46700  1.0000
  C   C258      1.0  0.17016  0.64046  0.36598  1.0000
  H   H426      1.0  0.09403  0.53642  0.45175  1.0000
  H   H427      1.0  0.27730  0.58802  0.63803  1.0000
  H   H428      1.0  0.27971  0.64602  0.65303  1.0000
  C   C259      1.0  0.25707  0.62084  0.63796  1.0000
  H   H429      1.0  0.10100  0.55483  0.34379  1.0000
  H   H430      1.0  0.21628  0.57111  0.65235  1.0000
  C   C260      1.0  0.10264  0.68204  0.36100  1.0000
  C   C261      1.0  0.28820  0.62114  0.62106  1.0000
  C   C262      1.0  0.32327  0.53313  0.50155  1.0000
  H   H431      1.0  0.25365  0.63521  0.63115  1.0000
  C   C263      1.0  0.28282  0.63118  0.65842  1.0000
  H   H432      1.0  0.32377  0.54306  0.45888  1.0000
  C   C264      1.0  0.20281  0.64588  0.37045  1.0000
  H   H433      1.0  0.28426  0.61145  0.60817  1.0000
  S   S108      1.0  0.08568  0.57585  0.65536  1.0000
  Fe  Fe55      1.0  0.31748  0.58022  0.35403  1.0000
  C   C265      1.0  0.21661  0.58285  0.66315  1.0000
  C   C266      1.0  0.09991  0.71582  0.35139  1.0000
  H   H434      1.0  0.32403  0.57915  0.48518  1.0000
  C   C267      1.0  0.05428  0.56526  0.34826  1.0000
  C   C268      1.0  0.32476  0.56288  0.60120  1.0000
  H   H435      1.0  0.29631  0.59590  0.65345  1.0000
  H   H436      1.0  0.20558  0.63125  0.37699  1.0000
  C   C269      1.0  0.19844  0.60065  0.34812  1.0000
  H   H437      1.0  0.04430  0.57494  0.35618  1.0000
  H   H438      1.0  0.19003  0.66128  0.40832  1.0000
  H   H439      1.0  0.14193  0.68238  0.66641  1.0000
  H   H440      1.0  0.32697  0.53484  0.51902  1.0000
  H   H441      1.0  0.10173  0.75279  0.66045  1.0000
  H   H442      1.0  0.05135  0.74892  0.35484  1.0000
  H   H443      1.0  0.33628  0.52826  0.49240  1.0000
  H   H444      1.0  0.09623  0.74756  0.63284  1.0000
  H   H445      1.0  0.03047  0.73720  0.36325  1.0000
  C   C270      1.0  0.09452  0.69729  0.34867  1.0000
  H   H446      1.0  0.24437  0.57501  0.67449  1.0000
  H   H447      1.0  0.27518  0.62877  0.67451  1.0000
  C   C271      1.0  0.13464  0.70968  0.67983  1.0000
  Fe  Fe56      1.0  0.30884  0.55628  0.72279  1.0000
  S   S109      1.0  0.29353  0.57888  0.74222  1.0000
  S   S110      1.0  0.31650  0.52568  0.73276  1.0000
  H   H448      1.0  0.07749  0.65576  0.69843  1.0000
  S   S111      1.0  0.30665  0.60896  0.70391  1.0000
  Fe  Fe57      1.0  0.31890  0.59623  0.73491  1.0000
  Fe  Fe58      1.0  0.28252  0.58979  0.70951  1.0000
  S   S112      1.0  0.25332  0.60418  0.70544  1.0000
  Fe  Fe59      1.0  0.32055  0.58452  0.68623  1.0000
  S   S113      1.0  0.29611  0.56584  0.69039  1.0000
  H   H449      1.0  0.09523  0.57236  0.70250  1.0000
  H   H450      1.0  0.09073  0.72529  0.69529  1.0000
  H   H451      1.0  0.07918  0.59979  0.72603  1.0000
  S   S114      1.0  0.04763  0.53327  0.73997  1.0000
  C   C272      1.0  0.12032  0.72199  0.68816  1.0000
  H   H452      1.0  0.10167  0.63480  0.73240  1.0000
  C   C273      1.0  0.08275  0.56474  0.70026  1.0000
  C   C274      1.0  0.07398  0.55537  0.71851  1.0000
  C   C275      1.0  0.05789  0.54496  0.71610  1.0000
  C   C276      1.0  0.05073  0.54412  0.69500  1.0000
  H   H453      1.0  0.07541  0.51109  0.77029  1.0000
  C   C277      1.0  0.07191  0.61394  0.72599  1.0000
  H   H454      1.0  0.07979  0.55609  0.73465  1.0000
  H   H455      1.0  0.03842  0.53623  0.69271  1.0000
  S   S115      1.0  0.02217  0.50872  0.78879  1.0000
  C   C278      1.0  0.10193  0.71606  0.68896  1.0000
  H   H456      1.0  0.28023  0.50836  0.80084  1.0000
  H   H457      1.0  0.06573  0.61729  0.68282  1.0000
  H   H458      1.0  0.07112  0.65177  0.72692  1.0000
  S   S116      1.0  0.12619  0.74465  0.69690  1.0000
  H   H459      1.0  0.08373  0.69363  0.68265  1.0000
  H   H460      1.0  0.05706  0.61199  0.72200  1.0000
  C   C279      1.0  0.09801  0.69802  0.68180  1.0000
  C   C280      1.0  0.29556  0.51621  0.77093  1.0000
  H   H461      1.0  0.08819  0.60571  0.68652  1.0000
  H   H462      1.0  0.28890  0.53011  0.76970  1.0000
  C   C281      1.0  0.08032  0.61947  0.68762  1.0000
  H   H463      1.0  0.07207  0.61916  0.74304  1.0000
  C   C282      1.0  0.30888  0.51047  0.75482  1.0000
  H   H464      1.0  0.31107  0.55580  0.79845  1.0000
  C   C283      1.0  0.23322  0.60006  0.68988  1.0000
  N   N30       1.0  0.08094  0.62700  0.70994  1.0000
  C   C284      1.0  0.32030  0.55888  0.78379  1.0000
  H   H465      1.0  0.10791  0.63868  0.70386  1.0000
  C   C285      1.0  0.23261  0.58503  0.67569  1.0000
  H   H466      1.0  0.31516  0.55109  0.76982  1.0000
  C   C286      1.0  0.07091  0.64560  0.71035  1.0000
  H   H467      1.0  0.05605  0.64469  0.70584  1.0000
  H   H468      1.0  0.08212  0.51042  0.72992  1.0000
  C   C287      1.0  0.10064  0.62899  0.71574  1.0000
  H   H469      1.0  0.18974  0.62050  0.68008  1.0000
  H   H470      1.0  0.10867  0.61525  0.71557  1.0000
  Fe  Fe60      1.0  0.02413  0.51333  0.75162  1.0000
  H   H471      1.0  0.33309  0.53047  0.80974  1.0000
  H   H472      1.0  0.14894  0.71405  0.67913  1.0000
  C   C288      1.0  0.07548  0.56403  0.67919  1.0000
  H   H473      1.0  0.31834  0.57414  0.77961  1.0000
  C   C289      1.0  0.05942  0.55361  0.67678  1.0000
  H   H474      1.0  0.21790  0.62454  0.70206  1.0000
  S   S117      1.0  0.33212  0.60926  0.76467  1.0000
  S   S118      1.0  0.33445  0.57316  0.71674  1.0000
  C   C290      1.0  0.21762  0.61282  0.69123  1.0000
  C   C291      1.0  0.20158  0.61058  0.67875  1.0000
  H   H475      1.0  0.33701  0.52449  0.78150  1.0000
  H   H476      1.0  0.08661  0.62919  0.67502  1.0000
  Fe  Fe61      1.0  0.20719  0.93987  0.22929  1.0000
  S   S119      1.0  0.22127  0.91677  0.24949  1.0000
  S   S120      1.0  0.20143  0.97121  0.23519  1.0000
  Fe  Fe62      1.0  0.19680  0.91225  0.19382  1.0000
  S   S121      1.0  0.21072  0.88725  0.21158  1.0000
  S   S122      1.0  0.17533  0.90909  0.16739  1.0000
  Fe  Fe63      1.0  0.19693  0.89883  0.24256  1.0000
  S   S123      1.0  0.17663  0.88602  0.26864  1.0000
  Fe  Fe64      1.0  0.23415  0.90698  0.21684  1.0000
  S   S124      1.0  0.26621  0.90173  0.21658  1.0000
  S   S125      1.0  0.18222  0.92280  0.22447  1.0000
  S   S126      1.0  0.22090  0.93112  0.19698  1.0000
  Fe  Fe65      1.0  0.06727  0.80012  0.31964  1.0000
  S   S127      1.0  0.08803  0.78145  0.30123  1.0000
  S   S128      1.0  0.03740  0.80858  0.30970  1.0000
  Fe  Fe66      1.0  0.10978  0.80150  0.31081  1.0000
  S   S129      1.0  0.13437  0.80945  0.28752  1.0000
  H   H477      1.0  0.01727  0.85835  0.06734  1.0000
  Fe  Fe67      1.0  0.14316  0.94620  0.05004  1.0000
  H   H478      1.0  0.03181  0.77535  0.33846  1.0000
  S   S130      1.0  0.16936  0.94568  0.07047  1.0000
  C   C292      1.0  0.02500  0.88756  0.09184  1.0000
  H   H479      1.0  0.18757  0.99313  0.13979  1.0000
  C   C293      1.0  0.04086  0.92691  0.03798  1.0000
  Fe  Fe68      1.0  0.10915  0.97004  0.03404  1.0000
  H   H480      1.0  0.21221  0.97511  0.18977  1.0000
  H   H481      1.0  0.18313  0.99285  0.20097  1.0000
  S   S131      1.0  0.11230  0.94615  0.05907  1.0000
  H   H482      1.0  0.17099  0.86914  0.22472  1.0000
  H   H483      1.0  0.19381  0.95887  0.02468  1.0000
  S   S132      1.0  0.13998  0.97177  0.02747  1.0000
  H   H484      1.0  0.21416  0.98984  0.16540  1.0000
  H   H485      1.0  0.18261  0.95868  0.19836  1.0000
  H   H486      1.0  0.02685  0.89439  0.10776  1.0000
  C   C294      1.0  0.06042  0.92402  0.03637  1.0000
  H   H487      1.0  0.22918  0.98011  0.30743  1.0000
  C   C295      1.0  0.17959  0.96041  0.18056  1.0000
  C   C296      1.0  0.02321  0.80089  0.28848  1.0000
  S   S133      1.0  0.33418  0.87704  0.15033  1.0000
  S   S134      1.0  0.14151  0.92595  0.02256  1.0000
  C   C297      1.0  0.02967  0.78744  0.27342  1.0000
  C   C298      1.0  0.18825  0.95142  0.01065  1.0000
  C   C299      1.0  0.00663  0.86338  0.10975  1.0000
  H   H488      1.0  0.04406  0.78213  0.27374  1.0000
  C   C300      1.0  0.20767  0.98422  0.25816  1.0000
  C   C301      1.0  0.02903  0.91245  0.03345  1.0000
  H   H489      1.0  0.05615  0.75965  0.31562  1.0000
  C   C302      1.0  0.21709  0.97583  0.27599  1.0000
  H   H490      1.0  0.15198  0.81271  0.33103  1.0000
  H   H491      1.0  0.22084  0.96095  0.27604  1.0000
  C   C303      1.0  0.28465  0.89634  0.19680  1.0000
  C   C304      1.0  0.28159  0.88734  0.17719  1.0000
  C   C305      1.0  0.29687  0.88194  0.16303  1.0000
  C   C306      1.0  0.31540  0.88578  0.16794  1.0000
  C   C307      1.0  0.31842  0.89526  0.18724  1.0000
  C   C308      1.0  0.30318  0.90023  0.20167  1.0000
  H   H492      1.0  0.26751  0.88409  0.17322  1.0000
  H   H493      1.0  0.29430  0.87461  0.14820  1.0000
  C   C309      1.0  0.05649  0.89196  0.02616  1.0000
  H   H494      1.0  0.30577  0.90716  0.21678  1.0000
  C   C310      1.0  0.17403  0.91969  0.14062  1.0000
  C   C311      1.0  0.15731  0.91882  0.12929  1.0000
  C   C312      1.0  0.15561  0.92683  0.10790  1.0000
  C   C313      1.0  0.17072  0.93569  0.09753  1.0000
  C   C314      1.0  0.18748  0.93657  0.10885  1.0000
  C   C315      1.0  0.18914  0.92865  0.13032  1.0000
  H   H495      1.0  0.14556  0.91186  0.13705  1.0000
  H   H496      1.0  0.14266  0.92600  0.09937  1.0000
  H   H497      1.0  0.19929  0.94327  0.10089  1.0000
  H   H498      1.0  0.20219  0.92916  0.13871  1.0000
  C   C316      1.0  0.16503  0.86456  0.27327  1.0000
  C   C317      1.0  0.17172  0.84762  0.26426  1.0000
  C   C318      1.0  0.16202  0.83100  0.26861  1.0000
  C   C319      1.0  0.14552  0.83103  0.28193  1.0000
  C   C320      1.0  0.13867  0.84801  0.29065  1.0000
  C   C321      1.0  0.14850  0.86459  0.28657  1.0000
  H   H499      1.0  0.18455  0.84723  0.25430  1.0000
  H   H500      1.0  0.16750  0.81794  0.26180  1.0000
  H   H501      1.0  0.12580  0.84837  0.30052  1.0000
  H   H502      1.0  0.14313  0.87760  0.29356  1.0000
  H   H503      1.0  0.16719  0.85296  0.20344  1.0000
  N   N31       1.0  0.14471  0.87361  0.20884  1.0000
  C   C322      1.0  0.13424  0.86063  0.22362  1.0000
  C   C323      1.0  0.14230  0.89289  0.21704  1.0000
  C   C324      1.0  0.13756  0.87318  0.18633  1.0000
  C   C325      1.0  0.16481  0.86779  0.20834  1.0000
  H   H504      1.0  0.13621  0.84582  0.21842  1.0000
  H   H505      1.0  0.11896  0.86436  0.22404  1.0000
  H   H506      1.0  0.13896  0.86102  0.24082  1.0000
  H   H507      1.0  0.14984  0.90306  0.20606  1.0000
  H   H508      1.0  0.12731  0.89771  0.21799  1.0000
  H   H509      1.0  0.14796  0.89380  0.23384  1.0000
  H   H510      1.0  0.14520  0.88286  0.17477  1.0000
  H   H511      1.0  0.12244  0.87756  0.18601  1.0000
  H   H512      1.0  0.13930  0.85885  0.17960  1.0000
  H   H513      1.0  0.17293  0.87670  0.19644  1.0000
  H   H514      1.0  0.16276  0.83436  0.32378  1.0000
  H   H515      1.0  0.06939  0.93529  0.03985  1.0000
  S   S135      1.0  0.08863  0.82138  0.32698  1.0000
  H   H516      1.0  0.18800  0.96805  0.13784  1.0000
  C   C326      1.0  0.20787  0.97686  0.17235  1.0000
  Fe  Fe69      1.0  0.11036  0.92796  0.02972  1.0000
  H   H517      1.0  0.17469  0.81709  0.34094  1.0000
  H   H518      1.0  0.16415  0.96026  0.17909  1.0000
  C   C327      1.0  0.21721  0.00616  0.29398  1.0000
  H   H519      1.0  0.18080  0.91907  0.03246  1.0000
  S   S136      1.0  0.08711  0.99370  0.03764  1.0000
  S   S137      1.0  0.00459  0.91664  0.03690  1.0000
  H   H520      1.0  0.20160  0.92808  0.04249  1.0000
  H   H521      1.0  0.02559  0.89875  0.07857  1.0000
  C   C328      1.0  0.19580  0.92125  0.02812  1.0000
  S   S138      1.0  0.09286  0.90236  0.02922  1.0000
  C   C329      1.0  0.06832  0.90650  0.03057  1.0000
  H   H522      1.0  0.20293  0.90715  0.02657  1.0000
  C   C330      1.0  0.18215  0.98003  0.14758  1.0000
  H   H523      1.0  0.16669  0.98050  0.14585  1.0000
  C   C331      1.0  0.17941  0.99409  0.18329  1.0000
  N   N32       1.0  0.18725  0.97786  0.17093  1.0000
  C   C332      1.0  0.03689  0.89496  0.02740  1.0000
  C   C333      1.0  0.22180  0.98675  0.29379  1.0000
  N   N33       1.0  0.00716  0.87788  0.09180  1.0000
  C   C334      1.0  0.01749  0.78093  0.25781  1.0000
  H   H524      1.0  0.31906  0.82557  0.20428  1.0000
  H   H525      1.0  0.33683  0.80691  0.20530  1.0000
  H   H526      1.0  0.02261  0.77045  0.24635  1.0000
  H   H527      1.0  0.03490  0.94045  0.04274  1.0000
  H   H528      1.0  0.21428  0.96472  0.16328  1.0000
  H   H529      1.0  0.01836  0.85269  0.10785  1.0000
  Fe  Fe70      1.0  0.09252  0.76638  0.33412  1.0000
  H   H530      1.0  0.03725  0.87766  0.08888  1.0000
  H   H531      1.0  0.18578  0.94780  0.17228  1.0000
  H   H532      1.0  0.16386  0.99514  0.18282  1.0000
  H   H533      1.0  0.33224  0.83747  0.16827  1.0000
  C   C335      1.0  0.00460  0.80806  0.28731  1.0000
  H   H534      1.0  0.32771  0.85824  0.20006  1.0000
  H   H535      1.0  0.33374  0.82279  0.22767  1.0000
  C   C336      1.0  0.02195  0.76476  0.33341  1.0000
  H   H536      1.0  0.02793  0.88375  0.02370  1.0000
  H   H537      1.0  0.17310  0.94990  0.01431  1.0000
  H   H538      1.0  0.00588  0.87942  0.05658  1.0000
  H   H539      1.0  0.33250  0.89842  0.19131  1.0000
  C   C337      1.0  0.20295  0.00361  0.25843  1.0000
  H   H540      1.0  0.06255  0.87841  0.02157  1.0000
  C   C338      1.0  0.33360  0.82184  0.20942  1.0000
  H   H541      1.0  0.22464  0.94262  0.01631  1.0000
  H   H542      1.0  0.01507  0.77074  0.31840  1.0000
  H   H543      1.0  0.00761  0.86966  0.12618  1.0000
  H   H544      1.0  0.13371  0.85162  0.33885  1.0000
  H   H545      1.0  0.16566  0.00403  0.33440  1.0000
  H   H546      1.0  0.19040  0.00044  0.33823  1.0000
  C   C339      1.0  0.16072  0.82376  0.33741  1.0000
  C   C340      1.0  0.00558  0.86886  0.07045  1.0000
  Fe  Fe71      1.0  0.03592  0.88652  0.53474  1.0000
  S   S139      1.0  0.05365  0.89526  0.50526  1.0000
  H   H547      1.0  0.15695  0.85444  0.37916  1.0000
  Fe  Fe72      1.0  0.06191  0.85218  0.54619  1.0000
  S   S140      1.0  0.08185  0.85844  0.51768  1.0000
  S   S141      1.0  0.06445  0.82521  0.56737  1.0000
  Fe  Fe73      1.0  0.07787  0.88870  0.52730  1.0000
  S   S142      1.0  0.10211  0.90721  0.53277  1.0000
  Fe  Fe74      1.0  0.05611  0.86432  0.49790  1.0000
  S   S143      1.0  0.04901  0.85145  0.46547  1.0000
  S   S144      1.0  0.06001  0.88180  0.55739  1.0000
  S   S145      1.0  0.03626  0.85630  0.52592  1.0000
  Fe  Fe75      1.0  0.09376  0.80386  0.35793  1.0000
  H   H548      1.0  0.17020  0.00284  0.39544  1.0000
  S   S146      1.0  0.10268  0.81622  0.38994  1.0000
  N   N34       1.0  0.11683  0.76842  0.63534  1.0000
  H   H549      1.0  0.07363  0.82653  0.49091  1.0000
  C   C341      1.0  0.06567  0.78310  0.51269  1.0000
  C   C342      1.0  0.15010  0.81797  0.37508  1.0000
  C   C343      1.0  0.07083  0.82660  0.59524  1.0000
  C   C344      1.0  0.06832  0.81120  0.61000  1.0000
  C   C345      1.0  0.07372  0.81185  0.63210  1.0000
  C   C346      1.0  0.08197  0.82782  0.63950  1.0000
  C   C347      1.0  0.08438  0.84319  0.62476  1.0000
  C   C348      1.0  0.07879  0.84263  0.60280  1.0000
  H   H550      1.0  0.06198  0.79882  0.60436  1.0000
  H   H551      1.0  0.07138  0.80014  0.64343  1.0000
  H   H552      1.0  0.09069  0.85562  0.63033  1.0000
  H   H553      1.0  0.08090  0.85455  0.59166  1.0000
  C   C349      1.0  0.06432  0.84235  0.44439  1.0000
  C   C350      1.0  0.05655  0.83489  0.42578  1.0000
  C   C351      1.0  0.06807  0.82689  0.40896  1.0000
  C   C352      1.0  0.08753  0.82620  0.41061  1.0000
  C   C353      1.0  0.09531  0.83355  0.42929  1.0000
  C   C354      1.0  0.08378  0.84162  0.44610  1.0000
  H   H554      1.0  0.04151  0.83539  0.42430  1.0000
  H   H555      1.0  0.06189  0.82133  0.39467  1.0000
  H   H556      1.0  0.11035  0.83312  0.43071  1.0000
  H   H557      1.0  0.08997  0.84736  0.46026  1.0000
  C   C355      1.0  0.10136  0.93104  0.52379  1.0000
  C   C356      1.0  0.08949  0.93759  0.50717  1.0000
  C   C357      1.0  0.08816  0.95686  0.50138  1.0000
  C   C358      1.0  0.09874  0.96971  0.51209  1.0000
  C   C359      1.0  0.11112  0.96309  0.52819  1.0000
  C   C360      1.0  0.11244  0.94379  0.53398  1.0000
  H   H558      1.0  0.08128  0.92781  0.49883  1.0000
  H   H559      1.0  0.07867  0.96189  0.48878  1.0000
  H   H560      1.0  0.11930  0.97289  0.53657  1.0000
  H   H561      1.0  0.12179  0.93878  0.54673  1.0000
  C   C361      1.0  0.04373  0.80956  0.50835  1.0000
  H   H562      1.0  0.03982  0.82253  0.49850  1.0000
  H   H563      1.0  0.04525  0.81373  0.52571  1.0000
  H   H564      1.0  0.03177  0.80017  0.50808  1.0000
  H   H565      1.0  0.06755  0.78638  0.53029  1.0000
  H   H566      1.0  0.05429  0.77301  0.51226  1.0000
  H   H567      1.0  0.05277  0.94260  0.51767  1.0000
  H   H568      1.0  0.12552  0.84629  0.36660  1.0000
  H   H569      1.0  0.16493  0.85869  0.35114  1.0000
  H   H570      1.0  0.05493  0.80846  0.46601  1.0000
  C   C362      1.0  0.12122  0.78326  0.65051  1.0000
  H   H571      1.0  0.07890  0.81714  0.51792  1.0000
  C   C363      1.0  0.17236  0.99914  0.37782  1.0000
  C   C364      1.0  0.11360  0.77692  0.61319  1.0000
  H   H572      1.0  0.16398  0.81162  0.37959  1.0000
  H   H573      1.0  0.07180  0.78926  0.46869  1.0000
  H   H574      1.0  0.13366  0.79100  0.64457  1.0000
  H   H575      1.0  0.08753  0.76920  0.64466  1.0000
  N   N35       1.0  0.15181  0.83240  0.35717  1.0000
  H   H576      1.0  0.07884  0.77588  0.50649  1.0000
  N   N36       1.0  0.06119  0.80037  0.49944  1.0000
  C   C365      1.0  0.07665  0.81330  0.50059  1.0000
  S   S147      1.0  0.07073  0.78437  0.35219  1.0000
  C   C366      1.0  0.16338  0.84758  0.36434  1.0000
  H   H577      1.0  0.10996  0.76620  0.60136  1.0000
  C   C367      1.0  0.05872  0.79566  0.47622  1.0000
  N   N37       1.0  0.04542  0.94909  0.55123  1.0000
  C   C368      1.0  0.04028  0.94630  0.52824  1.0000
  C   C369      1.0  0.05469  0.93168  0.56021  1.0000
  C   C370      1.0  0.02831  0.95367  0.56466  1.0000
  C   C371      1.0  0.05838  0.96462  0.55186  1.0000
  H   H578      1.0  0.03341  0.95918  0.52082  1.0000
  H   H579      1.0  0.15974  0.99194  0.37291  1.0000
  H   H580      1.0  0.10194  0.78780  0.61366  1.0000
  H   H581      1.0  0.05954  0.93344  0.57718  1.0000
  H   H582      1.0  0.04504  0.91989  0.56087  1.0000
  H   H583      1.0  0.06719  0.92725  0.54988  1.0000
  H   H584      1.0  0.03159  0.95549  0.58221  1.0000
  H   H585      1.0  0.01820  0.94223  0.56425  1.0000
  H   H586      1.0  0.02108  0.96684  0.55847  1.0000
  H   H587      1.0  0.07191  0.96095  0.54323  1.0000
  H   H588      1.0  0.06173  0.96784  0.56903  1.0000
  H   H589      1.0  0.05258  0.97773  0.54370  1.0000
  H   H590      1.0  0.14324  0.82396  0.39019  1.0000
  H   H591      1.0  0.09005  0.80701  0.49380  1.0000
  C   C372      1.0  0.13300  0.84030  0.35185  1.0000
  H   H592      1.0  0.04736  0.78570  0.47471  1.0000
  S   S148      1.0  0.09436  0.99394  0.50659  1.0000
  H   H593      1.0  0.17768  0.84213  0.36853  1.0000
  H   H594      1.0  0.03054  0.93464  0.52720  1.0000
  S   S149      1.0  0.01105  0.90415  0.54795  1.0000
  H   H595      1.0  0.18452  0.98885  0.37675  1.0000
  H   H596      1.0  0.12622  0.78398  0.60642  1.0000
  H   H597      1.0  0.10934  0.79379  0.65247  1.0000
  C   C373      1.0  0.09982  0.75909  0.64362  1.0000
  H   H598      1.0  0.12431  0.77720  0.66716  1.0000
  H   H599      1.0  0.01097  0.76355  0.34672  1.0000
  S   S150      1.0  0.08975  0.82935  0.66679  1.0000
  H   H600      1.0  0.14581  0.76094  0.62809  1.0000
  H   H601      1.0  0.14129  0.80640  0.37022  1.0000
  H   H602      1.0  0.12410  0.82929  0.34584  1.0000
  S   S151      1.0  0.11600  0.78474  0.34206  1.0000
  C   C374      1.0  0.01231  0.77273  0.77367  1.0000
  S   S152      1.0  0.15233  0.95946  0.96841  1.0000
  Fe  Fe76      1.0  0.19647  0.89188  0.81325  1.0000
  S   S153      1.0  0.17882  0.91517  0.82843  1.0000
  S   S154      1.0  0.18825  0.87195  0.78639  1.0000
  Fe  Fe77      1.0  0.23269  0.90535  0.83402  1.0000
  S   S155      1.0  0.21730  0.93016  0.85007  1.0000
  S   S156      1.0  0.26343  0.89402  0.83195  1.0000
  Fe  Fe78      1.0  0.19504  0.90956  0.85924  1.0000
  S   S157      1.0  0.18051  0.90378  0.89269  1.0000
  Fe  Fe79      1.0  0.20203  0.93434  0.81796  1.0000
  S   S158      1.0  0.18985  0.96052  0.79957  1.0000
  S   S159      1.0  0.21113  0.88461  0.84478  1.0000
  S   S160      1.0  0.21897  0.91132  0.80137  1.0000
  Fe  Fe80      1.0  0.07134  0.78494  0.73185  1.0000
  S   S161      1.0  0.09886  0.77418  0.74546  1.0000
  S   S162      1.0  0.04510  0.77298  0.74866  1.0000
  Fe  Fe81      1.0  0.09101  0.80756  0.69500  1.0000
  S   S163      1.0  0.11969  0.79856  0.70671  1.0000
  Fe  Fe82      1.0  0.10800  0.76954  0.71012  1.0000
  Fe  Fe83      1.0  0.10818  0.80403  0.74096  1.0000
  S   S164      1.0  0.11983  0.81866  0.77076  1.0000
  S   S165      1.0  0.08001  0.77848  0.69659  1.0000
  S   S166      1.0  0.08000  0.81487  0.72907  1.0000
  C   C375      1.0  0.02585  0.78402  0.76323  1.0000
  H   H603      1.0  0.31125  0.90931  0.96653  1.0000
  H   H604      1.0  0.17382  0.99016  0.77232  1.0000
  C   C376      1.0  0.02400  0.80350  0.76531  1.0000
  C   C377      1.0  0.06814  0.80953  0.78553  1.0000
  H   H605      1.0  0.18437  0.91715  0.77998  1.0000
  H   H606      1.0  0.03401  0.81242  0.75697  1.0000
  C   C378      1.0  0.20046  0.97773  0.78198  1.0000
  C   C379      1.0  0.18886  0.99095  0.77056  1.0000
  H   H607      1.0  0.18592  0.90783  0.75303  1.0000
  C   C380      1.0  0.21987  0.97881  0.77935  1.0000
  H   H608      1.0  0.05484  0.78216  0.82963  1.0000
  H   H609      1.0  0.22898  0.96875  0.78800  1.0000
  C   C381      1.0  0.28313  0.89484  0.84930  1.0000
  C   C382      1.0  0.28246  0.90467  0.86891  1.0000
  C   C383      1.0  0.29852  0.90507  0.88184  1.0000
  C   C384      1.0  0.31550  0.89561  0.87550  1.0000
  C   C385      1.0  0.31613  0.88563  0.85600  1.0000
  C   C386      1.0  0.30009  0.88531  0.84302  1.0000
  H   H610      1.0  0.26962  0.91213  0.87402  1.0000
  H   H611      1.0  0.29779  0.91292  0.89678  1.0000
  H   H612      1.0  0.08113  0.81635  0.77959  1.0000
  H   H613      1.0  0.30090  0.87769  0.82789  1.0000
  C   C387      1.0  0.16883  0.85753  0.78238  1.0000
  C   C388      1.0  0.15497  0.85434  0.79875  1.0000
  C   C389      1.0  0.14013  0.84254  0.79481  1.0000
  C   C390      1.0  0.13869  0.83391  0.77439  1.0000
  C   C391      1.0  0.15238  0.83737  0.75791  1.0000
  C   C392      1.0  0.16735  0.84898  0.76194  1.0000
  H   H614      1.0  0.15581  0.86072  0.81457  1.0000
  H   H615      1.0  0.12971  0.84000  0.80776  1.0000
  H   H616      1.0  0.15160  0.83087  0.74215  1.0000
  H   H617      1.0  0.17791  0.85128  0.74908  1.0000
  C   C393      1.0  0.15950  0.94389  0.94717  1.0000
  C   C394      1.0  0.16962  0.95085  0.92862  1.0000
  C   C395      1.0  0.17602  0.93885  0.91166  1.0000
  C   C396      1.0  0.17245  0.91971  0.91319  1.0000
  C   C397      1.0  0.16236  0.91278  0.93179  1.0000
  C   C398      1.0  0.15584  0.92479  0.94864  1.0000
  H   H618      1.0  0.17257  0.96560  0.92733  1.0000
  H   H619      1.0  0.18379  0.94437  0.89748  1.0000
  H   H620      1.0  0.15948  0.89801  0.93309  1.0000
  H   H621      1.0  0.14797  0.91923  0.96272  1.0000
  H   H622      1.0  0.09117  0.99038  0.94638  1.0000
  C   C399      1.0  0.18978  0.92348  0.98917  1.0000
  H   H623      1.0  0.13557  0.90566  0.76985  1.0000
  H   H624      1.0  0.13722  0.94010  0.77458  1.0000
  H   H625      1.0  0.04780  0.78107  0.80164  1.0000
  H   H626      1.0  0.15644  0.93573  0.79260  1.0000
  H   H627      1.0  0.09249  0.98045  0.97377  1.0000
  H   H628      1.0  0.09855  0.78828  0.79510  1.0000
  H   H629      1.0  0.19657  0.90937  0.98646  1.0000
  C   C400      1.0  0.05322  0.79052  0.81397  1.0000
  H   H630      1.0  0.00799  0.82656  0.77994  1.0000
  H   H631      1.0  0.22014  0.94427  0.98735  1.0000
  H   H632      1.0  0.04219  0.80179  0.81685  1.0000
  C   C401      1.0  0.21806  0.93551  0.00269  1.0000
  N   N38       1.0  0.19797  0.93290  0.00766  1.0000
  C   C402      1.0  0.22755  0.99309  0.76566  1.0000
  C   C403      1.0  0.08506  0.78286  0.80183  1.0000
  C   C404      1.0  0.07812  0.81058  0.82291  1.0000
  H   H633      1.0  0.13243  0.99370  0.98084  1.0000
  H   H634      1.0  0.30545  0.88868  0.98277  1.0000
  H   H635      1.0  0.15599  0.89227  0.76037  1.0000
  H   H636      1.0  0.15904  0.95131  0.76918  1.0000
  S   S167      1.0  0.33530  0.89686  0.89262  1.0000
  H   H637      1.0  0.06800  0.82254  0.82635  1.0000
  C   C405      1.0  0.11994  0.00237  0.98644  1.0000
  H   H638      1.0  0.19121  0.93190  0.97346  1.0000
  C   C406      1.0  0.00913  0.81149  0.77821  1.0000
  N   N39       1.0  0.07112  0.79837  0.80611  1.0000
  C   C407      1.0  0.31727  0.89678  0.97566  1.0000
  H   H639      1.0  0.32633  0.85980  0.98087  1.0000
  H   H640      1.0  0.05706  0.82082  0.78775  1.0000
  H   H641      1.0  0.32513  0.90193  0.98962  1.0000
  H   H642      1.0  0.09167  0.81660  0.81729  1.0000
  H   H643      1.0  0.18709  0.93282  0.75667  1.0000
  N   N40       1.0  0.24234  0.84503  0.80641  1.0000
  C   C408      1.0  0.25315  0.83120  0.79290  1.0000
  C   C409      1.0  0.22292  0.83901  0.80995  1.0000
  C   C410      1.0  0.24209  0.86358  0.79483  1.0000
  C   C411      1.0  0.25121  0.84640  0.82790  1.0000
  H   H644      1.0  0.26786  0.83537  0.78994  1.0000
  H   H645      1.0  0.24686  0.82993  0.77653  1.0000
  H   H646      1.0  0.25361  0.81701  0.80113  1.0000
  H   H647      1.0  0.21431  0.84922  0.81992  1.0000
  H   H648      1.0  0.21575  0.83802  0.79405  1.0000
  H   H649      1.0  0.22247  0.82508  0.81870  1.0000
  H   H650      1.0  0.23437  0.87429  0.80484  1.0000
  H   H651      1.0  0.23508  0.86332  0.77877  1.0000
  H   H652      1.0  0.25649  0.86864  0.79181  1.0000
  H   H653      1.0  0.24342  0.85676  0.83851  1.0000
  H   H654      1.0  0.26576  0.85130  0.82583  1.0000
  H   H655      1.0  0.25179  0.83267  0.83714  1.0000
  N   N41       1.0  0.15957  0.92201  0.76159  1.0000
  C   C412      1.0  0.15443  0.92560  0.73843  1.0000
  C   C413      1.0  0.15111  0.90458  0.77019  1.0000
  C   C414      1.0  0.15269  0.93798  0.77502  1.0000
  C   C415      1.0  0.18015  0.91988  0.76274  1.0000
  H   H656      1.0  0.16066  0.93864  0.73145  1.0000
  H   H657      1.0  0.13898  0.92727  0.73692  1.0000
  H   H658      1.0  0.15949  0.91380  0.72788  1.0000
  H   H659      1.0  0.15502  0.90125  0.78754  1.0000
  H   H660      1.0  0.32785  0.87009  0.93115  1.0000
  Fe  Fe84      1.0  0.13669  0.95143  0.00046  1.0000
  H   H661      1.0  0.24260  0.99384  0.76390  1.0000
  H   H662      1.0  0.08810  0.77440  0.81710  1.0000
  H   H663      1.0  0.06390  0.80051  0.77217  1.0000
  H   H664      1.0  0.08052  0.80266  0.83873  1.0000
  H   H665      1.0  0.07998  0.77314  0.78958  1.0000
  H   H666      1.0  0.17455  0.92155  0.99218  1.0000
  H   H667      1.0  0.32902  0.87830  0.85079  1.0000
  H   H668      1.0  0.01356  0.75765  0.77212  1.0000
  H   H669      1.0  0.11260  0.97874  0.95534  1.0000
  H   H670      1.0  0.31257  0.89055  0.93284  1.0000
  H   H671      1.0  0.18942  0.96059  0.99550  1.0000
  H   H672      1.0  0.22581  0.92180  0.00030  1.0000
  C   C416      1.0  0.31877  0.87854  0.94276  1.0000
  C   C417      1.0  0.10049  0.98817  0.96059  1.0000
  H   H673      1.0  0.30717  0.86968  0.94883  1.0000
  N   N42       1.0  0.32960  0.88514  0.96107  1.0000
  S   S168      1.0  0.10546  0.95173  0.00527  1.0000
  H   H674      1.0  0.11316  0.99460  0.00048  1.0000
  C   C418      1.0  0.19654  0.00508  0.75668  1.0000
  N   N43       1.0  0.10676  0.00616  0.96850  1.0000
  C   C419      1.0  0.21597  0.00640  0.75437  1.0000
  S   S169      1.0  0.62440  0.24399  0.20099  1.0000
  Fe  Fe85      1.0  0.62377  0.14001  0.14402  1.0000
  S   S170      1.0  0.60606  0.12327  0.12239  1.0000
  S   S171      1.0  0.60758  0.16739  0.15378  1.0000
  Fe  Fe86      1.0  0.65414  0.10825  0.14637  1.0000
  S   S172      1.0  0.63759  0.08963  0.12559  1.0000
  Fe  Fe87      1.0  0.63241  0.11503  0.10315  1.0000
  S   S173      1.0  0.63747  0.11220  0.06520  1.0000
  Fe  Fe88      1.0  0.61217  0.09883  0.14610  1.0000
  S   S174      1.0  0.58649  0.08094  0.15470  1.0000
  S   S175      1.0  0.65004  0.13348  0.12309  1.0000
  S   S176      1.0  0.62882  0.11577  0.16844  1.0000
  C   C420      1.0  0.60259  0.25221  0.11943  1.0000
  H   H675      1.0  0.61548  0.04224  0.09351  1.0000
  S   S177      1.0  0.55251  0.02976  0.23501  1.0000
  H   H676      1.0  0.60480  0.01006  0.27606  1.0000
  S   S178      1.0  0.46492  0.02883  0.28932  1.0000
  H   H677      1.0  0.39560  0.06179  0.31545  1.0000
  S   S179      1.0  0.52179  0.00956  0.28301  1.0000
  H   H678      1.0  0.35715  0.08229  0.31780  1.0000
  C   C421      1.0  0.45708  0.04220  0.31288  1.0000
  H   H679      1.0  0.60768  0.09401  0.08706  1.0000
  H   H680      1.0  0.37444  0.05294  0.30559  1.0000
  H   H681      1.0  0.61716  0.24726  0.11492  1.0000
  N   N44       1.0  0.59789  0.06626  0.08404  1.0000
  H   H682      1.0  0.38827  0.03916  0.32498  1.0000
  C   C422      1.0  0.57744  0.06670  0.17730  1.0000
  C   C423      1.0  0.55982  0.05884  0.17556  1.0000
  C   C424      1.0  0.55195  0.04761  0.19289  1.0000
  C   C425      1.0  0.56156  0.04401  0.21240  1.0000
  C   C426      1.0  0.57916  0.05194  0.21417  1.0000
  C   C427      1.0  0.58704  0.06314  0.19683  1.0000
  H   H683      1.0  0.55214  0.06143  0.16067  1.0000
  H   H684      1.0  0.53844  0.04171  0.19112  1.0000
  H   H685      1.0  0.58680  0.04936  0.22909  1.0000
  H   H686      1.0  0.60061  0.06892  0.19857  1.0000
  C   C428      1.0  0.64255  0.10983  0.01971  1.0000
  C   C429      1.0  0.62938  0.11119  0.03749  1.0000
  C   C430      1.0  0.61033  0.11144  0.03270  1.0000
  H   H687      1.0  0.65732  0.10959  0.02303  1.0000
  H   H688      1.0  0.59993  0.11269  0.04597  1.0000
  C   C431      1.0  0.61937  0.22287  0.18767  1.0000
  C   C432      1.0  0.63373  0.20887  0.18483  1.0000
  C   C433      1.0  0.63049  0.19190  0.17445  1.0000
  C   C434      1.0  0.61277  0.18866  0.16669  1.0000
  C   C435      1.0  0.59841  0.20270  0.16944  1.0000
  C   C436      1.0  0.60165  0.21967  0.17982  1.0000
  H   H689      1.0  0.64750  0.21112  0.19079  1.0000
  H   H690      1.0  0.64171  0.18133  0.17252  1.0000
  H   H691      1.0  0.58463  0.20039  0.16359  1.0000
  H   H692      1.0  0.59039  0.23016  0.18197  1.0000
  Fe  Fe89      1.0  0.52670  0.01252  0.24598  1.0000
  H   H693      1.0  0.43533  0.05734  0.29503  1.0000
  N   N45       1.0  0.37236  0.06250  0.33880  1.0000
  H   H694      1.0  0.58231  0.04114  0.08453  1.0000
  C   C437      1.0  0.59479  0.08606  0.09013  1.0000
  H   H695      1.0  0.60560  0.05077  0.05506  1.0000
  H   H696      1.0  0.57653  0.05655  0.10683  1.0000
  C   C438      1.0  0.61325  0.05741  0.09696  1.0000
  H   H697      1.0  0.42324  0.07605  0.32684  1.0000
  H   H698      1.0  0.59179  0.07215  0.04999  1.0000
  C   C439      1.0  0.60300  0.06550  0.06028  1.0000
  H   H699      1.0  0.61027  0.05857  0.11504  1.0000
  H   H700      1.0  0.59072  0.08720  0.10789  1.0000
  S   S180      1.0  0.49573  0.01529  0.24001  1.0000
  H   H701      1.0  0.34629  0.05110  0.33037  1.0000
  H   H702      1.0  0.62672  0.06420  0.09297  1.0000
  N   N46       1.0  0.57529  0.13223  0.19647  1.0000
  C   C440      1.0  0.55684  0.13813  0.20621  1.0000
  C   C441      1.0  0.58954  0.14514  0.20312  1.0000
  C   C442      1.0  0.57436  0.13279  0.17220  1.0000
  C   C443      1.0  0.58041  0.11285  0.20423  1.0000
  H   H703      1.0  0.54576  0.12871  0.20143  1.0000
  H   H704      1.0  0.55257  0.15270  0.20065  1.0000
  H   H705      1.0  0.55702  0.13782  0.22454  1.0000
  H   H706      1.0  0.60363  0.14122  0.19589  1.0000
  H   H707      1.0  0.58619  0.15986  0.19729  1.0000
  H   H708      1.0  0.59072  0.14512  0.22133  1.0000
  H   H709      1.0  0.58812  0.12858  0.16446  1.0000
  H   H710      1.0  0.57063  0.14721  0.16563  1.0000
  H   H711      1.0  0.56400  0.12300  0.16645  1.0000
  H   H712      1.0  0.59412  0.10780  0.19685  1.0000
  H   H713      1.0  0.56988  0.10278  0.19953  1.0000
  H   H714      1.0  0.58148  0.11182  0.22246  1.0000
  H   H715      1.0  0.56861  0.06257  0.07964  1.0000
  H   H716      1.0  0.49873  0.22127  0.31592  1.0000
  C   C444      1.0  0.38311  0.05369  0.32036  1.0000
  H   H717      1.0  0.47700  0.03006  0.33557  1.0000
  H   H718      1.0  0.51191  0.24008  0.30375  1.0000
  C   C445      1.0  0.58056  0.05616  0.08892  1.0000
  H   H719      1.0  0.58353  0.09333  0.08048  1.0000
  H   H720      1.0  0.59688  0.24168  0.13156  1.0000
  H   H721      1.0  0.61600  0.07317  0.05626  1.0000
  C   C446      1.0  0.36634  0.08195  0.33222  1.0000
  C   C447      1.0  0.50515  0.23476  0.31940  1.0000
  H   H722      1.0  0.51638  0.23165  0.33137  1.0000
  C   C448      1.0  0.43461  0.06573  0.32898  1.0000
  C   C449      1.0  0.44167  0.05518  0.31087  1.0000
  H   H723      1.0  0.37856  0.09063  0.32783  1.0000
  H   H724      1.0  0.59418  0.25206  0.10438  1.0000
  H   H725      1.0  0.46873  0.23928  0.30862  1.0000
  N   N47       1.0  0.49097  0.24858  0.32804  1.0000
  C   C450      1.0  0.60467  0.11017  0.01067  1.0000
  Fe  Fe90      1.0  0.49066  0.01047  0.27677  1.0000
  C   C451      1.0  0.47635  0.25219  0.31164  1.0000
  H   H726      1.0  0.44028  0.02366  0.21826  1.0000
  C   C452      1.0  0.46522  0.03993  0.33351  1.0000
  H   H727      1.0  0.56246  0.01043  0.27659  1.0000
  H   H728      1.0  0.59035  0.01452  0.25267  1.0000
  H   H729      1.0  0.45408  0.02182  0.24247  1.0000
  C   C453      1.0  0.44753  0.01355  0.22977  1.0000
  S   S181      1.0  0.43457  0.23765  0.33993  1.0000
  H   H730      1.0  0.42567  0.01839  0.26604  1.0000
  H   H731      1.0  0.41159  0.02050  0.24204  1.0000
  C   C454      1.0  0.41963  0.01032  0.25276  1.0000
  Fe  Fe91      1.0  0.36711  0.10640  0.64389  1.0000
  S   S182      1.0  0.38787  0.08884  0.62350  1.0000
  H   H732      1.0  0.44337  0.04740  0.59952  1.0000
  Fe  Fe92      1.0  0.39683  0.13437  0.65399  1.0000
  S   S183      1.0  0.41938  0.11864  0.63416  1.0000
  C   C455      1.0  0.38430  0.06282  0.35815  1.0000
  Fe  Fe93      1.0  0.39747  0.11606  0.60825  1.0000
  S   S184      1.0  0.40580  0.12168  0.57129  1.0000
  Fe  Fe94      1.0  0.40842  0.09224  0.65053  1.0000
  S   S185      1.0  0.37571  0.13365  0.62726  1.0000
  Fe  Fe95      1.0  0.39388  0.13683  0.39232  1.0000
  S   S186      1.0  0.41656  0.12036  0.41095  1.0000
  S   S187      1.0  0.39034  0.16867  0.38460  1.0000
  Fe  Fe96      1.0  0.36806  0.10326  0.39336  1.0000
  S   S188      1.0  0.38952  0.08517  0.41145  1.0000
  H   H733      1.0  0.45731  0.08375  0.55746  1.0000
  Fe  Fe97      1.0  0.39315  0.10951  0.43352  1.0000
  S   S189      1.0  0.38749  0.10239  0.47093  1.0000
  Fe  Fe98      1.0  0.41107  0.09692  0.38756  1.0000
  S   S190      1.0  0.43369  0.07555  0.37365  1.0000
  S   S191      1.0  0.37092  0.12709  0.41602  1.0000
  S   S192      1.0  0.38937  0.11388  0.36820  1.0000
  H   H734      1.0  0.41295  0.05907  0.56619  1.0000
  C   C456      1.0  0.34525  0.08702  0.44924  1.0000
  H   H735      1.0  0.42333  0.25358  0.62253  1.0000
  H   H736      1.0  0.38110  0.20821  0.37988  1.0000
  C   C457      1.0  0.40315  0.18759  0.37230  1.0000
  C   C458      1.0  0.39489  0.20593  0.37233  1.0000
  C   C459      1.0  0.44252  0.06321  0.34973  1.0000
  H   H737      1.0  0.33924  0.07590  0.43956  1.0000
  H   H738      1.0  0.42760  0.17100  0.36218  1.0000
  C   C460      1.0  0.42101  0.18495  0.36242  1.0000
  C   C461      1.0  0.35366  0.17394  0.65307  1.0000
  H   H739      1.0  0.47524  0.22778  0.34617  1.0000
  H   H740      1.0  0.40448  0.22177  0.64069  1.0000
  C   C462      1.0  0.40005  0.11635  0.54353  1.0000
  C   C463      1.0  0.38683  0.10326  0.53877  1.0000
  C   C464      1.0  0.38328  0.09922  0.51661  1.0000
  C   C465      1.0  0.39274  0.10821  0.49868  1.0000
  C   C466      1.0  0.40594  0.12130  0.50346  1.0000
  C   C467      1.0  0.40960  0.12523  0.52562  1.0000
  H   H741      1.0  0.37929  0.09624  0.55215  1.0000
  H   H742      1.0  0.37307  0.08904  0.51333  1.0000
  H   H743      1.0  0.41341  0.12840  0.49007  1.0000
  H   H744      1.0  0.41988  0.13536  0.52888  1.0000
  H   H745      1.0  0.35624  0.09350  0.43855  1.0000
  H   H746      1.0  0.35251  0.08023  0.46355  1.0000
  C   C468      1.0  0.40425  0.22139  0.36269  1.0000
  H   H747      1.0  0.38970  0.04851  0.36324  1.0000
  H   H748      1.0  0.35057  0.12294  0.45835  1.0000
  S   S193      1.0  0.41175  0.24784  0.67414  1.0000
  H   H749      1.0  0.39762  0.23532  0.36290  1.0000
  H   H750      1.0  0.44475  0.04397  0.57027  1.0000
  H   H751      1.0  0.37638  0.06879  0.37254  1.0000
  H   H752      1.0  0.34845  0.16628  0.63900  1.0000
  H   H753      1.0  0.40087  0.18723  0.64090  1.0000
  S   S194      1.0  0.34121  0.08727  0.38908  1.0000
  H   H754      1.0  0.43533  0.07906  0.61386  1.0000
  H   H755      1.0  0.47141  0.25110  0.35559  1.0000
  H   H756      1.0  0.41150  0.06170  0.59559  1.0000
  H   H757      1.0  0.46432  0.04813  0.36755  1.0000
  S   S195      1.0  0.42629  0.06539  0.66008  1.0000
  H   H758      1.0  0.40767  0.08170  0.57734  1.0000
  C   C469      1.0  0.42206  0.21874  0.35272  1.0000
  H   H759      1.0  0.43426  0.09436  0.55500  1.0000
  H   H760      1.0  0.39668  0.07151  0.35478  1.0000
  H   H761      1.0  0.43253  0.09873  0.59482  1.0000
  H   H762      1.0  0.45518  0.08759  0.59829  1.0000
  H   H763      1.0  0.49287  0.23823  0.36165  1.0000
  C   C470      1.0  0.41627  0.06842  0.57969  1.0000
  C   C471      1.0  0.44727  0.05412  0.58327  1.0000
  C   C472      1.0  0.40356  0.19403  0.65605  1.0000
  H   H764      1.0  0.46258  0.05631  0.58318  1.0000
  C   C473      1.0  0.44217  0.08075  0.55813  1.0000
  N   N48       1.0  0.43645  0.07204  0.57961  1.0000
  C   C474      1.0  0.44005  0.08488  0.59743  1.0000
  H   H765      1.0  0.43948  0.07157  0.54422  1.0000
  C   C475      1.0  0.45793  0.05024  0.35173  1.0000
  C   C476      1.0  0.48235  0.24108  0.34879  1.0000
  C   C477      1.0  0.40568  0.21367  0.65598  1.0000
  H   H766      1.0  0.34728  0.05789  0.35839  1.0000
  H   H767      1.0  0.36913  0.17143  0.65310  1.0000
  H   H768      1.0  0.35829  0.08905  0.34583  1.0000
  H   H769      1.0  0.34675  0.10976  0.48340  1.0000
  C   C478      1.0  0.43034  0.20040  0.35268  1.0000
  H   H770      1.0  0.44407  0.19808  0.34501  1.0000
  H   H771      1.0  0.35092  0.18924  0.64972  1.0000
  C   C479      1.0  0.35571  0.05157  0.34453  1.0000
  H   H772      1.0  0.35972  0.03687  0.34974  1.0000
  C   C480      1.0  0.33962  0.11587  0.46861  1.0000
  S   S196      1.0  0.38687  0.10791  0.67175  1.0000
  H   H773      1.0  0.44086  0.25551  0.60074  1.0000
  H   H774      1.0  0.44425  0.02943  0.67120  1.0000
  H   H775      1.0  0.34429  0.13878  0.66494  1.0000
  N   N49       1.0  0.34479  0.16767  0.67423  1.0000
  H   H776      1.0  0.64520  0.18419  0.94742  1.0000
  Fe  Fe99      1.0  0.64837  0.10388  0.88889  1.0000
  S   S197      1.0  0.62692  0.08509  0.90561  1.0000
  Fe  Fe100     1.0  0.62132  0.13847  0.88990  1.0000
  S   S198      1.0  0.59876  0.12128  0.90592  1.0000
  S   S199      1.0  0.61290  0.17002  0.89089  1.0000
  Fe  Fe101     1.0  0.62052  0.10892  0.92876  1.0000
  S   S200      1.0  0.60961  0.10742  0.96531  1.0000
  Fe  Fe102     1.0  0.60652  0.09867  0.88170  1.0000
  S   S201      1.0  0.58065  0.08496  0.86766  1.0000
  S   S202      1.0  0.64302  0.12678  0.91360  1.0000
  S   S203      1.0  0.62801  0.11667  0.86403  1.0000
  H   H777      1.0  0.56549  0.03555  0.94441  1.0000
  C   C481      1.0  0.58718  0.06535  0.94602  1.0000
  H   H778      1.0  0.59063  0.03846  0.91564  1.0000
  H   H779      1.0  0.60494  0.19466  0.96274  1.0000
  S   S204      1.0  0.55053  0.02137  0.80580  1.0000
  H   H780      1.0  0.41694  0.03524  0.75979  1.0000
  S   S205      1.0  0.48425  0.03820  0.73525  1.0000
  H   H781      1.0  0.55514  0.07729  0.90734  1.0000
  C   C482      1.0  0.44879  0.03920  0.68295  1.0000
  H   H782      1.0  0.63913  0.16662  0.92872  1.0000
  C   C483      1.0  0.44819  0.07048  0.69692  1.0000
  C   C484      1.0  0.46106  0.06411  0.71306  1.0000
  C   C485      1.0  0.46794  0.04525  0.71433  1.0000
  C   C486      1.0  0.46155  0.03279  0.69920  1.0000
  C   C487      1.0  0.58381  0.05211  0.91034  1.0000
  H   H783      1.0  0.44324  0.08505  0.69620  1.0000
  H   H784      1.0  0.46576  0.07397  0.72460  1.0000
  Fe  Fe103     1.0  0.49892  0.01164  0.75111  1.0000
  H   H785      1.0  0.55136  0.05591  0.95229  1.0000
  H   H786      1.0  0.54894  0.04619  0.92566  1.0000
  H   H787      1.0  0.41369  0.21896  0.71016  1.0000
  H   H788      1.0  0.60374  0.17776  0.98532  1.0000
  H   H789      1.0  0.62545  0.18813  0.93004  1.0000
  H   H790      1.0  0.59599  0.15295  0.95961  1.0000
  C   C488      1.0  0.57277  0.06708  0.85033  1.0000
  C   C489      1.0  0.55336  0.06502  0.84850  1.0000
  C   C490      1.0  0.54633  0.05110  0.83528  1.0000
  C   C491      1.0  0.55860  0.03892  0.82348  1.0000
  C   C492      1.0  0.57801  0.04094  0.82535  1.0000
  C   C493      1.0  0.58505  0.05483  0.83866  1.0000
  H   H791      1.0  0.54365  0.07430  0.85740  1.0000
  H   H792      1.0  0.53140  0.04974  0.83433  1.0000
  H   H793      1.0  0.58772  0.03167  0.81641  1.0000
  H   H794      1.0  0.59999  0.05608  0.83978  1.0000
  C   C494      1.0  0.61785  0.10884  0.99289  1.0000
  H   H795      1.0  0.58990  0.11040  0.00736  1.0000
  H   H796      1.0  0.59432  0.05221  0.95243  1.0000
  H   H797      1.0  0.64731  0.10767  0.98436  1.0000
  H   H798      1.0  0.59493  0.06094  0.90287  1.0000
  C   C495      1.0  0.61094  0.22268  0.84384  1.0000
  C   C496      1.0  0.61919  0.20552  0.83663  1.0000
  C   C497      1.0  0.61974  0.18922  0.85057  1.0000
  C   C498      1.0  0.61215  0.18989  0.87209  1.0000
  C   C499      1.0  0.60392  0.20705  0.87933  1.0000
  C   C500      1.0  0.60323  0.22330  0.86532  1.0000
  H   H799      1.0  0.62524  0.20483  0.82009  1.0000
  H   H800      1.0  0.62616  0.17623  0.84470  1.0000
  H   H801      1.0  0.59798  0.20780  0.89589  1.0000
  H   H802      1.0  0.59688  0.23634  0.87118  1.0000
  C   C501      1.0  0.40858  0.19254  0.69515  1.0000
  H   H803      1.0  0.55683  0.08684  0.93430  1.0000
  C   C502      1.0  0.41086  0.21216  0.69504  1.0000
  H   H804      1.0  0.43841  0.02898  0.79085  1.0000
  H   H805      1.0  0.57546  0.08920  0.91414  1.0000
  C   C503      1.0  0.55924  0.04925  0.93827  1.0000
  H   H806      1.0  0.46668  0.01828  0.69970  1.0000
  H   H807      1.0  0.57420  0.04940  0.89685  1.0000
  H   H808      1.0  0.40972  0.18447  0.71048  1.0000
  H   H809      1.0  0.59686  0.17017  0.93711  1.0000
  H   H810      1.0  0.62452  0.19073  0.98033  1.0000
  C   C504      1.0  0.56484  0.07947  0.92090  1.0000
  H   H811      1.0  0.62293  0.14812  0.98398  1.0000
  H   H812      1.0  0.61081  0.14884  0.93581  1.0000
  H   H813      1.0  0.59827  0.07467  0.93943  1.0000
  H   H814      1.0  0.36732  0.17630  0.69357  1.0000
  H   H815      1.0  0.58017  0.07267  0.96018  1.0000
  N   N50       1.0  0.57378  0.06154  0.92889  1.0000
  N   N51       1.0  0.53442  0.06552  0.76101  1.0000
  C   C505      1.0  0.52155  0.05719  0.77776  1.0000
  C   C506      1.0  0.53502  0.08593  0.76429  1.0000
  C   C507      1.0  0.52768  0.06224  0.73878  1.0000
  C   C508      1.0  0.55339  0.05668  0.76331  1.0000
  H   H816      1.0  0.52136  0.04174  0.77622  1.0000
  H   H817      1.0  0.50692  0.06293  0.77605  1.0000
  H   H818      1.0  0.52595  0.05971  0.79476  1.0000
  H   H819      1.0  0.54458  0.09271  0.75189  1.0000
  H   H820      1.0  0.52090  0.09300  0.76281  1.0000
  H   H821      1.0  0.54011  0.08883  0.78093  1.0000
  H   H822      1.0  0.52689  0.04697  0.73585  1.0000
  H   H823      1.0  0.53704  0.06827  0.72563  1.0000
  H   H824      1.0  0.51332  0.06859  0.73653  1.0000
  H   H825      1.0  0.56354  0.06256  0.75096  1.0000
  H   H826      1.0  0.55342  0.04122  0.76115  1.0000
  H   H827      1.0  0.55880  0.05874  0.78000  1.0000
  N   N52       1.0  0.62092  0.16886  0.95755  1.0000
  C   C509      1.0  0.63178  0.15456  0.97059  1.0000
  C   C510      1.0  0.61319  0.18366  0.97217  1.0000
  C   C511      1.0  0.60541  0.15986  0.94716  1.0000
  C   C512      1.0  0.63325  0.17734  0.94028  1.0000
  H   H828      1.0  0.63735  0.14289  0.96014  1.0000
  C   C513      1.0  0.44202  0.05810  0.68156  1.0000
  H   H829      1.0  0.64388  0.16067  0.97834  1.0000
  C   C514      1.0  0.63688  0.10876  0.99764  1.0000
  S   S206      1.0  0.61106  0.24283  0.82545  1.0000
  H   H830      1.0  0.36474  0.14461  0.67915  1.0000
  H   H831      1.0  0.34900  0.19388  0.68962  1.0000
  C   C515      1.0  0.35188  0.17851  0.69229  1.0000
  H   H832      1.0  0.41768  0.01960  0.73708  1.0000
  C   C516      1.0  0.42625  0.02565  0.74980  1.0000
  S   S207      1.0  0.49608  0.01242  0.78818  1.0000
  H   H833      1.0  0.34546  0.17427  0.70852  1.0000
  H   H834      1.0  0.45414  0.00866  0.79072  1.0000
  H   H835      1.0  0.34297  0.14227  0.69414  1.0000
  C   C517      1.0  0.34936  0.14745  0.67827  1.0000
  H   H836      1.0  0.43678  0.03442  0.74093  1.0000
  H   H837      1.0  0.45803  0.02798  0.77162  1.0000
  C   C518      1.0  0.44699  0.01951  0.77995  1.0000
  S   S208      1.0  0.40158  0.15853  0.67724  1.0000
  H   H838      1.0  0.41180  0.00843  0.78638  1.0000
  N   N53       1.0  0.43543  0.01079  0.76374  1.0000
  C   C519      1.0  0.40940  0.22292  0.67544  1.0000
  C   C520      1.0  0.40499  0.18329  0.67569  1.0000
  S   S209      1.0  0.53041  0.00646  0.75153  1.0000
  Fe  Fe104     1.0  0.59477  0.30944  0.18835  1.0000
  S   S210      1.0  0.62133  0.29770  0.20342  1.0000
  S   S211      1.0  0.60109  0.32387  0.15498  1.0000
  Fe  Fe105     1.0  0.57059  0.29225  0.22558  1.0000
  S   S212      1.0  0.59574  0.27918  0.24261  1.0000
  S   S213      1.0  0.54040  0.28460  0.23438  1.0000
  Fe  Fe106     1.0  0.60893  0.30725  0.23583  1.0000
  S   S214      1.0  0.62683  0.31777  0.26357  1.0000
  Fe  Fe107     1.0  0.60644  0.27073  0.20886  1.0000
  S   S215      1.0  0.58301  0.32082  0.22056  1.0000
  S   S216      1.0  0.58066  0.28198  0.19213  1.0000
  Fe  Fe108     1.0  0.55315  0.36610  0.04595  1.0000
  H   H839      1.0  0.65588  0.30646  0.23350  1.0000
  S   S217      1.0  0.54560  0.35454  0.08053  1.0000
  C   C521      1.0  0.34910  0.44408  0.09649  1.0000
  C   C522      1.0  0.34635  0.35122  0.26588  1.0000
  S   S218      1.0  0.54990  0.39723  0.03856  1.0000
  Fe  Fe109     1.0  0.37248  0.45336  0.04430  1.0000
  H   H840      1.0  0.37068  0.33804  0.20848  1.0000
  N   N54       1.0  0.63825  0.38645  0.33642  1.0000
  H   H841      1.0  0.38418  0.38837  0.01224  1.0000
  H   H842      1.0  0.35483  0.45534  0.19054  1.0000
  C   C523      1.0  0.64884  0.27078  0.24541  1.0000
  H   H843      1.0  0.36484  0.35168  0.17158  1.0000
  H   H844      1.0  0.45214  0.37408  0.02237  1.0000
  S   S219      1.0  0.40396  0.45481  0.04176  1.0000
  S   S220      1.0  0.35281  0.45977  0.07372  1.0000
  H   H845      1.0  0.63750  0.28087  0.25104  1.0000
  Fe  Fe110     1.0  0.45200  0.30269  0.31987  1.0000
  S   S221      1.0  0.43306  0.28381  0.30292  1.0000
  S   S222      1.0  0.48176  0.31108  0.31037  1.0000
  Fe  Fe111     1.0  0.40953  0.30452  0.31280  1.0000
  S   S223      1.0  0.38432  0.31234  0.29112  1.0000
  S   S224      1.0  0.42886  0.32450  0.32728  1.0000
  C   C524      1.0  0.35387  0.36849  0.26997  1.0000
  C   C525      1.0  0.37102  0.36849  0.28069  1.0000
  C   C526      1.0  0.38067  0.35152  0.28697  1.0000
  C   C527      1.0  0.37318  0.33425  0.28286  1.0000
  C   C528      1.0  0.35598  0.33424  0.27223  1.0000
  H   H846      1.0  0.48607  0.37663  0.01277  1.0000
  H   H847      1.0  0.37698  0.38175  0.28400  1.0000
  H   H848      1.0  0.39397  0.35183  0.29486  1.0000
  H   H849      1.0  0.34996  0.32098  0.26904  1.0000
  S   S225      1.0  0.57944  0.36294  0.02486  1.0000
  H   H850      1.0  0.62484  0.28062  0.10771  1.0000
  C   C529      1.0  0.47691  0.38912  0.01318  1.0000
  H   H851      1.0  0.36864  0.39772  0.19791  1.0000
  N   N55       1.0  0.66725  0.27943  0.24449  1.0000
  C   C530      1.0  0.36018  0.41989  0.12268  1.0000
  C   C531      1.0  0.36295  0.43085  0.10321  1.0000
  S   S226      1.0  0.59720  0.49527  0.04191  1.0000
  H   H852      1.0  0.62480  0.41395  0.33279  1.0000
  H   H853      1.0  0.37598  0.42946  0.09372  1.0000
  Fe  Fe112     1.0  0.53261  0.38924  0.01043  1.0000
  Fe  Fe113     1.0  0.42863  0.26965  0.33652  1.0000
  H   H854      1.0  0.35313  0.32772  0.32285  1.0000
  H   H855      1.0  0.57292  0.46494  0.05012  1.0000
  H   H856      1.0  0.35684  0.45813  0.14983  1.0000
  S   S227      1.0  0.53439  0.35822  0.01883  1.0000
  C   C532      1.0  0.36162  0.36559  0.17892  1.0000
  H   H857      1.0  0.61334  0.38440  0.31791  1.0000
  C   C533      1.0  0.58381  0.46020  0.03854  1.0000
  H   H858      1.0  0.34546  0.50523  0.17287  1.0000
  C   C534      1.0  0.52429  0.29244  0.25549  1.0000
  C   C535      1.0  0.52921  0.30469  0.27164  1.0000
  C   C536      1.0  0.51596  0.31033  0.28816  1.0000
  C   C537      1.0  0.49763  0.30388  0.28873  1.0000
  C   C538      1.0  0.49268  0.29168  0.27257  1.0000
  C   C539      1.0  0.50597  0.28595  0.25613  1.0000
  H   H859      1.0  0.54321  0.30982  0.27139  1.0000
  H   H860      1.0  0.51994  0.31979  0.30056  1.0000
  H   H861      1.0  0.47859  0.28683  0.27257  1.0000
  H   H862      1.0  0.50198  0.27656  0.24365  1.0000
  C   C540      1.0  0.58533  0.33222  0.13454  1.0000
  C   C541      1.0  0.56593  0.33135  0.13759  1.0000
  C   C542      1.0  0.55400  0.33815  0.12083  1.0000
  C   C543      1.0  0.56131  0.34576  0.10083  1.0000
  C   C544      1.0  0.58072  0.34638  0.09768  1.0000
  C   C545      1.0  0.59264  0.33967  0.11448  1.0000
  H   H863      1.0  0.56010  0.32569  0.15294  1.0000
  H   H864      1.0  0.53900  0.33761  0.12344  1.0000
  H   H865      1.0  0.58654  0.35225  0.08243  1.0000
  H   H866      1.0  0.60763  0.34045  0.11198  1.0000
  C   C546      1.0  0.64189  0.33685  0.26678  1.0000
  C   C547      1.0  0.64355  0.35159  0.25114  1.0000
  C   C548      1.0  0.65545  0.36645  0.25472  1.0000
  H   H867      1.0  0.44365  0.43381  0.01303  1.0000
  C   C549      1.0  0.61188  0.46610  0.01657  1.0000
  H   H868      1.0  0.63548  0.35172  0.23638  1.0000
  C   C550      1.0  0.44561  0.40380  0.01847  1.0000
  H   H869      1.0  0.39975  0.36811  0.21042  1.0000
  C   C551      1.0  0.58387  0.44178  0.03092  1.0000
  S   S228      1.0  0.37237  0.42591  0.02762  1.0000
  Fe  Fe114     1.0  0.40335  0.42855  0.02226  1.0000
  C   C552      1.0  0.45769  0.38769  0.01845  1.0000
  H   H870      1.0  0.36561  0.37657  0.16639  1.0000
  H   H871      1.0  0.63489  0.38131  0.30213  1.0000
  H   H872      1.0  0.57309  0.43248  0.03663  1.0000
  C   C553      1.0  0.59783  0.47239  0.03149  1.0000
  H   H873      1.0  0.35134  0.35229  0.21924  1.0000
  H   H874      1.0  0.57380  0.27825  0.11956  1.0000
  H   H875      1.0  0.65745  0.36238  0.33833  1.0000
  H   H876      1.0  0.62809  0.26582  0.14527  1.0000
  N   N56       1.0  0.60212  0.27113  0.12873  1.0000
  H   H877      1.0  0.66357  0.49068  0.16239  1.0000
  H   H878      1.0  0.36222  0.47896  0.19274  1.0000
  C   C554      1.0  0.63903  0.40699  0.33263  1.0000
  C   C555      1.0  0.65259  0.33710  0.28582  1.0000
  H   H879      1.0  0.34614  0.36720  0.18162  1.0000
  N   N57       1.0  0.49731  0.39338  0.07613  1.0000
  C   C556      1.0  0.51421  0.40355  0.08078  1.0000
  C   C557      1.0  0.49107  0.38286  0.09622  1.0000
  C   C558      1.0  0.50176  0.38007  0.05841  1.0000
  C   C559      1.0  0.48229  0.40697  0.06903  1.0000
  H   H880      1.0  0.52611  0.39362  0.08517  1.0000
  H   H881      1.0  0.51162  0.41321  0.09467  1.0000
  H   H882      1.0  0.51887  0.41219  0.06617  1.0000
  H   H883      1.0  0.47843  0.37489  0.09321  1.0000
  H   H884      1.0  0.50224  0.37253  0.10184  1.0000
  H   H885      1.0  0.48756  0.39242  0.11001  1.0000
  H   H886      1.0  0.48924  0.37248  0.05403  1.0000
  H   H887      1.0  0.51264  0.36928  0.06333  1.0000
  H   H888      1.0  0.50719  0.38743  0.04326  1.0000
  H   H889      1.0  0.46941  0.39979  0.06491  1.0000
  H   H890      1.0  0.48674  0.41517  0.05395  1.0000
  H   H891      1.0  0.47840  0.41720  0.08202  1.0000
  H   H892      1.0  0.66547  0.38165  0.32119  1.0000
  C   C560      1.0  0.66603  0.36680  0.27385  1.0000
  H   H893      1.0  0.37300  0.38774  0.22507  1.0000
  S   S229      1.0  0.34134  0.40875  0.16065  1.0000
  C   C561      1.0  0.35203  0.47316  0.15115  1.0000
  N   N58       1.0  0.37150  0.36751  0.19966  1.0000
  C   C562      1.0  0.61328  0.27052  0.14879  1.0000
  C   C563      1.0  0.36667  0.35201  0.21527  1.0000
  C   C564      1.0  0.36575  0.38567  0.20945  1.0000
  C   C565      1.0  0.39192  0.36680  0.19504  1.0000
  H   H894      1.0  0.34474  0.47718  0.13565  1.0000
  Fe  Fe115     1.0  0.57455  0.39345  0.01508  1.0000
  C   C566      1.0  0.34982  0.47035  0.19091  1.0000
  H   H895      1.0  0.61341  0.28459  0.15618  1.0000
  H   H896      1.0  0.39673  0.35330  0.18754  1.0000
  C   C567      1.0  0.58254  0.27714  0.13438  1.0000
  C   C568      1.0  0.66470  0.35179  0.28923  1.0000
  H   H897      1.0  0.58172  0.29121  0.14189  1.0000
  H   H898      1.0  0.62731  0.36287  0.32061  1.0000
  H   H899      1.0  0.64507  0.26601  0.22895  1.0000
  H   H900      1.0  0.37116  0.41002  0.12800  1.0000
  H   H901      1.0  0.65158  0.32575  0.29802  1.0000
  H   H902      1.0  0.64597  0.41047  0.31640  1.0000
  H   H903      1.0  0.66373  0.29132  0.21179  1.0000
  H   H904      1.0  0.50656  0.27240  0.31688  1.0000
  H   H905      1.0  0.39603  0.37843  0.18343  1.0000
  H   H906      1.0  0.35049  0.38647  0.21361  1.0000
  C   C569      1.0  0.61007  0.28466  0.11239  1.0000
  H   H907      1.0  0.37396  0.35299  0.23107  1.0000
  S   S230      1.0  0.34252  0.39046  0.26243  1.0000
  C   C570      1.0  0.34349  0.42188  0.13545  1.0000
  S   S231      1.0  0.42160  0.40174  0.02527  1.0000
  H   H908      1.0  0.60188  0.28570  0.09712  1.0000
  H   H909      1.0  0.62273  0.47540  0.01101  1.0000
  H   H910      1.0  0.36468  0.48162  0.15155  1.0000
  C   C571      1.0  0.62794  0.37841  0.31853  1.0000
  C   C572      1.0  0.59811  0.43532  0.01636  1.0000
  H   H911      1.0  0.60998  0.29904  0.11907  1.0000
  H   H912      1.0  0.48961  0.27716  0.33852  1.0000
  C   C573      1.0  0.66684  0.29565  0.22866  1.0000
  H   H913      1.0  0.66059  0.29637  0.27253  1.0000
  Fe  Fe116     1.0  0.39895  0.46993  0.00914  1.0000
  C   C574      1.0  0.61207  0.44757  0.00915  1.0000
  H   H914      1.0  0.46573  0.26289  0.31745  1.0000
  C   C575      1.0  0.66295  0.50396  0.17158  1.0000
  H   H915      1.0  0.34976  0.35239  0.32713  1.0000
  S   S232      1.0  0.36750  0.47030  0.01275  1.0000
  H   H916      1.0  0.66041  0.50022  0.18935  1.0000
  H   H917      1.0  0.57595  0.26715  0.14645  1.0000
  H   H918      1.0  0.65639  0.37785  0.24257  1.0000
  C   C576      1.0  0.49997  0.26632  0.33223  1.0000
  C   C577      1.0  0.65745  0.37795  0.33658  1.0000
  C   C578      1.0  0.45283  0.42131  0.01313  1.0000
  H   H919      1.0  0.64863  0.25835  0.25696  1.0000
  H   H920      1.0  0.34069  0.47200  0.20603  1.0000
  N   N59       1.0  0.33961  0.47603  0.17084  1.0000
  H   H921      1.0  0.53037  0.50060  0.01886  1.0000
  H   H922      1.0  0.60755  0.26062  0.16158  1.0000
  H   H923      1.0  0.48234  0.25748  0.29561  1.0000
  H   H924      1.0  0.38271  0.35486  0.33562  1.0000
  H   H925      1.0  0.38691  0.33028  0.33117  1.0000
  C   C579      1.0  0.34987  0.33831  0.33568  1.0000
  H   H926      1.0  0.56366  0.49183  0.00935  1.0000
  C   C580      1.0  0.48417  0.40671  0.00821  1.0000
  Fe  Fe117     1.0  0.61837  0.46925  0.52912  1.0000
  S   S233      1.0  0.60565  0.44279  0.54225  1.0000
  H   H927      1.0  0.53335  0.48376  0.49288  1.0000
  Fe  Fe118     1.0  0.64494  0.44766  0.49776  1.0000
  S   S234      1.0  0.63430  0.41960  0.50888  1.0000
  C   C581      1.0  0.62442  0.49614  0.60591  1.0000
  Fe  Fe119     1.0  0.60583  0.43427  0.50725  1.0000
  S   S235      1.0  0.58143  0.42212  0.49071  1.0000
  Fe  Fe120     1.0  0.63508  0.43063  0.54322  1.0000
  S   S236      1.0  0.64079  0.41272  0.57415  1.0000
  S   S237      1.0  0.61638  0.46165  0.49379  1.0000
  S   S238      1.0  0.64790  0.45771  0.53246  1.0000
  H   H928      1.0  0.63293  0.45082  0.59149  1.0000
  Fe  Fe121     1.0  0.44818  0.36559  0.54091  1.0000
  S   S239      1.0  0.43646  0.37176  0.50729  1.0000
  S   S240      1.0  0.42875  0.35144  0.56623  1.0000
  Fe  Fe122     1.0  0.48415  0.38538  0.52891  1.0000
  S   S241      1.0  0.47530  0.39319  0.49464  1.0000
  S   S242      1.0  0.50988  0.39505  0.54524  1.0000
  Fe  Fe123     1.0  0.44725  0.40060  0.51038  1.0000
  S   S243      1.0  0.42936  0.42507  0.49690  1.0000
  Fe  Fe124     1.0  0.46513  0.36376  0.49383  1.0000
  S   S244      1.0  0.47184  0.34782  0.46233  1.0000
  S   S245      1.0  0.45671  0.39518  0.54483  1.0000
  S   S246      1.0  0.47628  0.35520  0.52727  1.0000
  Fe  Fe125     1.0  0.42432  0.30802  0.35912  1.0000
  H   H929      1.0  0.44025  0.41830  0.40437  1.0000
  S   S247      1.0  0.41528  0.32308  0.39065  1.0000
  H   H930      1.0  0.42000  0.27059  0.60032  1.0000
  H   H931      1.0  0.38016  0.48920  0.60211  1.0000
  C   C582      1.0  0.45580  0.33997  0.44329  1.0000
  C   C583      1.0  0.46279  0.33260  0.42330  1.0000
  C   C584      1.0  0.45059  0.32715  0.40716  1.0000
  C   C585      1.0  0.43120  0.32907  0.41082  1.0000
  C   C586      1.0  0.42419  0.33640  0.43085  1.0000
  C   C587      1.0  0.43640  0.34169  0.44707  1.0000
  H   H932      1.0  0.47776  0.33115  0.42021  1.0000
  H   H933      1.0  0.45621  0.32154  0.39185  1.0000
  H   H934      1.0  0.40922  0.33779  0.43393  1.0000
  H   H935      1.0  0.43080  0.34703  0.46251  1.0000
  C   C588      1.0  0.42522  0.44583  0.51178  1.0000
  C   C589      1.0  0.41483  0.46093  0.50212  1.0000
  C   C590      1.0  0.41103  0.47759  0.51354  1.0000
  C   C591      1.0  0.41742  0.47919  0.53486  1.0000
  C   C592      1.0  0.42770  0.46403  0.54462  1.0000
  C   C593      1.0  0.43173  0.44746  0.53306  1.0000
  H   H936      1.0  0.40975  0.45980  0.48567  1.0000
  H   H937      1.0  0.40310  0.48918  0.50587  1.0000
  H   H938      1.0  0.43282  0.46525  0.56104  1.0000
  H   H939      1.0  0.43999  0.43604  0.54053  1.0000
  C   C594      1.0  0.44362  0.33661  0.63799  1.0000
  C   C595      1.0  0.45717  0.34386  0.62312  1.0000
  C   C596      1.0  0.45279  0.34864  0.60115  1.0000
  C   C597      1.0  0.43478  0.34619  0.59385  1.0000
  C   C598      1.0  0.42112  0.33928  0.60881  1.0000
  C   C599      1.0  0.42546  0.33467  0.63083  1.0000
  H   H940      1.0  0.47121  0.34559  0.62857  1.0000
  H   H941      1.0  0.46343  0.35401  0.58983  1.0000
  H   H942      1.0  0.40710  0.33749  0.60335  1.0000
  H   H943      1.0  0.41477  0.32963  0.64229  1.0000
  H   H944      1.0  0.40205  0.43332  0.56559  1.0000
  H   H945      1.0  0.59041  0.49695  0.49995  1.0000
  H   H946      1.0  0.33985  0.50460  0.61200  1.0000
  H   H947      1.0  0.66777  0.41065  0.64768  1.0000
  S   S248      1.0  0.45023  0.32989  0.66510  1.0000
  C   C600      1.0  0.65615  0.42651  0.44203  1.0000
  H   H948      1.0  0.64493  0.42362  0.45386  1.0000
  S   S249      1.0  0.66809  0.45182  0.47180  1.0000
  C   C601      1.0  0.56104  0.41576  0.50578  1.0000
  C   C602      1.0  0.54720  0.40647  0.49513  1.0000
  C   C603      1.0  0.53118  0.40044  0.50691  1.0000
  C   C604      1.0  0.52898  0.40360  0.52946  1.0000
  C   C605      1.0  0.54269  0.41316  0.54001  1.0000
  C   C606      1.0  0.55862  0.41931  0.52821  1.0000
  H   H949      1.0  0.54899  0.40368  0.47776  1.0000
  H   H950      1.0  0.52074  0.39300  0.49866  1.0000
  H   H951      1.0  0.54098  0.41569  0.55745  1.0000
  H   H952      1.0  0.56909  0.42657  0.53655  1.0000
  C   C607      1.0  0.45382  0.26805  0.63835  1.0000
  C   C608      1.0  0.65726  0.41899  0.59349  1.0000
  H   H953      1.0  0.41759  0.27884  0.64826  1.0000
  C   C609      1.0  0.43710  0.38935  0.44971  1.0000
  N   N60       1.0  0.44004  0.27776  0.62384  1.0000
  H   H954      1.0  0.46147  0.27828  0.64771  1.0000
  H   H955      1.0  0.37970  0.42305  0.56455  1.0000
  H   H956      1.0  0.57056  0.46076  0.49674  1.0000
  H   H957      1.0  0.66539  0.38294  0.35045  1.0000
  S   S250      1.0  0.44873  0.28780  0.35298  1.0000
  H   H958      1.0  0.36858  0.49043  0.62889  1.0000
  C   C610      1.0  0.40648  0.39929  0.54841  1.0000
  C   C611      1.0  0.36401  0.31754  0.36322  1.0000
  S   S251      1.0  0.60491  0.49433  0.54631  1.0000
  C   C612      1.0  0.42027  0.40309  0.58369  1.0000
  H   H959      1.0  0.46046  0.28357  0.59796  1.0000
  H   H960      1.0  0.64324  0.48757  0.56838  1.0000
  N   N61       1.0  0.44688  0.39858  0.43079  1.0000
  C   C613      1.0  0.62870  0.38248  0.35792  1.0000
  H   H961      1.0  0.44693  0.38002  0.45927  1.0000
  H   H962      1.0  0.39346  0.39960  0.53889  1.0000
  C   C614      1.0  0.45506  0.38412  0.41593  1.0000
  H   H963      1.0  0.42981  0.41385  0.57673  1.0000
  H   H964      1.0  0.61358  0.49361  0.61912  1.0000
  H   H965      1.0  0.39712  0.37480  0.58109  1.0000
  C   C615      1.0  0.42590  0.28832  0.63737  1.0000
  N   N62       1.0  0.59597  0.37363  0.54392  1.0000
  C   C616      1.0  0.59869  0.35380  0.53770  1.0000
  C   C617      1.0  0.60932  0.37776  0.56097  1.0000
  C   C618      1.0  0.57660  0.37707  0.55262  1.0000
  C   C619      1.0  0.59927  0.38597  0.52429  1.0000
  H   H966      1.0  0.58881  0.35033  0.52481  1.0000
  H   H967      1.0  0.59633  0.34405  0.55212  1.0000
  H   H968      1.0  0.61317  0.35078  0.53101  1.0000
  H   H969      1.0  0.60742  0.39257  0.56621  1.0000
  H   H970      1.0  0.60755  0.36854  0.57595  1.0000
  H   H971      1.0  0.62412  0.37588  0.55480  1.0000
  H   H972      1.0  0.56611  0.37498  0.53986  1.0000
  H   H973      1.0  0.57431  0.39173  0.55822  1.0000
  H   H974      1.0  0.57332  0.36753  0.56696  1.0000
  H   H975      1.0  0.58923  0.38361  0.51115  1.0000
  H   H976      1.0  0.61364  0.38360  0.51703  1.0000
  H   H977      1.0  0.59764  0.40104  0.52846  1.0000
  N   N63       1.0  0.40254  0.40345  0.57183  1.0000
  H   H978      1.0  0.39007  0.42600  0.59072  1.0000
  C   C620      1.0  0.65760  0.41699  0.42202  1.0000
  H   H979      1.0  0.41779  0.40580  0.60150  1.0000
  H   H980      1.0  0.42789  0.38914  0.58264  1.0000
  H   H981      1.0  0.64743  0.40680  0.41864  1.0000
  H   H982      1.0  0.54285  0.50311  0.47712  1.0000
  H   H983      1.0  0.42699  0.42205  0.42966  1.0000
  C   C621      1.0  0.65639  0.41116  0.61504  1.0000
  C   C622      1.0  0.54634  0.48898  0.48463  1.0000
  H   H984      1.0  0.38703  0.39178  0.59962  1.0000
  H   H985      1.0  0.65945  0.49431  0.58830  1.0000
  C   C623      1.0  0.39314  0.42229  0.57329  1.0000
  H   H986      1.0  0.42575  0.38059  0.44429  1.0000
  H   H987      1.0  0.51102  0.26424  0.34460  1.0000
  C   C624      1.0  0.46197  0.40977  0.43889  1.0000
  C   C625      1.0  0.35861  0.35048  0.37040  1.0000
  H   H988      1.0  0.55030  0.47934  0.47099  1.0000
  C   C626      1.0  0.43338  0.41104  0.41877  1.0000
  H   H989      1.0  0.35036  0.31436  0.37148  1.0000
  H   H990      1.0  0.46919  0.41759  0.42519  1.0000
  H   H991      1.0  0.46580  0.37493  0.42436  1.0000
  H   H992      1.0  0.58316  0.48755  0.47482  1.0000
  H   H993      1.0  0.45642  0.42015  0.45111  1.0000
  C   C627      1.0  0.65018  0.48299  0.58393  1.0000
  H   H994      1.0  0.46203  0.39053  0.40105  1.0000
  H   H995      1.0  0.43068  0.39979  0.46125  1.0000
  H   H996      1.0  0.39323  0.33988  0.35655  1.0000
  H   H997      1.0  0.43971  0.29881  0.59756  1.0000
  H   H998      1.0  0.42181  0.40297  0.41252  1.0000
  H   H999      1.0  0.36695  0.30682  0.35049  1.0000
  C   C628      1.0  0.66928  0.43965  0.44670  1.0000
  N   N64       1.0  0.63626  0.47899  0.60182  1.0000
  N   N65       1.0  0.56159  0.48972  0.50033  1.0000
  H   H1000     1.0  0.35835  0.36513  0.36340  1.0000
  H   H1001     1.0  0.44423  0.37475  0.41033  1.0000
  H   H1002     1.0  0.61699  0.50107  0.59080  1.0000
  H   H1003     1.0  0.41340  0.38511  0.54664  1.0000
  H   H1004     1.0  0.65932  0.47034  0.58031  1.0000
  H   H1005     1.0  0.64707  0.41346  0.34559  1.0000
  H   H1006     1.0  0.64598  0.40105  0.61947  1.0000
  C   C629      1.0  0.62439  0.46382  0.59526  1.0000
  H   H1007     1.0  0.37684  0.38884  0.57330  1.0000
  H   H1008     1.0  0.47278  0.40060  0.44721  1.0000
  H   H1009     1.0  0.61397  0.46010  0.60850  1.0000
  H   H1010     1.0  0.41587  0.40964  0.54029  1.0000
  H   H1011     1.0  0.37507  0.31552  0.37570  1.0000
  C   C630      1.0  0.39029  0.38915  0.58191  1.0000
  N   N66       1.0  0.36370  0.33676  0.35326  1.0000
  H   H1012     1.0  0.62807  0.36711  0.36144  1.0000
  H   H1013     1.0  0.44686  0.25846  0.65064  1.0000
  H   H1014     1.0  0.61659  0.46795  0.58021  1.0000
  C   C631      1.0  0.64600  0.47302  0.62214  1.0000
  H   H1015     1.0  0.41583  0.29662  0.62699  1.0000
  C   C632      1.0  0.66876  0.41653  0.63106  1.0000
  C   C633      1.0  0.56580  0.47068  0.50977  1.0000
  H   H1016     1.0  0.57709  0.47079  0.52191  1.0000
  C   C634      1.0  0.43065  0.26374  0.61123  1.0000
  S   S252      1.0  0.41239  0.49971  0.54990  1.0000
  C   C635      1.0  0.44971  0.29099  0.60856  1.0000
  H   H1017     1.0  0.54291  0.49782  0.52721  1.0000
  H   H1018     1.0  0.63626  0.38853  0.37163  1.0000
  H   H1019     1.0  0.56689  0.50311  0.53052  1.0000
  H   H1020     1.0  0.45692  0.30169  0.61775  1.0000
  H   H1021     1.0  0.55330  0.46474  0.51838  1.0000
  H   H1022     1.0  0.43260  0.29808  0.64826  1.0000
  H   H1023     1.0  0.39067  0.50110  0.62373  1.0000
  H   H1024     1.0  0.36888  0.34953  0.38384  1.0000
  C   C636      1.0  0.57851  0.49669  0.48868  1.0000
  H   H1025     1.0  0.61413  0.38865  0.35846  1.0000
  C   C637      1.0  0.38245  0.34066  0.34375  1.0000
  C   C638      1.0  0.37704  0.49840  0.61638  1.0000
  S   S253      1.0  0.40378  0.28884  0.34511  1.0000
  C   C639      1.0  0.55577  0.50251  0.51823  1.0000
  H   H1026     1.0  0.35129  0.50307  0.58516  1.0000
  H   H1027     1.0  0.46440  0.25947  0.62879  1.0000
  H   H1028     1.0  0.34453  0.34799  0.37800  1.0000
  H   H1029     1.0  0.63595  0.47037  0.63616  1.0000
  H   H1030     1.0  0.65570  0.48374  0.62717  1.0000
  H   H1031     1.0  0.65450  0.45974  0.61984  1.0000
  C   C640      1.0  0.38960  0.37306  0.80344  1.0000
  S   S254      1.0  0.55712  0.38768  0.98634  1.0000
  H   H1032     1.0  0.57439  0.36631  0.76575  1.0000
  H   H1033     1.0  0.40152  0.39800  0.95474  1.0000
  S   S255      1.0  0.57310  0.33434  0.97493  1.0000
  N   N67       1.0  0.61543  0.37178  0.95805  1.0000
  Fe  Fe126     1.0  0.57675  0.30543  0.84827  1.0000
  S   S256      1.0  0.60758  0.29725  0.84554  1.0000
  S   S257      1.0  0.55777  0.31986  0.87424  1.0000
  Fe  Fe127     1.0  0.57045  0.29815  0.79923  1.0000
  S   S258      1.0  0.60078  0.28931  0.79310  1.0000
  S   S259      1.0  0.55024  0.30665  0.77179  1.0000
  Fe  Fe128     1.0  0.59821  0.27303  0.82582  1.0000
  Fe  Fe129     1.0  0.60814  0.31382  0.81300  1.0000
  S   S260      1.0  0.62663  0.33889  0.80442  1.0000
  S   S261      1.0  0.56726  0.28041  0.83037  1.0000
  S   S262      1.0  0.57802  0.32337  0.81739  1.0000
  H   H1034     1.0  0.59887  0.37209  0.73638  1.0000
  H   H1035     1.0  0.40326  0.37868  0.79780  1.0000
  H   H1036     1.0  0.59341  0.39256  0.96440  1.0000
  H   H1037     1.0  0.60864  0.32608  0.76626  1.0000
  Fe  Fe130     1.0  0.44721  0.28620  0.73070  1.0000
  S   S263      1.0  0.41853  0.27412  0.73428  1.0000
  S   S264      1.0  0.46954  0.27570  0.75496  1.0000
  Fe  Fe131     1.0  0.43580  0.31036  0.69032  1.0000
  S   S265      1.0  0.40637  0.30036  0.69146  1.0000
  Fe  Fe132     1.0  0.40725  0.30404  0.72831  1.0000
  S   S266      1.0  0.38358  0.31385  0.75265  1.0000
  Fe  Fe133     1.0  0.41970  0.27118  0.69742  1.0000
  S   S267      1.0  0.43592  0.31602  0.72675  1.0000
  S   S268      1.0  0.44911  0.28128  0.69432  1.0000
  C   C641      1.0  0.34846  0.36854  0.76762  1.0000
  H   H1038     1.0  0.60879  0.34513  0.94556  1.0000
  C   C642      1.0  0.35746  0.33571  0.77590  1.0000
  C   C643      1.0  0.37036  0.33522  0.75784  1.0000
  C   C644      1.0  0.37224  0.35157  0.74468  1.0000
  C   C645      1.0  0.36129  0.36805  0.74949  1.0000
  H   H1039     1.0  0.59088  0.35258  0.78193  1.0000
  H   H1040     1.0  0.56502  0.33408  0.73605  1.0000
  H   H1041     1.0  0.38201  0.35146  0.73069  1.0000
  H   H1042     1.0  0.36286  0.38054  0.73911  1.0000
  H   H1043     1.0  0.40924  0.36973  0.99314  1.0000
  C   C646      1.0  0.36462  0.43174  0.93184  1.0000
  C   C647      1.0  0.36488  0.42821  0.90914  1.0000
  C   C648      1.0  0.37133  0.37739  0.96108  1.0000
  H   H1044     1.0  0.37847  0.37544  0.94470  1.0000
  H   H1045     1.0  0.37648  0.43782  0.93903  1.0000
  H   H1046     1.0  0.37702  0.43164  0.89894  1.0000
  C   C649      1.0  0.52801  0.29757  0.76698  1.0000
  C   C650      1.0  0.52208  0.28095  0.77732  1.0000
  C   C651      1.0  0.50423  0.27443  0.77327  1.0000
  C   C652      1.0  0.49209  0.28436  0.75881  1.0000
  C   C653      1.0  0.49808  0.30091  0.74834  1.0000
  C   C654      1.0  0.51594  0.30744  0.75239  1.0000
  S   S269      1.0  0.34761  0.43163  0.97369  1.0000
  H   H1047     1.0  0.56936  0.35777  0.72698  1.0000
  H   H1048     1.0  0.48893  0.30867  0.73714  1.0000
  H   H1049     1.0  0.52038  0.32025  0.74418  1.0000
  C   C655      1.0  0.64210  0.34678  0.78265  1.0000
  C   C656      1.0  0.64796  0.33555  0.76500  1.0000
  H   H1050     1.0  0.60507  0.35381  0.98440  1.0000
  H   H1051     1.0  0.36931  0.41281  0.82481  1.0000
  C   C657      1.0  0.64826  0.36527  0.78286  1.0000
  H   H1052     1.0  0.64359  0.32124  0.76463  1.0000
  H   H1053     1.0  0.36358  0.39634  0.99784  1.0000
  H   H1054     1.0  0.64387  0.37413  0.79639  1.0000
  C   C658      1.0  0.56917  0.33133  0.94662  1.0000
  C   C659      1.0  0.55480  0.34126  0.93564  1.0000
  C   C660      1.0  0.55169  0.33776  0.91338  1.0000
  C   C661      1.0  0.56315  0.32464  0.90174  1.0000
  C   C662      1.0  0.57786  0.31511  0.91255  1.0000
  C   C663      1.0  0.58072  0.31831  0.93494  1.0000
  H   H1055     1.0  0.54578  0.35128  0.94443  1.0000
  H   H1056     1.0  0.54025  0.34519  0.90517  1.0000
  H   H1057     1.0  0.58669  0.30488  0.90385  1.0000
  H   H1058     1.0  0.59182  0.31048  0.94332  1.0000
  C   C664      1.0  0.66004  0.37249  0.76575  1.0000
  H   H1059     1.0  0.60665  0.32046  0.73790  1.0000
  H   H1060     1.0  0.61517  0.35940  0.75361  1.0000
  H   H1061     1.0  0.58793  0.31576  0.75743  1.0000
  N   N68       1.0  0.38034  0.38453  0.82087  1.0000
  H   H1062     1.0  0.35249  0.37648  0.81484  1.0000
  C   C665      1.0  0.39274  0.38520  0.83975  1.0000
  C   C666      1.0  0.36263  0.37613  0.82832  1.0000
  H   H1063     1.0  0.48436  0.29380  0.83900  1.0000
  H   H1064     1.0  0.64400  0.37992  0.95789  1.0000
  C   C667      1.0  0.37630  0.40381  0.81204  1.0000
  H   H1065     1.0  0.39595  0.37087  0.84686  1.0000
  H   H1066     1.0  0.38606  0.39379  0.85315  1.0000
  H   H1067     1.0  0.40624  0.39152  0.83479  1.0000
  H   H1068     1.0  0.36038  0.38891  0.95903  1.0000
  H   H1069     1.0  0.38371  0.41144  0.96955  1.0000
  C   C668      1.0  0.58080  0.35195  0.76839  1.0000
  H   H1070     1.0  0.62987  0.39185  0.93737  1.0000
  S   S270      1.0  0.40058  0.44357  0.98948  1.0000
  H   H1071     1.0  0.56947  0.34264  0.77433  1.0000
  C   C669      1.0  0.37451  0.38473  0.99919  1.0000
  H   H1072     1.0  0.61285  0.35257  0.72577  1.0000
  H   H1073     1.0  0.59604  0.38599  0.93615  1.0000
  C   C670      1.0  0.57625  0.34379  0.73076  1.0000
  C   C671      1.0  0.61566  0.36458  0.98115  1.0000
  S   S271      1.0  0.34996  0.41750  0.87069  1.0000
  H   H1074     1.0  0.36736  0.37189  0.00504  1.0000
  C   C672      1.0  0.60488  0.35781  0.74055  1.0000
  N   N69       1.0  0.59018  0.34490  0.74804  1.0000
  N   N70       1.0  0.38471  0.38195  0.97790  1.0000
  H   H1075     1.0  0.61910  0.36088  0.92549  1.0000
  H   H1076     1.0  0.58286  0.33842  0.71522  1.0000
  Fe  Fe134     1.0  0.56062  0.35737  0.99699  1.0000
  H   H1077     1.0  0.62953  0.35799  0.98527  1.0000
  H   H1078     1.0  0.58563  0.37026  0.95611  1.0000
  H   H1079     1.0  0.49981  0.26150  0.78126  1.0000
  C   C673      1.0  0.62974  0.38599  0.95458  1.0000
  H   H1080     1.0  0.39213  0.35818  0.80912  1.0000
  H   H1081     1.0  0.35573  0.32313  0.78609  1.0000
  C   C674      1.0  0.34939  0.42069  0.89949  1.0000
  H   H1082     1.0  0.62695  0.39797  0.96581  1.0000
  H   H1083     1.0  0.38928  0.41061  0.80608  1.0000
  H   H1084     1.0  0.62312  0.44269  0.99787  1.0000
  H   H1085     1.0  0.63337  0.34907  0.94599  1.0000
  H   H1086     1.0  0.61244  0.37602  0.99291  1.0000
  H   H1087     1.0  0.40449  0.40300  0.98310  1.0000
  H   H1088     1.0  0.53131  0.27297  0.78823  1.0000
  H   H1089     1.0  0.35579  0.38391  0.84223  1.0000
  H   H1090     1.0  0.36486  0.36119  0.83388  1.0000
  C   C675      1.0  0.61942  0.35605  0.94309  1.0000
  C   C676      1.0  0.59875  0.32598  0.75256  1.0000
  C   C677      1.0  0.34889  0.42757  0.94510  1.0000
  H   H1091     1.0  0.66462  0.38672  0.76627  1.0000
  H   H1092     1.0  0.36402  0.36433  0.96573  1.0000
  C   C678      1.0  0.39402  0.39934  0.97098  1.0000
  H   H1093     1.0  0.38084  0.37283  0.78871  1.0000
  H   H1094     1.0  0.36678  0.40381  0.79788  1.0000
  C   C679      1.0  0.34660  0.35220  0.78079  1.0000
  Fe  Fe135     1.0  0.36959  0.44262  0.99581  1.0000
  S   S272      1.0  0.41755  0.49278  0.99531  1.0000
  N   N71       1.0  0.51187  0.30467  0.84045  1.0000
  C   C680      1.0  0.50556  0.31980  0.85540  1.0000
  C   C681      1.0  0.49591  0.29879  0.82789  1.0000
  C   C682      1.0  0.51960  0.28842  0.85351  1.0000
  C   C683      1.0  0.52653  0.31167  0.82497  1.0000
  H   H1095     1.0  0.49450  0.31506  0.86737  1.0000
  H   H1096     1.0  0.49987  0.33235  0.84606  1.0000
  H   H1097     1.0  0.51738  0.32441  0.86514  1.0000
  H   H1098     1.0  0.66422  0.33390  0.73441  1.0000
  H   H1099     1.0  0.49012  0.31048  0.81720  1.0000
  H   H1100     1.0  0.50019  0.28708  0.81686  1.0000
  H   H1101     1.0  0.53180  0.29233  0.86303  1.0000
  H   H1102     1.0  0.52455  0.27675  0.84272  1.0000
  H   H1103     1.0  0.50899  0.28283  0.86551  1.0000
  H   H1104     1.0  0.53234  0.30035  0.81430  1.0000
  H   H1105     1.0  0.53841  0.31703  0.83388  1.0000
  H   H1106     1.0  0.52107  0.32325  0.81392  1.0000
  C   C684      1.0  0.59681  0.38054  0.95347  1.0000
  C   C685      1.0  0.65975  0.34277  0.74789  1.0000
  H   H1107     1.0  0.40711  0.36407  0.96477  1.0000
  C   C686      1.0  0.39901  0.36647  0.98046  1.0000
  H   H1108     1.0  0.39255  0.35310  0.98580  1.0000
  C   C687      1.0  0.66590  0.36127  0.74812  1.0000
  H   H1109     1.0  0.56150  0.50407  0.98310  1.0000
  H   H1110     1.0  0.34583  0.48290  0.88261  1.0000
  H   H1111     1.0  0.34463  0.45802  0.87993  1.0000
  S   S273      1.0  0.50826  0.40960  0.00258  1.0000
  H   H1112     1.0  0.34251  0.46786  0.90672  1.0000
  C   C688      1.0  0.33868  0.47027  0.88918  1.0000
  S   S274      1.0  0.59906  0.41197  0.00723  1.0000
  C   C689      1.0  0.56462  0.50580  0.00071  1.0000
  H   H1113     1.0  0.47749  0.43638  0.00400  1.0000
  C   C690      1.0  0.47202  0.42273  0.00800  1.0000
  H   H1114     1.0  0.63040  0.71508  0.30747  1.0000
  S   S275      1.0  0.61612  0.54374  0.05042  1.0000
  N   N72       1.0  0.55185  0.52009  0.01107  1.0000
  Fe  Fe136     1.0  0.64719  0.54388  0.04296  1.0000
  H   H1115     1.0  0.49680  0.65779  0.08595  1.0000
  H   H1116     1.0  0.50146  0.65077  0.05827  1.0000
  Fe  Fe137     1.0  0.56454  0.70311  0.31677  1.0000
  S   S276      1.0  0.59087  0.71599  0.30298  1.0000
  S   S277      1.0  0.53454  0.71218  0.30744  1.0000
  C   C691      1.0  0.62774  0.61250  0.18637  1.0000
  Fe  Fe138     1.0  0.60445  0.68669  0.30554  1.0000
  S   S278      1.0  0.62588  0.67854  0.27786  1.0000
  S   S279      1.0  0.57736  0.67366  0.31648  1.0000
  Fe  Fe139     1.0  0.48396  0.59528  0.03120  1.0000
  H   H1117     1.0  0.38671  0.73713  0.13764  1.0000
  Fe  Fe140     1.0  0.45870  0.62966  0.04102  1.0000
  H   H1118     1.0  0.64778  0.58887  0.22971  1.0000
  S   S280      1.0  0.45956  0.65494  0.06287  1.0000
  H   H1119     1.0  0.48246  0.65398  0.30046  1.0000
  S   S281      1.0  0.61351  0.69041  0.34006  1.0000
  H   H1120     1.0  0.64753  0.58222  0.20145  1.0000
  S   S282      1.0  0.45880  0.59985  0.05393  1.0000
  H   H1121     1.0  0.64241  0.57550  0.13033  1.0000
  H   H1122     1.0  0.65122  0.68728  0.31468  1.0000
  Fe  Fe141     1.0  0.42741  0.67849  0.18693  1.0000
  S   S283      1.0  0.40168  0.69224  0.20278  1.0000
  S   S284      1.0  0.42257  0.65836  0.15959  1.0000
  Fe  Fe142     1.0  0.45308  0.69533  0.21962  1.0000
  S   S285      1.0  0.42891  0.71082  0.23706  1.0000
  S   S286      1.0  0.48409  0.69092  0.22765  1.0000
  Fe  Fe143     1.0  0.41381  0.68363  0.23530  1.0000
  S   S287      1.0  0.39853  0.67198  0.26653  1.0000
  Fe  Fe144     1.0  0.41853  0.71827  0.20289  1.0000
  C   C692      1.0  0.37946  0.59540  0.32209  1.0000
  S   S288      1.0  0.43839  0.66805  0.21949  1.0000
  S   S289      1.0  0.44381  0.70465  0.18550  1.0000
  C   C693      1.0  0.35760  0.62335  0.27540  1.0000
  C   C694      1.0  0.36931  0.62487  0.25635  1.0000
  C   C695      1.0  0.38147  0.63988  0.25307  1.0000
  C   C696      1.0  0.38235  0.65353  0.26900  1.0000
  C   C697      1.0  0.37062  0.65204  0.28807  1.0000
  C   C698      1.0  0.35813  0.63726  0.29109  1.0000
  H   H1123     1.0  0.36899  0.61432  0.24398  1.0000
  H   H1124     1.0  0.39036  0.64071  0.23832  1.0000
  H   H1125     1.0  0.37095  0.66260  0.30040  1.0000
  H   H1126     1.0  0.40694  0.69922  0.10160  1.0000
  C   C699      1.0  0.44998  0.65515  0.09013  1.0000
  C   C700      1.0  0.43798  0.64140  0.09814  1.0000
  C   C701      1.0  0.43000  0.64245  0.11960  1.0000
  C   C702      1.0  0.43419  0.65701  0.13341  1.0000
  C   C703      1.0  0.44658  0.67052  0.12560  1.0000
  C   C704      1.0  0.45430  0.66967  0.10397  1.0000
  H   H1127     1.0  0.43452  0.63016  0.08767  1.0000
  H   H1128     1.0  0.42041  0.63195  0.12549  1.0000
  H   H1129     1.0  0.45011  0.68170  0.13611  1.0000
  H   H1130     1.0  0.46362  0.68035  0.09790  1.0000
  C   C705      1.0  0.50740  0.65044  0.07502  1.0000
  H   H1131     1.0  0.65606  0.63353  0.19952  1.0000
  H   H1132     1.0  0.63962  0.73744  0.30091  1.0000
  C   C706      1.0  0.66293  0.69494  0.30650  1.0000
  H   H1133     1.0  0.66452  0.61120  0.18950  1.0000
  C   C707      1.0  0.40165  0.54193  0.02447  1.0000
  H   H1134     1.0  0.48569  0.66979  0.27731  1.0000
  C   C708      1.0  0.52503  0.62150  0.06764  1.0000
  C   C709      1.0  0.40177  0.52322  0.01765  1.0000
  C   C710      1.0  0.52098  0.70638  0.28479  1.0000
  C   C711      1.0  0.52759  0.69370  0.26894  1.0000
  C   C712      1.0  0.51621  0.68943  0.25141  1.0000
  C   C713      1.0  0.49806  0.69771  0.24950  1.0000
  C   C714      1.0  0.49146  0.71045  0.26532  1.0000
  C   C715      1.0  0.50283  0.71468  0.28287  1.0000
  H   H1135     1.0  0.54150  0.68722  0.27016  1.0000
  H   H1136     1.0  0.52150  0.67958  0.23928  1.0000
  H   H1137     1.0  0.47771  0.71724  0.26390  1.0000
  H   H1138     1.0  0.49765  0.72464  0.29493  1.0000
  C   C716      1.0  0.64070  0.65796  0.27400  1.0000
  Fe  Fe145     1.0  0.59881  0.71921  0.33821  1.0000
  H   H1139     1.0  0.49654  0.60563  0.08934  1.0000
  C   C717      1.0  0.53147  0.58056  0.03634  1.0000
  C   C718      1.0  0.65160  0.62598  0.28398  1.0000
  C   C719      1.0  0.63980  0.64204  0.28803  1.0000
  H   H1140     1.0  0.36717  0.58817  0.31626  1.0000
  N   N73       1.0  0.51150  0.63093  0.08306  1.0000
  C   C720      1.0  0.55661  0.52181  0.03437  1.0000
  H   H1141     1.0  0.62988  0.64199  0.30189  1.0000
  H   H1142     1.0  0.46195  0.65569  0.25663  1.0000
  C   C721      1.0  0.65517  0.56264  0.10153  1.0000
  C   C722      1.0  0.63984  0.59069  0.21422  1.0000
  H   H1143     1.0  0.64215  0.56216  0.09307  1.0000
  S   S290      1.0  0.41617  0.57673  0.02777  1.0000
  H   H1144     1.0  0.34878  0.63671  0.30541  1.0000
  N   N74       1.0  0.66022  0.71547  0.30890  1.0000
  H   H1145     1.0  0.37366  0.72528  0.11792  1.0000
  Fe  Fe146     1.0  0.44196  0.59410  0.02464  1.0000
  H   H1146     1.0  0.51927  0.62083  0.05089  1.0000
  H   H1147     1.0  0.52846  0.60673  0.07322  1.0000
  S   S291      1.0  0.40098  0.74445  0.19118  1.0000
  N   N75       1.0  0.39560  0.70831  0.13299  1.0000
  C   C723      1.0  0.39718  0.69462  0.11517  1.0000
  C   C724      1.0  0.41432  0.71086  0.14161  1.0000
  C   C725      1.0  0.38312  0.70115  0.15094  1.0000
  C   C726      1.0  0.38787  0.72658  0.12442  1.0000
  H   H1148     1.0  0.45360  0.69752  0.29077  1.0000
  C   C727      1.0  0.53588  0.59181  0.01777  1.0000
  H   H1149     1.0  0.63453  0.61954  0.24055  1.0000
  S   S292      1.0  0.59223  0.58347  0.01045  1.0000
  H   H1150     1.0  0.42032  0.69744  0.14866  1.0000
  H   H1151     1.0  0.43530  0.68670  0.27687  1.0000
  H   H1152     1.0  0.39699  0.73239  0.11088  1.0000
  H   H1153     1.0  0.43104  0.66322  0.30625  1.0000
  H   H1154     1.0  0.45074  0.64934  0.31647  1.0000
  H   H1155     1.0  0.39202  0.58593  0.31918  1.0000
  C   C728      1.0  0.56451  0.57107  0.03933  1.0000
  H   H1156     1.0  0.54254  0.56200  0.06189  1.0000
  N   N76       1.0  0.63796  0.61070  0.20712  1.0000
  H   H1157     1.0  0.42431  0.71584  0.12850  1.0000
  H   H1158     1.0  0.38853  0.68727  0.15767  1.0000
  Fe  Fe147     1.0  0.61649  0.51803  0.02972  1.0000
  H   H1159     1.0  0.52019  0.65876  0.07405  1.0000
  C   C729      1.0  0.41717  0.55300  0.01998  1.0000
  H   H1160     1.0  0.38336  0.69248  0.10803  1.0000
  H   H1161     1.0  0.36879  0.69917  0.14514  1.0000
  H   H1162     1.0  0.64201  0.71878  0.28137  1.0000
  C   C730      1.0  0.65537  0.57020  0.12267  1.0000
  H   H1163     1.0  0.48351  0.62709  0.09617  1.0000
  C   C731      1.0  0.55461  0.59276  0.01011  1.0000
  C   C732      1.0  0.64236  0.72205  0.29914  1.0000
  H   H1164     1.0  0.65474  0.66991  0.24523  1.0000
  N   N77       1.0  0.45705  0.66746  0.28852  1.0000
  C   C733      1.0  0.45065  0.68607  0.27955  1.0000
  C   C734      1.0  0.47726  0.66753  0.29285  1.0000
  C   C735      1.0  0.45381  0.65303  0.27233  1.0000
  C   C736      1.0  0.44635  0.66330  0.30920  1.0000
  H   H1165     1.0  0.38096  0.60815  0.31120  1.0000
  H   H1166     1.0  0.45777  0.68928  0.26343  1.0000
  H   H1167     1.0  0.48049  0.67899  0.30397  1.0000
  C   C737      1.0  0.65973  0.71987  0.33254  1.0000
  H   H1168     1.0  0.52231  0.52486  0.01761  1.0000
  H   H1169     1.0  0.45815  0.63872  0.27860  1.0000
  H   H1170     1.0  0.61350  0.60693  0.18845  1.0000
  H   H1171     1.0  0.43873  0.65294  0.26822  1.0000
  H   H1172     1.0  0.38975  0.51482  0.02117  1.0000
  C   C738      1.0  0.66452  0.62555  0.26593  1.0000
  H   H1173     1.0  0.63532  0.60457  0.17300  1.0000
  H   H1174     1.0  0.53274  0.63860  0.10481  1.0000
  H   H1175     1.0  0.61307  0.61663  0.22710  1.0000
  C   C739      1.0  0.65378  0.65765  0.25611  1.0000
  H   H1176     1.0  0.41372  0.72127  0.15492  1.0000
  C   C740      1.0  0.65677  0.61816  0.20340  1.0000
  S   S293      1.0  0.64766  0.51681  0.02478  1.0000
  H   H1177     1.0  0.50953  0.63816  0.11713  1.0000
  C   C741      1.0  0.51944  0.63107  0.10518  1.0000
  H   H1178     1.0  0.38949  0.54783  0.03329  1.0000
  Fe  Fe148     1.0  0.61310  0.55951  0.01800  1.0000
  H   H1179     1.0  0.48744  0.62103  0.06810  1.0000
  H   H1180     1.0  0.44843  0.67407  0.32165  1.0000
  H   H1181     1.0  0.57550  0.56317  0.04781  1.0000
  H   H1182     1.0  0.52248  0.61652  0.11173  1.0000
  H   H1183     1.0  0.53838  0.62891  0.06592  1.0000
  H   H1184     1.0  0.65057  0.61369  0.29483  1.0000
  H   H1185     1.0  0.54656  0.53157  0.04309  1.0000
  H   H1186     1.0  0.40268  0.68062  0.12142  1.0000
  C   C742      1.0  0.49401  0.62068  0.08436  1.0000
  C   C743      1.0  0.62759  0.62138  0.22447  1.0000
  H   H1187     1.0  0.62595  0.58458  0.21741  1.0000
  H   H1188     1.0  0.62673  0.63673  0.22034  1.0000
  H   H1189     1.0  0.57088  0.52721  0.03581  1.0000
  S   S294      1.0  0.50825  0.57875  0.04655  1.0000
  H   H1190     1.0  0.38186  0.71101  0.16484  1.0000
  H   H1191     1.0  0.62619  0.62744  0.18055  1.0000
  C   C744      1.0  0.54586  0.57044  0.04726  1.0000
  S   S295      1.0  0.48479  0.62535  0.01960  1.0000
  C   C745      1.0  0.43283  0.54522  0.00862  1.0000
  S   S296      1.0  0.64419  0.56212  0.01209  1.0000
  S   S297      1.0  0.43939  0.62462  0.01340  1.0000
  C   C746      1.0  0.56895  0.58224  0.02070  1.0000
  C   C747      1.0  0.53233  0.51433  0.00998  1.0000
  H   H1192     1.0  0.55652  0.50798  0.04345  1.0000
  H   H1193     1.0  0.66540  0.61571  0.21815  1.0000
  H   H1194     1.0  0.65744  0.73524  0.33497  1.0000
  H   H1195     1.0  0.36066  0.62580  0.33908  1.0000
  S   S298      1.0  0.34319  0.60351  0.27896  1.0000
  H   H1196     1.0  0.65058  0.51262  0.16591  1.0000
  H   H1197     1.0  0.66333  0.69112  0.28885  1.0000
  C   C748      1.0  0.66569  0.64165  0.25217  1.0000
  H   H1198     1.0  0.66689  0.54088  0.17579  1.0000
  H   H1199     1.0  0.52490  0.59974  0.00929  1.0000
  S   S299      1.0  0.59548  0.66879  0.64849  1.0000
  Fe  Fe149     1.0  0.55154  0.61946  0.54887  1.0000
  S   S300      1.0  0.53016  0.62626  0.52304  1.0000
  S   S301      1.0  0.54288  0.62808  0.58364  1.0000
  Fe  Fe150     1.0  0.57621  0.59580  0.51714  1.0000
  S   S302      1.0  0.55658  0.60065  0.48936  1.0000
  S   S303      1.0  0.60227  0.57829  0.50781  1.0000
  Fe  Fe151     1.0  0.55485  0.63051  0.49972  1.0000
  S   S304      1.0  0.55470  0.65579  0.47604  1.0000
  Fe  Fe152     1.0  0.53379  0.59592  0.51489  1.0000
  S   S305      1.0  0.51173  0.57530  0.50879  1.0000
  S   S306      1.0  0.57605  0.62627  0.52618  1.0000
  S   S307      1.0  0.55354  0.58858  0.54196  1.0000
  C   C749      1.0  0.36364  0.52819  0.62858  1.0000
  H   H1200     1.0  0.61826  0.59204  0.45779  1.0000
  S   S308      1.0  0.58394  0.65454  0.37592  1.0000
  H   H1201     1.0  0.50398  0.57760  0.60944  1.0000
  H   H1202     1.0  0.49106  0.66079  0.47654  1.0000
  Fe  Fe153     1.0  0.40498  0.56659  0.51890  1.0000
  S   S309      1.0  0.39711  0.55186  0.55092  1.0000
  S   S310      1.0  0.42396  0.59127  0.51885  1.0000
  Fe  Fe154     1.0  0.37978  0.54363  0.49213  1.0000
  S   S311      1.0  0.37035  0.52678  0.52209  1.0000
  S   S312      1.0  0.36741  0.53502  0.46010  1.0000
  Fe  Fe155     1.0  0.36765  0.55411  0.53934  1.0000
  H   H1203     1.0  0.35479  0.52125  0.64161  1.0000
  Fe  Fe156     1.0  0.40023  0.52545  0.53162  1.0000
  S   S313      1.0  0.57160  0.70813  0.35219  1.0000
  S   S314      1.0  0.37500  0.57122  0.50869  1.0000
  S   S315      1.0  0.41033  0.53997  0.50023  1.0000
  C   C750      1.0  0.35824  0.55018  0.43901  1.0000
  C   C751      1.0  0.34197  0.55378  0.40419  1.0000
  H   H1204     1.0  0.39175  0.61453  0.36970  1.0000
  C   C752      1.0  0.35760  0.56972  0.44063  1.0000
  S   S316      1.0  0.33843  0.59100  0.65546  1.0000
  H   H1205     1.0  0.36365  0.57600  0.45454  1.0000
  C   C753      1.0  0.60263  0.62331  0.47479  1.0000
  H   H1206     1.0  0.62740  0.65005  0.46704  1.0000
  C   C754      1.0  0.35466  0.57659  0.59341  1.0000
  H   H1207     1.0  0.38159  0.51742  0.57774  1.0000
  H   H1208     1.0  0.52298  0.65425  0.44314  1.0000
  C   C755      1.0  0.34002  0.56612  0.58654  1.0000
  H   H1209     1.0  0.36644  0.57926  0.58227  1.0000
  C   C756      1.0  0.62822  0.60256  0.46280  1.0000
  C   C757      1.0  0.48746  0.58023  0.51188  1.0000
  C   C758      1.0  0.47538  0.56532  0.51140  1.0000
  C   C759      1.0  0.45592  0.56856  0.51367  1.0000
  C   C760      1.0  0.44836  0.58680  0.51616  1.0000
  C   C761      1.0  0.46045  0.60179  0.51662  1.0000
  C   C762      1.0  0.47999  0.59851  0.51459  1.0000
  H   H1210     1.0  0.48108  0.55115  0.50926  1.0000
  H   H1211     1.0  0.44676  0.55693  0.51334  1.0000
  H   H1212     1.0  0.45463  0.61593  0.51860  1.0000
  H   H1213     1.0  0.48921  0.61006  0.51507  1.0000
  C   C763      1.0  0.56258  0.65519  0.44812  1.0000
  C   C764      1.0  0.56464  0.67218  0.43609  1.0000
  C   C765      1.0  0.57087  0.67228  0.41383  1.0000
  C   C766      1.0  0.57500  0.65533  0.40341  1.0000
  C   C767      1.0  0.57255  0.63833  0.41534  1.0000
  C   C768      1.0  0.56638  0.63823  0.43760  1.0000
  H   H1214     1.0  0.56159  0.68539  0.44405  1.0000
  H   H1215     1.0  0.57267  0.68546  0.40480  1.0000
  H   H1216     1.0  0.57555  0.62517  0.40727  1.0000
  H   H1217     1.0  0.56455  0.62504  0.44652  1.0000
  C   C769      1.0  0.60302  0.55485  0.51827  1.0000
  C   C770      1.0  0.61492  0.54119  0.50821  1.0000
  H   H1218     1.0  0.40650  0.60186  0.35015  1.0000
  H   H1219     1.0  0.64122  0.60080  0.45236  1.0000
  C   C771      1.0  0.59296  0.53116  0.54521  1.0000
  C   C772      1.0  0.59203  0.54972  0.53676  1.0000
  H   H1220     1.0  0.62356  0.54507  0.49396  1.0000
  H   H1221     1.0  0.46374  0.60298  0.58285  1.0000
  H   H1222     1.0  0.60892  0.64085  0.43561  1.0000
  H   H1223     1.0  0.58314  0.56016  0.54492  1.0000
  C   C773      1.0  0.58045  0.65769  0.63073  1.0000
  C   C774      1.0  0.56186  0.65414  0.63679  1.0000
  C   C775      1.0  0.55054  0.64510  0.62220  1.0000
  C   C776      1.0  0.55762  0.63958  0.60138  1.0000
  C   C777      1.0  0.57618  0.64317  0.59530  1.0000
  C   C778      1.0  0.58751  0.65214  0.60992  1.0000
  H   H1224     1.0  0.55625  0.65833  0.65274  1.0000
  H   H1225     1.0  0.53621  0.64242  0.62708  1.0000
  H   H1226     1.0  0.58185  0.63901  0.57938  1.0000
  H   H1227     1.0  0.60186  0.65481  0.60508  1.0000
  C   C779      1.0  0.34110  0.57329  0.40598  1.0000
  H   H1228     1.0  0.48566  0.61770  0.60750  1.0000
  H   H1229     1.0  0.37373  0.58609  0.37721  1.0000
  H   H1230     1.0  0.35697  0.61551  0.36620  1.0000
  C   C780      1.0  0.63333  0.63534  0.46827  1.0000
  H   H1231     1.0  0.51481  0.65427  0.48284  1.0000
  C   C781      1.0  0.49739  0.61350  0.59594  1.0000
  H   H1232     1.0  0.47285  0.58735  0.56209  1.0000
  C   C782      1.0  0.49105  0.58055  0.59998  1.0000
  H   H1233     1.0  0.51117  0.60351  0.55615  1.0000
  H   H1234     1.0  0.48800  0.56748  0.59147  1.0000
  H   H1235     1.0  0.36316  0.57499  0.35527  1.0000
  H   H1236     1.0  0.58453  0.52743  0.55969  1.0000
  H   H1237     1.0  0.36514  0.59243  0.61962  1.0000
  H   H1238     1.0  0.51202  0.61201  0.47802  1.0000
  H   H1239     1.0  0.52256  0.58968  0.57724  1.0000
  H   H1240     1.0  0.47907  0.62048  0.46941  1.0000
  H   H1241     1.0  0.50682  0.57901  0.55926  1.0000
  H   H1242     1.0  0.48495  0.62043  0.44046  1.0000
  C   C783      1.0  0.37881  0.52601  0.59260  1.0000
  C   C784      1.0  0.60471  0.51748  0.53511  1.0000
  Fe  Fe157     1.0  0.58570  0.67928  0.35113  1.0000
  H   H1243     1.0  0.37182  0.53950  0.58703  1.0000
  H   H1244     1.0  0.59587  0.63771  0.47390  1.0000
  H   H1245     1.0  0.51110  0.63971  0.42516  1.0000
  H   H1246     1.0  0.49921  0.66020  0.43645  1.0000
  N   N78       1.0  0.49338  0.59645  0.58404  1.0000
  H   H1247     1.0  0.47933  0.58353  0.61206  1.0000
  H   H1248     1.0  0.63178  0.59875  0.48016  1.0000
  H   H1249     1.0  0.59225  0.61332  0.46968  1.0000
  C   C785      1.0  0.35047  0.54230  0.42068  1.0000
  H   H1250     1.0  0.35625  0.54171  0.62380  1.0000
  C   C786      1.0  0.35390  0.58402  0.61460  1.0000
  H   H1251     1.0  0.49992  0.62563  0.58433  1.0000
  C   C787      1.0  0.34902  0.58120  0.42420  1.0000
  C   C788      1.0  0.50915  0.59189  0.56851  1.0000
  C   C789      1.0  0.61542  0.62640  0.43763  1.0000
  H   H1252     1.0  0.51785  0.61164  0.44906  1.0000
  C   C790      1.0  0.61567  0.52248  0.51651  1.0000
  H   H1253     1.0  0.49617  0.64043  0.49393  1.0000
  H   H1254     1.0  0.51027  0.61134  0.60570  1.0000
  C   C791      1.0  0.47604  0.59982  0.57168  1.0000
  H   H1255     1.0  0.47727  0.61192  0.55973  1.0000
  H   H1256     1.0  0.47353  0.64090  0.45230  1.0000
  N   N79       1.0  0.50268  0.63676  0.45946  1.0000
  C   C792      1.0  0.51630  0.62091  0.46345  1.0000
  C   C793      1.0  0.48423  0.62934  0.45520  1.0000
  C   C794      1.0  0.50921  0.64821  0.44019  1.0000
  C   C795      1.0  0.50107  0.64856  0.47906  1.0000
  H   H1257     1.0  0.53038  0.62608  0.46645  1.0000
  H   H1258     1.0  0.62815  0.62562  0.42658  1.0000
  H   H1259     1.0  0.60537  0.61648  0.43147  1.0000
  N   N80       1.0  0.36714  0.51614  0.60938  1.0000
  N   N81       1.0  0.61992  0.62190  0.46084  1.0000
  H   H1260     1.0  0.39264  0.52929  0.59902  1.0000
  H   H1261     1.0  0.34141  0.52511  0.59421  1.0000
  S   S317      1.0  0.61752  0.74307  0.34788  1.0000
  H   H1262     1.0  0.63692  0.63238  0.48578  1.0000
  C   C796      1.0  0.33873  0.58074  0.62932  1.0000
  H   H1263     1.0  0.64659  0.63465  0.45814  1.0000
  H   H1264     1.0  0.60557  0.61981  0.49236  1.0000
  C   C797      1.0  0.34913  0.51199  0.59981  1.0000
  H   H1265     1.0  0.62486  0.51203  0.50865  1.0000
  H   H1266     1.0  0.38812  0.57331  0.35737  1.0000
  H   H1267     1.0  0.34847  0.59630  0.42565  1.0000
  C   C798      1.0  0.37553  0.58291  0.35941  1.0000
  H   H1268     1.0  0.34249  0.56137  0.48391  1.0000
  H   H1269     1.0  0.35090  0.52719  0.41929  1.0000
  H   H1270     1.0  0.37694  0.53175  0.63612  1.0000
  N   N82       1.0  0.37701  0.60025  0.34553  1.0000
  C   C799      1.0  0.39327  0.61055  0.35213  1.0000
  H   H1271     1.0  0.57609  0.51124  0.48184  1.0000
  S   S318      1.0  0.34052  0.55657  0.55997  1.0000
  H   H1272     1.0  0.34733  0.60521  0.34294  1.0000
  H   H1273     1.0  0.55288  0.51713  0.51178  1.0000
  H   H1274     1.0  0.59960  0.75079  0.66302  1.0000
  C   C800      1.0  0.35979  0.61226  0.34856  1.0000
  H   H1275     1.0  0.39477  0.62370  0.34193  1.0000
  H   H1276     1.0  0.63292  0.50785  0.61096  1.0000
  H   H1277     1.0  0.64802  0.71295  0.34166  1.0000
  C   C801      1.0  0.35150  0.55683  0.76744  1.0000
  H   H1278     1.0  0.40041  0.71044  0.87999  1.0000
  C   C802      1.0  0.66646  0.56241  0.94458  1.0000
  H   H1279     1.0  0.44496  0.55344  0.00540  1.0000
  Fe  Fe158     1.0  0.46549  0.61775  0.99309  1.0000
  H   H1280     1.0  0.34660  0.62519  0.80319  1.0000
  Fe  Fe159     1.0  0.56152  0.68490  0.72237  1.0000
  S   S319      1.0  0.58202  0.70138  0.73988  1.0000
  S   S320      1.0  0.53512  0.67277  0.73864  1.0000
  H   H1281     1.0  0.42769  0.58801  0.98564  1.0000
  S   S321      1.0  0.61077  0.69633  0.69765  1.0000
  Fe  Fe160     1.0  0.60409  0.67980  0.72896  1.0000
  S   S322      1.0  0.62398  0.67166  0.75705  1.0000
  Fe  Fe161     1.0  0.58748  0.71696  0.70744  1.0000
  H   H1282     1.0  0.42824  0.58510  0.91559  1.0000
  S   S323      1.0  0.58332  0.66235  0.71298  1.0000
  H   H1283     1.0  0.36166  0.56182  0.80893  1.0000
  C   C803      1.0  0.42667  0.59422  0.93010  1.0000
  S   S324      1.0  0.47127  0.62535  0.95683  1.0000
  H   H1284     1.0  0.45167  0.71772  0.73582  1.0000
  Fe  Fe162     1.0  0.40825  0.71880  0.83549  1.0000
  S   S325      1.0  0.43469  0.70882  0.85172  1.0000
  H   H1285     1.0  0.44842  0.71058  0.76425  1.0000
  Fe  Fe163     1.0  0.40777  0.68228  0.80777  1.0000
  S   S326      1.0  0.43420  0.67009  0.82313  1.0000
  S   S327      1.0  0.39571  0.66875  0.77761  1.0000
  Fe  Fe164     1.0  0.42165  0.68073  0.85537  1.0000
  S   S328      1.0  0.41596  0.66763  0.88962  1.0000
  Fe  Fe165     1.0  0.44490  0.69928  0.81810  1.0000
  S   S329      1.0  0.47288  0.70930  0.80401  1.0000
  S   S330      1.0  0.39457  0.69095  0.84015  1.0000
  S   S331      1.0  0.41911  0.71120  0.80157  1.0000
  C   C804      1.0  0.34980  0.62594  0.76774  1.0000
  C   C805      1.0  0.35970  0.63393  0.74976  1.0000
  C   C806      1.0  0.37361  0.64694  0.75314  1.0000
  C   C807      1.0  0.37790  0.65222  0.77451  1.0000
  C   C808      1.0  0.36804  0.64418  0.79249  1.0000
  C   C809      1.0  0.35414  0.63116  0.78910  1.0000
  H   H1286     1.0  0.35656  0.52904  0.79796  1.0000
  H   H1287     1.0  0.38106  0.65301  0.73906  1.0000
  H   H1288     1.0  0.37107  0.64805  0.80902  1.0000
  H   H1289     1.0  0.64746  0.69217  0.72539  1.0000
  C   C810      1.0  0.45606  0.63822  0.93883  1.0000
  C   C811      1.0  0.46229  0.64221  0.91704  1.0000
  C   C812      1.0  0.45036  0.65156  0.90184  1.0000
  C   C813      1.0  0.43194  0.65672  0.90823  1.0000
  C   C814      1.0  0.42571  0.65277  0.93004  1.0000
  C   C815      1.0  0.43774  0.64374  0.94535  1.0000
  H   H1290     1.0  0.47644  0.63799  0.91186  1.0000
  H   H1291     1.0  0.45532  0.65448  0.88510  1.0000
  H   H1292     1.0  0.41147  0.65672  0.93514  1.0000
  H   H1293     1.0  0.43279  0.64097  0.96210  1.0000
  C   C816      1.0  0.51784  0.68334  0.75652  1.0000
  C   C817      1.0  0.50364  0.67224  0.76583  1.0000
  C   C818      1.0  0.48991  0.67985  0.78063  1.0000
  C   C819      1.0  0.49014  0.69874  0.78610  1.0000
  C   C820      1.0  0.50440  0.70979  0.77688  1.0000
  C   C821      1.0  0.51819  0.70216  0.76219  1.0000
  H   H1294     1.0  0.50338  0.65760  0.76174  1.0000
  H   H1295     1.0  0.47930  0.67109  0.78801  1.0000
  H   H1296     1.0  0.50472  0.72441  0.78105  1.0000
  H   H1297     1.0  0.52903  0.71087  0.75520  1.0000
  C   C822      1.0  0.45276  0.70549  0.74762  1.0000
  H   H1298     1.0  0.41648  0.69649  0.92388  1.0000
  Fe  Fe166     1.0  0.64306  0.53513  0.99431  1.0000
  C   C823      1.0  0.63959  0.65180  0.76211  1.0000
  C   C824      1.0  0.64313  0.63777  0.74675  1.0000
  S   S332      1.0  0.66046  0.52708  0.96359  1.0000
  H   H1299     1.0  0.38158  0.73656  0.92816  1.0000
  H   H1300     1.0  0.63613  0.63867  0.73122  1.0000
  H   H1301     1.0  0.41987  0.70858  0.72719  1.0000
  H   H1302     1.0  0.43669  0.60688  0.96893  1.0000
  H   H1303     1.0  0.43341  0.66286  0.75397  1.0000
  H   H1304     1.0  0.41237  0.68543  0.73497  1.0000
  H   H1305     1.0  0.38873  0.71390  0.93966  1.0000
  H   H1306     1.0  0.43059  0.71634  0.92746  1.0000
  C   C825      1.0  0.65535  0.70473  0.72000  1.0000
  H   H1307     1.0  0.62227  0.71379  0.74043  1.0000
  H   H1308     1.0  0.62639  0.72969  0.71738  1.0000
  H   H1309     1.0  0.65861  0.61192  0.73927  1.0000
  H   H1310     1.0  0.42087  0.74757  0.91149  1.0000
  H   H1311     1.0  0.44737  0.69451  0.70653  1.0000
  H   H1312     1.0  0.46308  0.67792  0.72015  1.0000
  H   H1313     1.0  0.41271  0.60175  0.92954  1.0000
  H   H1314     1.0  0.35660  0.63014  0.73322  1.0000
  H   H1315     1.0  0.38753  0.70020  0.90264  1.0000
  H   H1316     1.0  0.54410  0.54944  0.00643  1.0000
  H   H1317     1.0  0.45714  0.66849  0.75890  1.0000
  C   C826      1.0  0.34674  0.56533  0.80539  1.0000
  S   S333      1.0  0.56498  0.70197  0.69051  1.0000
  H   H1318     1.0  0.42931  0.70625  0.90089  1.0000
  C   C827      1.0  0.39266  0.71372  0.89563  1.0000
  C   C828      1.0  0.39395  0.72697  0.93151  1.0000
  N   N83       1.0  0.40477  0.72277  0.91098  1.0000
  C   C829      1.0  0.64893  0.65029  0.78219  1.0000
  H   H1319     1.0  0.41659  0.55853  0.93935  1.0000
  H   H1320     1.0  0.46783  0.70095  0.74831  1.0000
  H   H1321     1.0  0.41577  0.70197  0.75565  1.0000
  C   C830      1.0  0.65592  0.62256  0.75139  1.0000
  H   H1322     1.0  0.44992  0.56550  0.96671  1.0000
  H   H1323     1.0  0.35036  0.57184  0.76172  1.0000
  H   H1324     1.0  0.45884  0.58492  0.95061  1.0000
  H   H1325     1.0  0.45063  0.56487  0.93720  1.0000
  N   N84       1.0  0.56967  0.66137  0.79378  1.0000
  C   C831      1.0  0.55347  0.67502  0.79415  1.0000
  C   C832      1.0  0.58696  0.67117  0.79772  1.0000
  C   C833      1.0  0.57135  0.65267  0.77202  1.0000
  C   C834      1.0  0.56691  0.64663  0.81110  1.0000
  H   H1326     1.0  0.54018  0.66805  0.79132  1.0000
  H   H1327     1.0  0.55492  0.68612  0.78092  1.0000
  H   H1328     1.0  0.55181  0.68212  0.81017  1.0000
  H   H1329     1.0  0.58940  0.68241  0.78493  1.0000
  H   H1330     1.0  0.58631  0.67783  0.81404  1.0000
  H   H1331     1.0  0.59953  0.66134  0.79713  1.0000
  H   H1332     1.0  0.58363  0.64254  0.77084  1.0000
  H   H1333     1.0  0.57318  0.66349  0.75867  1.0000
  H   H1334     1.0  0.55854  0.64520  0.76832  1.0000
  H   H1335     1.0  0.56551  0.65271  0.82775  1.0000
  H   H1336     1.0  0.57892  0.63612  0.81123  1.0000
  H   H1337     1.0  0.55400  0.63894  0.80849  1.0000
  N   N85       1.0  0.42888  0.58321  0.95098  1.0000
  H   H1338     1.0  0.36657  0.55318  0.76988  1.0000
  C   C835      1.0  0.63079  0.72569  0.73436  1.0000
  C   C836      1.0  0.44790  0.57421  0.95136  1.0000
  H   H1339     1.0  0.55799  0.60149  0.99574  1.0000
  H   H1340     1.0  0.52825  0.51280  0.99264  1.0000
  C   C837      1.0  0.66163  0.63501  0.78689  1.0000
  H   H1341     1.0  0.38036  0.72302  0.89113  1.0000
  H   H1342     1.0  0.40265  0.73386  0.94346  1.0000
  N   N86       1.0  0.34011  0.55363  0.78786  1.0000
  C   C838      1.0  0.42100  0.70997  0.91609  1.0000
  C   C839      1.0  0.41141  0.74043  0.90065  1.0000
  C   C840      1.0  0.34181  0.53353  0.79465  1.0000
  H   H1343     1.0  0.34564  0.58057  0.80045  1.0000
  H   H1344     1.0  0.65152  0.70838  0.70271  1.0000
  H   H1345     1.0  0.43740  0.60505  0.92807  1.0000
  H   H1346     1.0  0.41920  0.73783  0.88477  1.0000
  H   H1347     1.0  0.39950  0.75047  0.89682  1.0000
  H   H1348     1.0  0.65950  0.56816  0.95912  1.0000
  H   H1349     1.0  0.41203  0.60302  0.97002  1.0000
  S   S334      1.0  0.46709  0.58695  0.00292  1.0000
  H   H1350     1.0  0.34686  0.54817  0.75386  1.0000
  C   C841      1.0  0.65621  0.71509  0.75737  1.0000
  S   S335      1.0  0.39065  0.74475  0.84684  1.0000
  H   H1351     1.0  0.43802  0.67930  0.77444  1.0000
  C   C842      1.0  0.66528  0.62104  0.77147  1.0000
  N   N87       1.0  0.44125  0.69000  0.74113  1.0000
  C   C843      1.0  0.44818  0.68315  0.71952  1.0000
  C   C844      1.0  0.44257  0.67447  0.75780  1.0000
  C   C845      1.0  0.42150  0.69684  0.73957  1.0000
  H   H1352     1.0  0.43984  0.67139  0.71421  1.0000
  H   H1353     1.0  0.40032  0.57492  0.95268  1.0000
  C   C846      1.0  0.42618  0.59586  0.96967  1.0000
  S   S336      1.0  0.61174  0.53389  0.99774  1.0000
  C   C847      1.0  0.55382  0.53842  0.99928  1.0000
  C   C848      1.0  0.41483  0.56860  0.95294  1.0000
  N   N88       1.0  0.65102  0.72063  0.73465  1.0000
  H   H1354     1.0  0.41602  0.56030  0.96877  1.0000
  H   H1355     1.0  0.55075  0.53761  0.98153  1.0000
  C   C849      1.0  0.66163  0.73700  0.72679  1.0000
  H   H1356     1.0  0.66143  0.55021  0.73669  1.0000
  H   H1357     1.0  0.57947  0.50966  0.00139  1.0000
  H   H1358     1.0  0.64637  0.66103  0.79422  1.0000
  H   H1359     1.0  0.62690  0.73789  0.74482  1.0000
  S   S337      1.0  0.59182  0.74852  0.71108  1.0000
  H   H1360     1.0  0.65863  0.74927  0.73745  1.0000
  H   H1361     1.0  0.56828  0.54346  0.00029  1.0000
  C   C850      1.0  0.43276  0.52671  0.00130  1.0000
  H   H1362     1.0  0.66868  0.63411  0.80238  1.0000
  Fe  Fe167     1.0  0.58807  0.68040  0.68238  1.0000
  H   H1363     1.0  0.44483  0.52086  0.99228  1.0000
  C   C851      1.0  0.41728  0.51561  0.00585  1.0000
  H   H1364     1.0  0.65780  0.74158  0.70974  1.0000
  H   H1365     1.0  0.64843  0.70270  0.76362  1.0000
  C   C852      1.0  0.66843  0.54294  0.94252  1.0000
  H   H1366     1.0  0.65293  0.72668  0.76891  1.0000
  H   H1367     1.0  0.67049  0.70044  0.71984  1.0000
  H   H1368     1.0  0.33829  0.56350  0.82096  1.0000
  H   H1369     1.0  0.67067  0.57290  0.74025  1.0000
  Fe  Fe168     1.0  0.36612  0.87974  0.14614  1.0000
  S   S338      1.0  0.38153  0.90503  0.13305  1.0000
  C   C853      1.0  0.44486  0.86389  0.07437  1.0000
  Fe  Fe169     1.0  0.40186  0.85385  0.14447  1.0000
  S   S339      1.0  0.41936  0.87770  0.13170  1.0000
  S   S340      1.0  0.41812  0.82532  0.14721  1.0000
  Fe  Fe170     1.0  0.40423  0.89577  0.15696  1.0000
  S   S341      1.0  0.41819  0.91254  0.18387  1.0000
  Fe  Fe171     1.0  0.39576  0.88507  0.10854  1.0000
  S   S342      1.0  0.40374  0.89189  0.07175  1.0000
  S   S343      1.0  0.38787  0.87128  0.17108  1.0000
  S   S344      1.0  0.37918  0.86045  0.12033  1.0000
  Fe  Fe172     1.0  0.49568  0.98361  0.23784  1.0000
  S   S345      1.0  0.49010  0.97872  0.27428  1.0000
  S   S346      1.0  0.48037  0.97101  0.20887  1.0000
  Fe  Fe173     1.0  0.52167  0.97822  0.27799  1.0000
  S   S347      1.0  0.54104  0.95418  0.29263  1.0000
  S   S348      1.0  0.52707  0.98129  0.24119  1.0000
  C   C854      1.0  0.43606  0.92840  0.19031  1.0000
  C   C855      1.0  0.44627  0.93847  0.17413  1.0000
  C   C856      1.0  0.45981  0.95116  0.18015  1.0000
  C   C857      1.0  0.46369  0.95390  0.20241  1.0000
  C   C858      1.0  0.45361  0.94370  0.21861  1.0000
  C   C859      1.0  0.43987  0.93124  0.21259  1.0000
  H   H1370     1.0  0.44361  0.93663  0.15693  1.0000
  H   H1371     1.0  0.46736  0.95890  0.16736  1.0000
  H   H1372     1.0  0.45637  0.94534  0.23579  1.0000
  H   H1373     1.0  0.43222  0.92355  0.22534  1.0000
  C   C860      1.0  0.41310  0.80320  0.16028  1.0000
  C   C861      1.0  0.39487  0.79839  0.16642  1.0000
  C   C862      1.0  0.39150  0.78044  0.17595  1.0000
  C   C863      1.0  0.40628  0.76705  0.17959  1.0000
  C   C864      1.0  0.42451  0.77185  0.17340  1.0000
  C   C865      1.0  0.42785  0.78975  0.16372  1.0000
  H   H1374     1.0  0.38338  0.80837  0.16339  1.0000
  H   H1375     1.0  0.37733  0.77684  0.18047  1.0000
  N   N89       1.0  0.43955  0.84442  0.07969  1.0000
  H   H1376     1.0  0.44202  0.79324  0.15899  1.0000
  N   N90       1.0  0.43452  0.00003  0.24000  1.0000
  C   C866      1.0  0.38528  0.87242  0.03972  1.0000
  C   C867      1.0  0.39819  0.88591  0.04417  1.0000
  C   C868      1.0  0.40743  0.89483  0.02607  1.0000
  H   H1377     1.0  0.56515  0.97030  0.25925  1.0000
  H   H1378     1.0  0.37798  0.86538  0.05328  1.0000
  H   H1379     1.0  0.41744  0.90530  0.02910  1.0000
  H   H1380     1.0  0.55447  0.88319  0.32576  1.0000
  H   H1381     1.0  0.55966  0.98902  0.29256  1.0000
  C   C869      1.0  0.55563  0.94558  0.31462  1.0000
  C   C870      1.0  0.44487  0.98689  0.25499  1.0000
  C   C871      1.0  0.36625  0.82897  0.20558  1.0000
  H   H1382     1.0  0.46029  0.86492  0.07249  1.0000
  C   C872      1.0  0.59455  0.97449  0.28460  1.0000
  H   H1383     1.0  0.44396  0.82325  0.10538  1.0000
  H   H1384     1.0  0.41695  0.97842  0.22966  1.0000
  C   C873      1.0  0.41896  0.84389  0.08200  1.0000
  H   H1385     1.0  0.44318  0.84679  0.11450  1.0000
  H   H1386     1.0  0.56529  0.84935  0.32403  1.0000
  C   C874      1.0  0.57530  0.98082  0.25314  1.0000
  C   C875      1.0  0.56656  0.92880  0.31189  1.0000
  C   C876      1.0  0.42618  0.98940  0.22259  1.0000
  C   C877      1.0  0.38172  0.86805  0.01767  1.0000
  H   H1387     1.0  0.43984  0.87362  0.08751  1.0000
  H   H1388     1.0  0.58478  0.96383  0.29137  1.0000
  H   H1389     1.0  0.44017  0.83679  0.04576  1.0000
  H   H1390     1.0  0.46352  0.83788  0.09952  1.0000
  H   H1391     1.0  0.44247  0.81732  0.06521  1.0000
  H   H1392     1.0  0.46182  0.83216  0.05950  1.0000
  H   H1393     1.0  0.35654  0.84206  0.16546  1.0000
  C   C878      1.0  0.55702  0.95504  0.33431  1.0000
  C   C879      1.0  0.44632  0.83210  0.06174  1.0000
  H   H1394     1.0  0.45644  0.97913  0.24600  1.0000
  N   N91       1.0  0.58446  0.98935  0.27157  1.0000
  H   H1395     1.0  0.58565  0.97350  0.24196  1.0000
  H   H1396     1.0  0.54882  0.96796  0.33681  1.0000
  H   H1397     1.0  0.43606  0.76178  0.17603  1.0000
  H   H1398     1.0  0.41341  0.85345  0.09494  1.0000
  H   H1399     1.0  0.41209  0.84857  0.06647  1.0000
  H   H1400     1.0  0.43852  0.86942  0.05882  1.0000
  C   C880      1.0  0.57854  0.92151  0.32850  1.0000
  H   H1401     1.0  0.58708  0.90889  0.32574  1.0000
  H   H1402     1.0  0.41437  0.82956  0.08675  1.0000
  H   H1403     1.0  0.35160  0.86409  0.19563  1.0000
  H   H1404     1.0  0.58776  0.87415  0.33030  1.0000
  H   H1405     1.0  0.56743  0.99163  0.24304  1.0000
  H   H1406     1.0  0.43564  0.97624  0.26276  1.0000
  H   H1407     1.0  0.37692  0.83782  0.19714  1.0000
  C   C881      1.0  0.44798  0.83778  0.10060  1.0000
  H   H1408     1.0  0.43722  0.98209  0.21223  1.0000
  C   C882      1.0  0.34632  0.83290  0.17428  1.0000
  H   H1409     1.0  0.56587  0.92143  0.29667  1.0000
  H   H1410     1.0  0.60549  0.96694  0.27441  1.0000
  H   H1411     1.0  0.40959  0.00051  0.26073  1.0000
  H   H1412     1.0  0.37015  0.81410  0.20183  1.0000
  H   H1413     1.0  0.34948  0.81826  0.16907  1.0000
  C   C883      1.0  0.59773  0.00320  0.26263  1.0000
  C   C884      1.0  0.34232  0.85402  0.20447  1.0000
  H   H1414     1.0  0.45119  0.99447  0.26845  1.0000
  H   H1415     1.0  0.60141  0.98034  0.29887  1.0000
  H   H1416     1.0  0.36754  0.83050  0.22363  1.0000
  H   H1417     1.0  0.57648  0.00531  0.30014  1.0000
  N   N92       1.0  0.34715  0.83443  0.19844  1.0000
  H   H1418     1.0  0.60872  0.99650  0.25171  1.0000
  H   H1419     1.0  0.41779  0.99877  0.21134  1.0000
  H   H1420     1.0  0.34344  0.85601  0.22245  1.0000
  C   C885      1.0  0.57015  0.99895  0.28585  1.0000
  H   H1421     1.0  0.37176  0.85754  0.01465  1.0000
  H   H1422     1.0  0.45906  0.00621  0.22016  1.0000
  Fe  Fe174     1.0  0.62133  0.84774  0.64491  1.0000
  S   S349      1.0  0.60515  0.86779  0.62212  1.0000
  S   S350      1.0  0.61439  0.81645  0.64441  1.0000
  Fe  Fe175     1.0  0.65081  0.87763  0.65264  1.0000
  S   S351      1.0  0.63682  0.89852  0.62914  1.0000
  Fe  Fe176     1.0  0.60982  0.89027  0.64676  1.0000
  Fe  Fe177     1.0  0.63314  0.87444  0.60634  1.0000
  S   S352      1.0  0.64090  0.86983  0.56927  1.0000
  H   H1423     1.0  0.56947  0.95497  0.36629  1.0000
  S   S353      1.0  0.64932  0.85415  0.62891  1.0000
  Fe  Fe178     1.0  0.62141  0.85434  0.38916  1.0000
  S   S354      1.0  0.60141  0.87482  0.40676  1.0000
  S   S355      1.0  0.60558  0.82884  0.37795  1.0000
  Fe  Fe179     1.0  0.65381  0.88122  0.39200  1.0000
  S   S356      1.0  0.63493  0.90301  0.40874  1.0000
  Fe  Fe180     1.0  0.62443  0.87913  0.43034  1.0000
  S   S357      1.0  0.61841  0.88448  0.46760  1.0000
  Fe  Fe181     1.0  0.61325  0.89718  0.38398  1.0000
  S   S358      1.0  0.59395  0.92182  0.37059  1.0000
  S   S359      1.0  0.64370  0.85725  0.41433  1.0000
  S   S360      1.0  0.63280  0.87686  0.36560  1.0000
  H   H1424     1.0  0.63686  0.82684  0.57470  1.0000
  H   H1425     1.0  0.54748  0.85949  0.38085  1.0000
  H   H1426     1.0  0.59511  0.86104  0.35429  1.0000
  C   C886      1.0  0.60130  0.76450  0.66960  1.0000
  C   C887      1.0  0.56272  0.84817  0.34218  1.0000
  C   C888      1.0  0.63416  0.87411  0.54117  1.0000
  C   C889      1.0  0.61912  0.88631  0.53527  1.0000
  C   C890      1.0  0.61447  0.88913  0.51285  1.0000
  C   C891      1.0  0.62455  0.87966  0.49584  1.0000
  C   C892      1.0  0.63936  0.86717  0.50181  1.0000
  C   C893      1.0  0.64418  0.86456  0.52418  1.0000
  H   H1427     1.0  0.61116  0.89377  0.54795  1.0000
  H   H1428     1.0  0.60296  0.89881  0.50864  1.0000
  H   H1429     1.0  0.64705  0.85938  0.48921  1.0000
  H   H1430     1.0  0.65571  0.85492  0.52840  1.0000
  C   C894      1.0  0.59261  0.81935  0.59432  1.0000
  N   N93       1.0  0.60724  0.82245  0.57696  1.0000
  H   H1431     1.0  0.56389  0.87722  0.38532  1.0000
  C   C895      1.0  0.60937  0.80496  0.36977  1.0000
  H   H1432     1.0  0.63934  0.80369  0.37180  1.0000
  H   H1433     1.0  0.60213  0.85241  0.57465  1.0000
  C   C896      1.0  0.61376  0.76688  0.35631  1.0000
  C   C897      1.0  0.60845  0.80637  0.56216  1.0000
  C   C898      1.0  0.60248  0.83989  0.56412  1.0000
  H   H1434     1.0  0.62954  0.81134  0.59722  1.0000
  C   C899      1.0  0.59380  0.79464  0.36472  1.0000
  C   C900      1.0  0.58475  0.87190  0.34824  1.0000
  C   C901      1.0  0.62934  0.77722  0.36132  1.0000
  H   H1435     1.0  0.66792  0.87623  0.46552  1.0000
  H   H1436     1.0  0.64321  0.77057  0.36012  1.0000
  H   H1437     1.0  0.61944  0.80826  0.54894  1.0000
  H   H1438     1.0  0.66148  0.88543  0.43904  1.0000
  H   H1439     1.0  0.58859  0.83938  0.55656  1.0000
  H   H1440     1.0  0.61304  0.84240  0.55059  1.0000
  C   C902      1.0  0.59594  0.77579  0.35806  1.0000
  H   H1441     1.0  0.57991  0.80121  0.36607  1.0000
  H   H1442     1.0  0.59583  0.80633  0.60441  1.0000
  H   H1443     1.0  0.58745  0.88512  0.35656  1.0000
  H   H1444     1.0  0.64631  0.91329  0.45559  1.0000
  H   H1445     1.0  0.62500  0.83610  0.59857  1.0000
  H   H1446     1.0  0.61201  0.79300  0.57140  1.0000
  C   C903      1.0  0.57959  0.93070  0.34845  1.0000
  C   C904      1.0  0.60843  0.79779  0.66347  1.0000
  C   C905      1.0  0.62720  0.79607  0.36800  1.0000
  C   C906      1.0  0.56195  0.86388  0.37680  1.0000
  H   H1447     1.0  0.59151  0.83112  0.60597  1.0000
  C   C907      1.0  0.62548  0.82417  0.58723  1.0000
  H   H1448     1.0  0.65256  0.90470  0.48243  1.0000
  H   H1449     1.0  0.59494  0.80469  0.55405  1.0000
  H   H1450     1.0  0.57862  0.81807  0.58727  1.0000
  H   H1451     1.0  0.60837  0.77746  0.63794  1.0000
  S   S361      1.0  0.58956  0.91530  0.65604  1.0000
  H   H1452     1.0  0.58378  0.76814  0.35433  1.0000
  H   H1453     1.0  0.57177  0.85297  0.38408  1.0000
  N   N94       1.0  0.56537  0.86620  0.35275  1.0000
  C   C908      1.0  0.65763  0.91300  0.46775  1.0000
  H   H1454     1.0  0.57259  0.83689  0.34865  1.0000
  C   C909      1.0  0.56881  0.94760  0.35106  1.0000
  C   C910      1.0  0.60626  0.77972  0.65538  1.0000
  H   H1455     1.0  0.56815  0.95012  0.66164  1.0000
  S   S362      1.0  0.62383  0.86967  0.67053  1.0000
  C   C911      1.0  0.55217  0.88088  0.34385  1.0000
  H   H1456     1.0  0.65916  0.92765  0.47292  1.0000
  H   H1457     1.0  0.62657  0.92838  0.66395  1.0000
  H   H1458     1.0  0.54827  0.84333  0.34530  1.0000
  H   H1459     1.0  0.55390  0.89462  0.35165  1.0000
  H   H1460     1.0  0.53737  0.87707  0.34687  1.0000
  H   H1461     1.0  0.64988  0.91907  0.66862  1.0000
  H   H1462     1.0  0.64470  0.94392  0.66965  1.0000
  C   C912      1.0  0.63913  0.92992  0.67396  1.0000
  C   C913      1.0  0.60563  0.80037  0.68610  1.0000
  Fe  Fe182     1.0  0.36592  0.88517  0.89405  1.0000
  S   S363      1.0  0.38425  0.90275  0.91422  1.0000
  H   H1463     1.0  0.60716  0.81412  0.69265  1.0000
  Fe  Fe183     1.0  0.39644  0.85318  0.89071  1.0000
  S   S364      1.0  0.41556  0.86864  0.91186  1.0000
  S   S365      1.0  0.41142  0.82681  0.87627  1.0000
  Fe  Fe184     1.0  0.39061  0.87598  0.93410  1.0000
  S   S366      1.0  0.38550  0.87099  0.97195  1.0000
  Fe  Fe185     1.0  0.40796  0.89424  0.89030  1.0000
  S   S367      1.0  0.43398  0.90979  0.87664  1.0000
  S   S368      1.0  0.37189  0.85858  0.91431  1.0000
  S   S369      1.0  0.38925  0.87861  0.86880  1.0000
  Fe  Fe186     1.0  0.49197  0.98112  0.78768  1.0000
  S   S370      1.0  0.49380  0.98062  0.75041  1.0000
  S   S371      1.0  0.46428  0.96978  0.80306  1.0000
  Fe  Fe187     1.0  0.52510  0.97542  0.75361  1.0000
  S   S372      1.0  0.54331  0.95063  0.73923  1.0000
  S   S373      1.0  0.52305  0.97457  0.79098  1.0000
  C   C914      1.0  0.44199  0.92653  0.85595  1.0000
  C   C915      1.0  0.46128  0.92984  0.85384  1.0000
  C   C916      1.0  0.46841  0.94272  0.83771  1.0000
  C   C917      1.0  0.45633  0.95271  0.82341  1.0000
  C   C918      1.0  0.43704  0.94930  0.82543  1.0000
  C   C919      1.0  0.42994  0.93629  0.84142  1.0000
  H   H1464     1.0  0.47084  0.92244  0.86487  1.0000
  H   H1465     1.0  0.48324  0.94507  0.83655  1.0000
  H   H1466     1.0  0.42746  0.95684  0.81457  1.0000
  H   H1467     1.0  0.41510  0.93399  0.84267  1.0000
  C   C920      1.0  0.34501  0.89648  0.95202  1.0000
  H   H1468     1.0  0.62518  0.95677  0.70105  1.0000
  C   C921      1.0  0.40516  0.80408  0.86823  1.0000
  C   C922      1.0  0.41941  0.79130  0.86072  1.0000
  C   C923      1.0  0.41528  0.77320  0.85396  1.0000
  C   C924      1.0  0.39676  0.76762  0.85453  1.0000
  C   C925      1.0  0.38252  0.78037  0.86212  1.0000
  C   C926      1.0  0.38666  0.79845  0.86894  1.0000
  H   H1469     1.0  0.43378  0.79542  0.86010  1.0000
  H   H1470     1.0  0.61577  0.94092  0.72184  1.0000
  H   H1471     1.0  0.36815  0.77624  0.86269  1.0000
  H   H1472     1.0  0.37552  0.80806  0.87462  1.0000
  H   H1473     1.0  0.61493  0.90662  0.69248  1.0000
  H   H1474     1.0  0.46252  0.85741  0.80844  1.0000
  C   C927      1.0  0.55724  0.95069  0.69529  1.0000
  C   C928      1.0  0.55593  0.94107  0.71573  1.0000
  C   C929      1.0  0.56502  0.92314  0.71778  1.0000
  C   C930      1.0  0.57512  0.91491  0.69980  1.0000
  H   H1475     1.0  0.35461  0.88798  0.94121  1.0000
  H   H1476     1.0  0.56407  0.91545  0.73340  1.0000
  C   C931      1.0  0.62720  0.90904  0.70262  1.0000
  H   H1477     1.0  0.41103  0.89767  0.99048  1.0000
  H   H1478     1.0  0.33973  0.90875  0.94183  1.0000
  H   H1479     1.0  0.64860  0.92816  0.72842  1.0000
  C   C932      1.0  0.60059  0.78516  0.70032  1.0000
  N   N95       1.0  0.63449  0.92783  0.69779  1.0000
  N   N96       1.0  0.44408  0.86342  0.83624  1.0000
  C   C933      1.0  0.42959  0.85088  0.82939  1.0000
  C   C934      1.0  0.46251  0.85711  0.82677  1.0000
  C   C935      1.0  0.44476  0.86283  0.86053  1.0000
  C   C936      1.0  0.43945  0.88288  0.82838  1.0000
  H   H1480     1.0  0.41556  0.85507  0.83664  1.0000
  H   H1481     1.0  0.42848  0.85105  0.81117  1.0000
  H   H1482     1.0  0.46641  0.84248  0.83246  1.0000
  H   H1483     1.0  0.47373  0.86629  0.83173  1.0000
  H   H1484     1.0  0.44794  0.84835  0.86721  1.0000
  H   H1485     1.0  0.45538  0.87227  0.86644  1.0000
  H   H1486     1.0  0.45021  0.89265  0.83317  1.0000
  H   H1487     1.0  0.42583  0.88826  0.83570  1.0000
  H   H1488     1.0  0.43853  0.88392  0.81015  1.0000
  C   C937      1.0  0.56735  0.94248  0.67731  1.0000
  C   C938      1.0  0.59833  0.76712  0.69221  1.0000
  H   H1489     1.0  0.45414  0.98666  0.75970  1.0000
  H   H1490     1.0  0.62263  0.90722  0.72022  1.0000
  C   C939      1.0  0.57639  0.92452  0.67933  1.0000
  C   C940      1.0  0.39089  0.87707  0.99956  1.0000
  H   H1491     1.0  0.63802  0.89774  0.69899  1.0000
  C   C941      1.0  0.33748  0.86877  0.97377  1.0000
  H   H1492     1.0  0.66264  0.91903  0.70577  1.0000
  H   H1493     1.0  0.34704  0.85981  0.96322  1.0000
  H   H1494     1.0  0.43937  0.99193  0.73685  1.0000
  H   H1495     1.0  0.35362  0.90169  0.96528  1.0000
  H   H1496     1.0  0.60724  0.94137  0.69447  1.0000
  H   H1497     1.0  0.58167  0.90102  0.70175  1.0000
  C   C942      1.0  0.65155  0.92986  0.71038  1.0000
  H   H1498     1.0  0.59829  0.78744  0.71773  1.0000
  C   C943      1.0  0.40380  0.89053  0.00402  1.0000
  C   C944      1.0  0.44747  0.99836  0.74972  1.0000
  H   H1499     1.0  0.42642  0.76362  0.84822  1.0000
  C   C945      1.0  0.62010  0.94239  0.70411  1.0000
  H   H1500     1.0  0.43266  0.83608  0.83508  1.0000
  H   H1501     1.0  0.43108  0.86759  0.86806  1.0000
  H   H1502     1.0  0.55036  0.96444  0.69327  1.0000
  Fe  Fe188     1.0  0.52722  0.00596  0.78868  1.0000
  H   H1503     1.0  0.41227  0.99260  0.76385  1.0000
  H   H1504     1.0  0.65750  0.94387  0.70715  1.0000
  H   H1505     1.0  0.42781  0.98830  0.78624  1.0000
  H   H1506     1.0  0.34592  0.87326  0.98758  1.0000
  C   C946      1.0  0.42114  0.99957  0.77554  1.0000
  H   H1507     1.0  0.45886  0.00620  0.74116  1.0000
  S   S374      1.0  0.90420  0.04144  0.04612  1.0000
  H   H1508     1.0  0.80853  0.12988  0.15966  1.0000
  Fe  Fe189     1.0  0.87351  0.04882  0.04271  1.0000
  S   S375      1.0  0.84955  0.04522  0.06813  1.0000
  S   S376      1.0  0.87852  0.07693  0.02663  1.0000
  Fe  Fe190     1.0  0.94909  0.20554  0.31664  1.0000
  S   S377      1.0  0.92171  0.21810  0.30438  1.0000
  S   S378      1.0  0.97596  0.21733  0.30135  1.0000
  H   H1509     1.0  0.75810  0.12318  0.15222  1.0000
  H   H1510     1.0  0.99574  0.03107  0.02889  1.0000
  Fe  Fe191     1.0  0.91157  0.18845  0.30640  1.0000
  S   S379      1.0  0.89959  0.17409  0.27681  1.0000
  H   H1511     1.0  0.78556  0.13127  0.17264  1.0000
  S   S380      1.0  0.93960  0.17595  0.31653  1.0000
  Fe  Fe192     1.0  0.82251  0.09980  0.23658  1.0000
  S   S381      1.0  0.83829  0.07538  0.22081  1.0000
  S   S382      1.0  0.83342  0.11742  0.26436  1.0000
  Fe  Fe193     1.0  0.78706  0.09412  0.20930  1.0000
  S   S383      1.0  0.80065  0.06933  0.19195  1.0000
  S   S384      1.0  0.75951  0.11036  0.20060  1.0000
  Fe  Fe194     1.0  0.81153  0.05985  0.22529  1.0000
  S   S385      1.0  0.81291  0.02777  0.23051  1.0000
  Fe  Fe195     1.0  0.82627  0.08623  0.18878  1.0000
  S   S386      1.0  0.84426  0.09027  0.15743  1.0000
  S   S387      1.0  0.79611  0.08357  0.24304  1.0000
  S   S388      1.0  0.81240  0.11173  0.20422  1.0000
  H   H1512     1.0  0.94266  0.20500  0.20513  1.0000
  C   C947      1.0  0.73801  0.10511  0.18843  1.0000
  C   C948      1.0  0.73449  0.08723  0.18114  1.0000
  C   C949      1.0  0.71729  0.08392  0.17145  1.0000
  C   C950      1.0  0.70336  0.09839  0.16877  1.0000
  C   C951      1.0  0.70699  0.11633  0.17580  1.0000
  C   C952      1.0  0.72417  0.11963  0.18555  1.0000
  H   H1513     1.0  0.74490  0.07589  0.18320  1.0000
  H   H1514     1.0  0.71468  0.06998  0.16613  1.0000
  H   H1515     1.0  0.69650  0.12763  0.17392  1.0000
  H   H1516     1.0  0.72667  0.13353  0.19109  1.0000
  H   H1517     1.0  0.98837  0.00757  0.02566  1.0000
  C   C953      1.0  0.82566  0.02022  0.16903  1.0000
  H   H1518     1.0  0.78449  0.09047  0.13612  1.0000
  C   C954      1.0  0.96098  0.03226  0.01339  1.0000
  C   C955      1.0  0.88061  0.15895  0.27339  1.0000
  C   C956      1.0  0.86638  0.15651  0.28951  1.0000
  C   C957      1.0  0.85214  0.14382  0.28637  1.0000
  C   C958      1.0  0.85160  0.13360  0.26693  1.0000
  C   C959      1.0  0.86566  0.13628  0.25066  1.0000
  C   C960      1.0  0.88003  0.14883  0.25389  1.0000
  H   H1519     1.0  0.86614  0.16459  0.30427  1.0000
  H   H1520     1.0  0.84125  0.14209  0.29899  1.0000
  H   H1521     1.0  0.86551  0.12860  0.23561  1.0000
  H   H1522     1.0  0.89080  0.15062  0.24117  1.0000
  C   C961      1.0  0.84537  0.07736  0.13289  1.0000
  C   C962      1.0  0.83170  0.06484  0.12800  1.0000
  C   C963      1.0  0.83315  0.05505  0.10814  1.0000
  C   C964      1.0  0.84822  0.05772  0.09299  1.0000
  C   C965      1.0  0.86179  0.07031  0.09788  1.0000
  C   C966      1.0  0.86032  0.08009  0.11768  1.0000
  H   H1523     1.0  0.81995  0.06288  0.13936  1.0000
  H   H1524     1.0  0.82253  0.04541  0.10443  1.0000
  H   H1525     1.0  0.87343  0.07256  0.08639  1.0000
  H   H1526     1.0  0.87091  0.08983  0.12124  1.0000
  H   H1527     1.0  0.80670  0.03629  0.27737  1.0000
  S   S389      1.0  0.93069  0.08724  0.04048  1.0000
  H   H1528     1.0  0.80398  0.09681  0.15178  1.0000
  H   H1529     1.0  0.76414  0.13935  0.13018  1.0000
  H   H1530     1.0  0.76078  0.11509  0.12464  1.0000
  H   H1531     1.0  0.78069  0.09805  0.16375  1.0000
  C   C967      1.0  0.99411  0.20706  0.28434  1.0000
  C   C968      1.0  0.94956  0.19035  0.25810  1.0000
  N   N97       1.0  0.90268  0.12429  0.32820  1.0000
  C   C969      1.0  0.85715  0.01894  0.15328  1.0000
  H   H1532     1.0  0.83196  0.03397  0.02454  1.0000
  H   H1533     1.0  0.96812  0.04094  0.06707  1.0000
  C   C970      1.0  0.95321  0.08935  0.02802  1.0000
  S   S390      1.0  0.68182  0.09311  0.15666  1.0000
  H   H1534     1.0  0.93132  0.22909  0.23110  1.0000
  C   C971      1.0  0.96691  0.09838  0.03924  1.0000
  Fe  Fe196     1.0  0.90315  0.02924  0.01257  1.0000
  Fe  Fe197     1.0  0.90915  0.06853  0.02731  1.0000
  H   H1535     1.0  0.96079  0.17939  0.25482  1.0000
  C   C972      1.0  0.96431  0.04413  0.04971  1.0000
  H   H1536     1.0  0.79165  0.14785  0.15107  1.0000
  H   H1537     1.0  0.91959  0.21207  0.24857  1.0000
  N   N98       1.0  0.96650  0.02729  0.03614  1.0000
  H   H1538     1.0  0.87831  0.14206  0.33564  1.0000
  N   N99       1.0  0.84573  0.02071  0.17392  1.0000
  H   H1539     1.0  0.89597  0.12585  0.29391  1.0000
  H   H1540     1.0  0.97810  0.20316  0.23331  1.0000
  H   H1541     1.0  0.96339  0.10430  0.05511  1.0000
  H   H1542     1.0  0.98372  0.17920  0.28540  1.0000
  H   H1543     1.0  0.84122  0.04020  0.19985  1.0000
  H   H1544     1.0  0.79630  0.13736  0.11266  1.0000
  C   C973      1.0  0.98520  0.09970  0.03016  1.0000
  H   H1545     1.0  0.94631  0.03816  0.01308  1.0000
  N   N100      1.0  0.78663  0.12017  0.14011  1.0000
  C   C974      1.0  0.79755  0.12260  0.11919  1.0000
  C   C975      1.0  0.79341  0.13286  0.15655  1.0000
  C   C976      1.0  0.78907  0.10050  0.14826  1.0000
  C   C977      1.0  0.76656  0.12466  0.13653  1.0000
  H   H1546     1.0  0.79274  0.11332  0.10635  1.0000
  H   H1547     1.0  0.81273  0.11902  0.12150  1.0000
  C   C978      1.0  0.99433  0.18823  0.27855  1.0000
  H   H1548     1.0  0.84522  0.05093  0.17308  1.0000
  Fe  Fe198     1.0  0.91323  0.22048  0.34035  1.0000
  H   H1549     1.0  0.86436  0.03982  0.18759  1.0000
  H   H1550     1.0  0.87238  0.01913  0.15643  1.0000
  H   H1551     1.0  0.93017  0.11265  0.31985  1.0000
  H   H1552     1.0  0.80808  0.02878  0.02017  1.0000
  C   C979      1.0  0.92288  0.12639  0.32335  1.0000
  H   H1553     1.0  0.93029  0.18775  0.22142  1.0000
  C   C980      1.0  0.93326  0.21865  0.24495  1.0000
  C   C981      1.0  0.89373  0.14284  0.33305  1.0000
  H   H1554     1.0  0.93942  0.01733  0.04576  1.0000
  H   H1555     1.0  0.96601  0.22397  0.22246  1.0000
  H   H1556     1.0  0.80476  0.01542  0.31091  1.0000
  H   H1557     1.0  0.93660  0.22659  0.25970  1.0000
  C   C982      1.0  0.81143  0.01355  0.25515  1.0000
  C   C983      1.0  0.95444  0.01253  0.04553  1.0000
  C   C984      1.0  0.98986  0.09203  0.00970  1.0000
  H   H1558     1.0  0.93621  0.18311  0.26098  1.0000
  C   C985      1.0  0.84931  0.03871  0.18401  1.0000
  C   C986      1.0  0.94383  0.19486  0.21940  1.0000
  C   C987      1.0  0.98626  0.02024  0.03586  1.0000
  H   H1559     1.0  0.81666  0.02179  0.18426  1.0000
  H   H1560     1.0  0.81373  0.04453  0.04132  1.0000
  N   N101      1.0  0.94825  0.20437  0.23971  1.0000
  H   H1561     1.0  0.87858  0.11538  0.31164  1.0000
  H   H1562     1.0  0.95274  0.19708  0.27370  1.0000
  C   C988      1.0  0.96631  0.21358  0.23652  1.0000
  H   H1563     1.0  0.95488  0.18398  0.21503  1.0000
  C   C989      1.0  0.89396  0.11662  0.30888  1.0000
  C   C990      1.0  0.80828  0.02121  0.27593  1.0000
  H   H1564     1.0  0.89633  0.15320  0.31932  1.0000
  H   H1565     1.0  0.94959  0.04999  0.05000  1.0000
  H   H1566     1.0  0.97332  0.05551  0.04316  1.0000
  H   H1567     1.0  0.85389  0.03077  0.14137  1.0000
  H   H1568     1.0  0.90007  0.10244  0.30498  1.0000
  H   H1569     1.0  0.79185  0.06894  0.02502  1.0000
  H   H1570     1.0  0.99565  0.10663  0.03900  1.0000
  H   H1571     1.0  0.96977  0.22124  0.25144  1.0000
  C   C991      1.0  0.81739  0.04015  0.02421  1.0000
  H   H1572     1.0  0.92523  0.13597  0.30875  1.0000
  H   H1573     1.0  0.82138  0.03181  0.15732  1.0000
  S   S391      1.0  0.87192  0.03396  0.01053  1.0000
  H   H1574     1.0  0.68254  0.25299  0.24885  1.0000
  H   H1575     1.0  0.92982  0.13242  0.33750  1.0000
  H   H1576     1.0  0.99089  0.01629  0.05276  1.0000
  C   C992      1.0  0.80716  0.00931  0.29494  1.0000
  H   H1577     1.0  0.95811  0.00841  0.06272  1.0000
  H   H1578     1.0  0.84320  0.06545  0.01422  1.0000
  H   H1579     1.0  0.82508  0.07581  0.03141  1.0000
  S   S392      1.0  0.90071  0.19181  0.34126  1.0000
  C   C993      1.0  0.82843  0.07089  0.01446  1.0000
  H   H1580     1.0  0.82236  0.00673  0.16168  1.0000
  N   N102      1.0  0.81586  0.05621  0.00823  1.0000
  C   C994      1.0  0.79637  0.06401  0.00839  1.0000
  S   S393      1.0  0.93554  0.18935  0.64337  1.0000
  Fe  Fe199     1.0  0.96143  0.11951  0.54579  1.0000
  S   S394      1.0  0.98343  0.12732  0.52000  1.0000
  S   S395      1.0  0.96556  0.12234  0.58270  1.0000
  Fe  Fe200     1.0  0.94011  0.09735  0.51297  1.0000
  S   S396      1.0  0.96047  0.10349  0.48499  1.0000
  S   S397      1.0  0.91603  0.07940  0.50504  1.0000
  Fe  Fe201     1.0  0.98284  0.09745  0.50960  1.0000
  S   S398      1.0  0.94106  0.20946  0.35265  1.0000
  Fe  Fe202     1.0  0.95920  0.13280  0.49731  1.0000
  S   S399      1.0  0.95860  0.15844  0.47388  1.0000
  S   S400      1.0  0.96250  0.08912  0.53660  1.0000
  S   S401      1.0  0.93715  0.12727  0.52399  1.0000
  H   H1581     1.0  0.92156  0.15664  0.66671  1.0000
  S   S402      1.0  0.92900  0.15636  0.37629  1.0000
  C   C995      1.0  0.95133  0.15707  0.44640  1.0000
  C   C996      1.0  0.94113  0.14210  0.43973  1.0000
  C   C997      1.0  0.93463  0.14198  0.41811  1.0000
  C   C998      1.0  0.93827  0.15677  0.40294  1.0000
  C   C999      1.0  0.94870  0.17163  0.40947  1.0000
  C   C1000     1.0  0.95516  0.17177  0.43113  1.0000
  H   H1582     1.0  0.93801  0.13075  0.45134  1.0000
  H   H1583     1.0  0.92661  0.13040  0.41323  1.0000
  H   H1584     1.0  0.95183  0.18297  0.39787  1.0000
  H   H1585     1.0  0.96318  0.18332  0.43613  1.0000
  C   C1001     1.0  0.94463  0.17079  0.62683  1.0000
  C   C1002     1.0  0.95411  0.15488  0.63577  1.0000
  C   C1003     1.0  0.96040  0.14017  0.62201  1.0000
  C   C1004     1.0  0.95722  0.14119  0.59925  1.0000
  C   C1005     1.0  0.94765  0.15704  0.59037  1.0000
  C   C1006     1.0  0.94143  0.17176  0.60410  1.0000
  H   H1586     1.0  0.95674  0.15396  0.65321  1.0000
  H   H1587     1.0  0.96782  0.12797  0.62903  1.0000
  H   H1588     1.0  0.94515  0.15802  0.57289  1.0000
  H   H1589     1.0  0.93408  0.18401  0.59703  1.0000
  H   H1590     1.0  0.88834  0.23021  0.40148  1.0000
  C   C1007     1.0  0.92384  0.03276  0.54445  1.0000
  C   C1008     1.0  0.92442  0.05126  0.53582  1.0000
  C   C1009     1.0  0.91481  0.05650  0.51680  1.0000
  C   C1010     1.0  0.90440  0.04318  0.50663  1.0000
  C   C1011     1.0  0.90393  0.02459  0.51518  1.0000
  H   H1591     1.0  0.94961  0.05819  0.49324  1.0000
  H   H1592     1.0  0.93217  0.06150  0.54400  1.0000
  H   H1593     1.0  0.89682  0.04720  0.49198  1.0000
  H   H1594     1.0  0.93129  0.02881  0.55922  1.0000
  H   H1595     1.0  0.88624  0.14882  0.62471  1.0000
  H   H1596     1.0  0.91759  0.21357  0.44840  1.0000
  H   H1597     1.0  0.94147  0.02468  0.49835  1.0000
  C   C1012     1.0  0.88445  0.20410  0.43374  1.0000
  H   H1598     1.0  0.88390  0.12257  0.66531  1.0000
  C   C1013     1.0  0.91372  0.01934  0.53410  1.0000
  H   H1599     1.0  0.99764  0.03893  0.48159  1.0000
  Fe  Fe203     1.0  0.92921  0.18084  0.35136  1.0000
  C   C1014     1.0  0.97316  0.03540  0.51572  1.0000
  H   H1600     1.0  0.96050  0.04008  0.52549  1.0000
  H   H1601     1.0  0.88505  0.10968  0.35175  1.0000
  H   H1602     1.0  0.97298  0.06367  0.48481  1.0000
  H   H1603     1.0  0.95837  0.05271  0.46613  1.0000
  H   H1604     1.0  0.90671  0.09726  0.34454  1.0000
  C   C1015     1.0  0.89861  0.14682  0.63527  1.0000
  C   C1016     1.0  0.91816  0.20426  0.43404  1.0000
  H   H1605     1.0  0.91590  0.19650  0.39147  1.0000
  H   H1606     1.0  0.88295  0.21371  0.44782  1.0000
  H   H1607     1.0  0.98406  0.02801  0.46172  1.0000
  H   H1608     1.0  0.90050  0.23740  0.42491  1.0000
  H   H1609     1.0  0.90319  0.17962  0.40765  1.0000
  H   H1610     1.0  0.91335  0.23002  0.40050  1.0000
  H   H1611     1.0  0.89931  0.14862  0.34816  1.0000
  H   H1612     1.0  0.98409  0.04558  0.51843  1.0000
  S   S403      1.0  0.89574  0.24411  0.35730  1.0000
  C   C1017     1.0  0.90094  0.22714  0.41150  1.0000
  H   H1613     1.0  0.93136  0.20692  0.42442  1.0000
  H   H1614     1.0  0.91927  0.18947  0.44061  1.0000
  C   C1018     1.0  0.95473  0.02054  0.48931  1.0000
  H   H1615     1.0  0.90925  0.15666  0.62869  1.0000
  C   C1019     1.0  0.96222  0.05302  0.48368  1.0000
  H   H1616     1.0  0.88461  0.18942  0.44067  1.0000
  H   H1617     1.0  0.86608  0.13972  0.65703  1.0000
  H   H1618     1.0  0.95134  0.01935  0.47169  1.0000
  C   C1020     1.0  0.91038  0.14697  0.67203  1.0000
  H   H1619     1.0  0.90466  0.13232  0.63305  1.0000
  C   C1021     1.0  0.98651  0.02869  0.47966  1.0000
  N   N103      1.0  0.90162  0.20753  0.42027  1.0000
  N   N104      1.0  0.96916  0.03439  0.49208  1.0000
  H   H1620     1.0  0.91639  0.13239  0.67050  1.0000
  C   C1022     1.0  0.90291  0.19458  0.40173  1.0000
  H   H1621     1.0  0.89087  0.19695  0.39069  1.0000
  H   H1622     1.0  0.87171  0.20629  0.42378  1.0000
  H   H1623     1.0  0.90667  0.11690  0.36236  1.0000
  N   N105      1.0  0.89363  0.15032  0.65866  1.0000
  C   C1023     1.0  0.88657  0.17001  0.66080  1.0000
  C   C1024     1.0  0.87900  0.13755  0.66665  1.0000
  H   H1624     1.0  0.87392  0.17310  0.65095  1.0000
  H   H1625     1.0  0.89731  0.18002  0.65489  1.0000
  C   C1025     1.0  0.90015  0.11144  0.34756  1.0000
  H   H1626     1.0  0.00199  0.07446  0.56850  1.0000
  H   H1627     1.0  0.89599  0.01437  0.50716  1.0000
  H   H1628     1.0  0.99215  0.09104  0.58768  1.0000
  H   H1629     1.0  0.97810  0.02151  0.52271  1.0000
  H   H1630     1.0  0.00210  0.11802  0.56295  1.0000
  H   H1631     1.0  0.99216  0.01467  0.48549  1.0000
  Fe  Fe204     1.0  0.87835  0.06192  0.99451  1.0000
  H   H1632     1.0  0.84606  0.25137  0.73572  1.0000
  S   S404      1.0  0.86014  0.07704  0.96870  1.0000
  H   H1633     1.0  0.87872  0.23137  0.71115  1.0000
  H   H1634     1.0  0.87760  0.22194  0.77171  1.0000
  C   C1026     1.0  0.75141  0.08155  0.78090  1.0000
  S   S405      1.0  0.90957  0.05619  0.99386  1.0000
  C   C1027     1.0  0.99632  0.21234  0.75821  1.0000
  Fe  Fe205     1.0  0.92402  0.22403  0.71259  1.0000
  S   S406      1.0  0.95204  0.21406  0.69799  1.0000
  H   H1635     1.0  0.81018  0.01009  0.80300  1.0000
  Fe  Fe206     1.0  0.91092  0.18325  0.72190  1.0000
  S   S407      1.0  0.93790  0.17056  0.70762  1.0000
  S   S408      1.0  0.88315  0.16838  0.72800  1.0000
  Fe  Fe207     1.0  0.95237  0.19255  0.72625  1.0000
  S   S409      1.0  0.97755  0.18108  0.74572  1.0000
  C   C1028     1.0  0.86672  0.22315  0.71763  1.0000
  S   S410      1.0  0.92535  0.20383  0.74220  1.0000
  S   S411      1.0  0.90815  0.20415  0.69352  1.0000
  Fe  Fe208     1.0  0.80351  0.05898  0.80345  1.0000
  S   S412      1.0  0.79785  0.09020  0.79787  1.0000
  S   S413      1.0  0.79455  0.04113  0.77519  1.0000
  Fe  Fe209     1.0  0.81826  0.06493  0.84954  1.0000
  S   S414      1.0  0.81266  0.09617  0.84708  1.0000
  S   S415      1.0  0.83382  0.04850  0.87675  1.0000
  Fe  Fe210     1.0  0.78519  0.08932  0.83250  1.0000
  S   S416      1.0  0.75730  0.10618  0.83794  1.0000
  Fe  Fe211     1.0  0.82574  0.09448  0.81268  1.0000
  S   S417      1.0  0.85125  0.11265  0.80454  1.0000
  S   S418      1.0  0.78990  0.05805  0.83743  1.0000
  S   S419      1.0  0.83225  0.06327  0.81578  1.0000
  H   H1636     1.0  0.82779  0.08325  0.00277  1.0000
  C   C1029     1.0  0.73534  0.10115  0.85135  1.0000
  C   C1030     1.0  0.72061  0.11496  0.85086  1.0000
  C   C1031     1.0  0.70270  0.11141  0.86026  1.0000
  C   C1032     1.0  0.69920  0.09387  0.87023  1.0000
  C   C1033     1.0  0.71393  0.08005  0.87067  1.0000
  C   C1034     1.0  0.73187  0.08364  0.86142  1.0000
  H   H1637     1.0  0.72304  0.12856  0.84310  1.0000
  H   H1638     1.0  0.69159  0.12221  0.85970  1.0000
  H   H1639     1.0  0.71145  0.06646  0.87840  1.0000
  H   H1640     1.0  0.74299  0.07288  0.86222  1.0000
  H   H1641     1.0  0.88381  0.20501  0.75118  1.0000
  H   H1642     1.0  0.83426  0.21888  0.74029  1.0000
  H   H1643     1.0  0.97960  0.07727  0.98250  1.0000
  H   H1644     1.0  0.74511  0.08911  0.76647  1.0000
  C   C1035     1.0  0.85979  0.12794  0.78280  1.0000
  C   C1036     1.0  0.84957  0.13285  0.76406  1.0000
  C   C1037     1.0  0.85696  0.14516  0.74754  1.0000
  C   C1038     1.0  0.87470  0.15270  0.74938  1.0000
  C   C1039     1.0  0.88495  0.14775  0.76806  1.0000
  C   C1040     1.0  0.87752  0.13552  0.78462  1.0000
  H   H1645     1.0  0.83592  0.12723  0.76235  1.0000
  H   H1646     1.0  0.84882  0.14885  0.73324  1.0000
  H   H1647     1.0  0.89859  0.15337  0.76983  1.0000
  H   H1648     1.0  0.88562  0.13191  0.79897  1.0000
  C   C1041     1.0  0.85274  0.06858  0.94344  1.0000
  C   C1042     1.0  0.85840  0.05080  0.93602  1.0000
  C   C1043     1.0  0.85216  0.04475  0.91577  1.0000
  C   C1044     1.0  0.84020  0.05636  0.90277  1.0000
  C   C1045     1.0  0.83425  0.07401  0.91044  1.0000
  C   C1046     1.0  0.84058  0.08010  0.93060  1.0000
  H   H1649     1.0  0.86769  0.04176  0.94577  1.0000
  H   H1650     1.0  0.85678  0.03104  0.91003  1.0000
  H   H1651     1.0  0.82477  0.08297  0.90086  1.0000
  H   H1652     1.0  0.83599  0.09383  0.93631  1.0000
  H   H1653     1.0  0.71134  0.06990  0.80880  1.0000
  C   C1047     1.0  0.79053  0.00856  0.75300  1.0000
  H   H1654     1.0  0.72643  0.06118  0.76133  1.0000
  N   N106      1.0  0.73828  0.06847  0.79176  1.0000
  H   H1655     1.0  0.83608  0.04420  0.98506  1.0000
  H   H1656     1.0  0.76453  0.07399  0.77502  1.0000
  C   C1048     1.0  0.72124  0.07913  0.79958  1.0000
  H   H1657     1.0  0.72339  0.04427  0.78366  1.0000
  S   S420      1.0  0.91126  0.25390  0.71745  1.0000
  N   N107      1.0  0.87663  0.08973  0.86053  1.0000
  C   C1049     1.0  0.88935  0.10409  0.85159  1.0000
  C   C1050     1.0  0.85808  0.09877  0.86564  1.0000
  C   C1051     1.0  0.88424  0.08082  0.88085  1.0000
  C   C1052     1.0  0.87473  0.07525  0.84398  1.0000
  H   H1658     1.0  0.90353  0.09783  0.84756  1.0000
  H   H1659     1.0  0.89088  0.11537  0.86355  1.0000
  H   H1660     1.0  0.88391  0.11091  0.83615  1.0000
  H   H1661     1.0  0.85242  0.10663  0.85103  1.0000
  H   H1662     1.0  0.84780  0.08815  0.87079  1.0000
  H   H1663     1.0  0.85863  0.10886  0.87915  1.0000
  H   H1664     1.0  0.87496  0.06980  0.88775  1.0000
  H   H1665     1.0  0.88549  0.09124  0.89393  1.0000
  H   H1666     1.0  0.89831  0.07398  0.87771  1.0000
  H   H1667     1.0  0.86514  0.06422  0.85017  1.0000
  H   H1668     1.0  0.88845  0.06815  0.83962  1.0000
  H   H1669     1.0  0.86886  0.08147  0.82850  1.0000
  H   H1670     1.0  0.85035  0.19956  0.74698  1.0000
  C   C1053     1.0  0.82131  0.04987  0.98588  1.0000
  C   C1054     1.0  0.00183  0.13609  0.93787  1.0000
  H   H1671     1.0  0.78405  0.01770  0.74061  1.0000
  H   H1672     1.0  0.99297  0.15714  0.97254  1.0000
  H   H1673     1.0  0.87505  0.13991  0.68432  1.0000
  H   H1674     1.0  0.78649  0.05332  0.00369  1.0000
  H   H1675     1.0  0.82034  0.06169  0.97344  1.0000
  C   C1055     1.0  0.84719  0.21487  0.74931  1.0000
  H   H1676     1.0  0.79482  0.07620  0.99653  1.0000
  C   C1056     1.0  0.73324  0.05439  0.77593  1.0000
  S   S421      1.0  0.67679  0.08822  0.88197  1.0000
  H   H1677     1.0  0.87014  0.20807  0.71444  1.0000
  H   H1678     1.0  0.98637  0.22082  0.74873  1.0000
  H   H1679     1.0  0.85439  0.22763  0.70778  1.0000
  C   C1057     1.0  0.74735  0.05878  0.81070  1.0000
  H   H1680     1.0  0.85595  0.24912  0.76258  1.0000
  H   H1681     1.0  0.84404  0.21675  0.76720  1.0000
  H   H1682     1.0  0.81228  0.03867  0.98059  1.0000
  H   H1683     1.0  0.71369  0.08620  0.78568  1.0000
  C   C1058     1.0  0.97611  0.08314  0.99839  1.0000
  H   H1684     1.0  0.90704  0.14927  0.68982  1.0000
  H   H1685     1.0  0.72475  0.09029  0.81094  1.0000
  H   H1686     1.0  0.76010  0.05034  0.80532  1.0000
  H   H1687     1.0  0.83096  0.01023  0.72916  1.0000
  H   H1688     1.0  0.88286  0.17318  0.67828  1.0000
  H   H1689     1.0  0.74591  0.04614  0.76985  1.0000
  H   H1690     1.0  0.94737  0.07497  0.99863  1.0000
  N   N108      1.0  0.86307  0.22612  0.74138  1.0000
  C   C1059     1.0  0.99497  0.19282  0.75951  1.0000
  H   H1691     1.0  0.73776  0.04915  0.81975  1.0000
  H   H1692     1.0  0.75175  0.06904  0.82267  1.0000
  C   C1060     1.0  0.79704  0.01637  0.77215  1.0000
  H   H1693     1.0  0.75545  0.09239  0.79245  1.0000
  H   H1694     1.0  0.96173  0.01975  0.00285  1.0000
  H   H1695     1.0  0.98955  0.14592  0.93508  1.0000
  Fe  Fe212     1.0  0.93593  0.19272  0.68055  1.0000
  H   H1696     1.0  0.99647  0.12265  0.94493  1.0000
  H   H1697     1.0  0.00118  0.13433  0.98271  1.0000
  C   C1061     1.0  0.87987  0.22011  0.75369  1.0000
  C   C1062     1.0  0.85864  0.24629  0.74482  1.0000
  H   H1698     1.0  0.97015  0.04293  0.00553  1.0000
  H   H1699     1.0  0.84103  0.00898  0.68919  1.0000
  C   C1063     1.0  0.95786  0.08178  0.00750  1.0000
  H   H1700     1.0  0.89207  0.22848  0.74829  1.0000
  H   H1701     1.0  0.87049  0.25500  0.73886  1.0000
  H   H1702     1.0  0.71073  0.48119  0.23000  1.0000
  Fe  Fe213     1.0  0.71186  0.43751  0.31730  1.0000
  S   S422      1.0  0.72437  0.41313  0.29855  1.0000
  S   S423      1.0  0.71800  0.46835  0.30989  1.0000
  Fe  Fe214     1.0  0.69697  0.39895  0.30529  1.0000
  H   H1703     1.0  0.99978  0.41837  0.29667  1.0000
  C   C1064     1.0  0.77813  0.42502  0.29437  1.0000
  Fe  Fe215     1.0  0.73341  0.40157  0.33182  1.0000
  H   H1704     1.0  0.67317  0.35139  0.30364  1.0000
  H   H1705     1.0  0.75808  0.45969  0.32563  1.0000
  C   C1065     1.0  0.00322  0.43382  0.25589  1.0000
  H   H1706     1.0  0.76562  0.41636  0.29367  1.0000
  S   S424      1.0  0.97941  0.45485  0.30425  1.0000
  S   S425      1.0  0.70699  0.38530  0.33697  1.0000
  S   S426      1.0  0.99164  0.48546  0.25287  1.0000
  S   S427      1.0  0.68040  0.38634  0.27765  1.0000
  H   H1707     1.0  0.68042  0.30269  0.22773  1.0000
  C   C1066     1.0  0.71272  0.48715  0.24584  1.0000
  C   C1067     1.0  0.95732  0.42847  0.32584  1.0000
  H   H1708     1.0  0.79764  0.45571  0.28427  1.0000
  N   N109      1.0  0.77278  0.44471  0.29957  1.0000
  H   H1709     1.0  0.78584  0.42405  0.27822  1.0000
  H   H1710     1.0  0.75001  0.43691  0.32105  1.0000
  C   C1068     1.0  0.71321  0.47525  0.26489  1.0000
  C   C1069     1.0  0.71600  0.48271  0.28548  1.0000
  H   H1711     1.0  0.99586  0.39784  0.26518  1.0000
  H   H1712     1.0  0.76736  0.45284  0.26582  1.0000
  H   H1713     1.0  0.71157  0.46032  0.26362  1.0000
  C   C1070     1.0  0.76043  0.45304  0.28247  1.0000
  C   C1071     1.0  0.78976  0.45565  0.30039  1.0000
  C   C1072     1.0  0.96330  0.44708  0.32574  1.0000
  C   C1073     1.0  0.69644  0.50216  0.17568  1.0000
  C   C1074     1.0  0.71817  0.50216  0.28674  1.0000
  H   H1714     1.0  0.67888  0.26015  0.22069  1.0000
  H   H1715     1.0  0.96239  0.41929  0.31293  1.0000
  C   C1075     1.0  0.76276  0.44513  0.32122  1.0000
  H   H1716     1.0  0.74727  0.44535  0.28174  1.0000
  H   H1717     1.0  0.75609  0.46790  0.28597  1.0000
  H   H1718     1.0  0.77152  0.43890  0.33461  1.0000
  H   H1719     1.0  0.78713  0.41818  0.30723  1.0000
  H   H1720     1.0  0.79995  0.36993  0.33388  1.0000
  Fe  Fe216     1.0  0.99550  0.48016  0.28937  1.0000
  S   S428      1.0  0.76370  0.38908  0.33287  1.0000
  S   S429      1.0  0.68387  0.42454  0.32164  1.0000
  H   H1721     1.0  0.68513  0.29271  0.26650  1.0000
  H   H1722     1.0  0.98838  0.43219  0.26150  1.0000
  H   H1723     1.0  0.69456  0.49785  0.19340  1.0000
  H   H1724     1.0  0.69836  0.48916  0.16609  1.0000
  C   C1076     1.0  0.68182  0.26540  0.23724  1.0000
  H   H1725     1.0  0.78612  0.47053  0.30445  1.0000
  H   H1726     1.0  0.69591  0.27145  0.23620  1.0000
  H   H1727     1.0  0.67188  0.27402  0.27897  1.0000
  H   H1728     1.0  0.79933  0.44966  0.31316  1.0000
  C   C1077     1.0  0.67146  0.28587  0.26659  1.0000
  H   H1729     1.0  0.00408  0.43351  0.23757  1.0000
  H   H1730     1.0  0.68402  0.50638  0.13421  1.0000
  C   C1078     1.0  0.84967  0.38736  0.56221  1.0000
  H   H1731     1.0  0.82847  0.37396  0.35522  1.0000
  S   S430      1.0  0.69700  0.43829  0.64539  1.0000
  Fe  Fe217     1.0  0.89785  0.35654  0.39140  1.0000
  S   S431      1.0  0.88916  0.38210  0.37021  1.0000
  S   S432      1.0  0.91283  0.32929  0.37913  1.0000
  Fe  Fe218     1.0  0.89149  0.37698  0.43532  1.0000
  S   S433      1.0  0.88245  0.40382  0.41732  1.0000
  S   S434      1.0  0.89322  0.36766  0.47238  1.0000
  Fe  Fe219     1.0  0.86552  0.38640  0.39548  1.0000
  S   S435      1.0  0.83678  0.40124  0.38884  1.0000
  Fe  Fe220     1.0  0.90632  0.39872  0.39238  1.0000
  S   S436      1.0  0.92224  0.42524  0.38122  1.0000
  S   S437      1.0  0.87297  0.35969  0.41511  1.0000
  S   S438      1.0  0.91662  0.37311  0.41204  1.0000
  Fe  Fe221     1.0  0.89716  0.35463  0.64498  1.0000
  S   S439      1.0  0.91851  0.37460  0.63101  1.0000
  S   S440      1.0  0.90790  0.32370  0.64776  1.0000
  Fe  Fe222     1.0  0.86627  0.38636  0.64682  1.0000
  S   S441      1.0  0.88650  0.40798  0.63418  1.0000
  H   H1732     1.0  0.87276  0.27437  0.37562  1.0000
  Fe  Fe223     1.0  0.89584  0.38648  0.60878  1.0000
  S   S442      1.0  0.89748  0.39681  0.57201  1.0000
  Fe  Fe224     1.0  0.90755  0.39432  0.65744  1.0000
  C   C1079     1.0  0.87493  0.43321  0.36310  1.0000
  S   S443      1.0  0.87532  0.36533  0.62106  1.0000
  H   H1733     1.0  0.81613  0.42068  0.57574  1.0000
  C   C1080     1.0  0.68378  0.44323  0.43110  1.0000
  C   C1081     1.0  0.93806  0.43309  0.35948  1.0000
  H   H1734     1.0  0.69370  0.44736  0.59948  1.0000
  H   H1735     1.0  0.85956  0.40072  0.60060  1.0000
  C   C1082     1.0  0.89437  0.37622  0.49993  1.0000
  C   C1083     1.0  0.89393  0.36329  0.51806  1.0000
  C   C1084     1.0  0.89496  0.36919  0.54006  1.0000
  C   C1085     1.0  0.89659  0.38822  0.54445  1.0000
  C   C1086     1.0  0.89697  0.40116  0.52634  1.0000
  C   C1087     1.0  0.89584  0.39526  0.50435  1.0000
  H   H1736     1.0  0.89277  0.34852  0.51508  1.0000
  H   H1737     1.0  0.89460  0.35897  0.55361  1.0000
  H   H1738     1.0  0.89819  0.41592  0.52932  1.0000
  H   H1739     1.0  0.89624  0.40548  0.49080  1.0000
  C   C1088     1.0  0.82662  0.38654  0.59216  1.0000
  H   H1740     1.0  0.94279  0.29975  0.46316  1.0000
  H   H1741     1.0  0.77149  0.41535  0.36776  1.0000
  N   N110      1.0  0.83784  0.39891  0.57745  1.0000
  H   H1742     1.0  0.84741  0.45919  0.39849  1.0000
  H   H1743     1.0  0.83575  0.37690  0.60236  1.0000
  H   H1744     1.0  0.92493  0.29079  0.44679  1.0000
  H   H1745     1.0  0.81593  0.40385  0.55435  1.0000
  H   H1746     1.0  0.79692  0.40915  0.64164  1.0000
  H   H1747     1.0  0.83330  0.42131  0.55345  1.0000
  C   C1089     1.0  0.80023  0.40884  0.37666  1.0000
  C   C1090     1.0  0.81648  0.39713  0.37350  1.0000
  C   C1091     1.0  0.79816  0.40429  0.65860  1.0000
  C   C1092     1.0  0.91725  0.28734  0.66152  1.0000
  C   C1093     1.0  0.68326  0.43726  0.60390  1.0000
  H   H1748     1.0  0.80017  0.41969  0.38870  1.0000
  C   C1094     1.0  0.68218  0.42973  0.62558  1.0000
  C   C1095     1.0  0.82522  0.41176  0.56466  1.0000
  H   H1749     1.0  0.92888  0.35004  0.45235  1.0000
  H   H1750     1.0  0.94580  0.36905  0.66675  1.0000
  H   H1751     1.0  0.84154  0.41879  0.60274  1.0000
  C   C1096     1.0  0.90807  0.30444  0.66739  1.0000
  C   C1097     1.0  0.81618  0.38309  0.35796  1.0000
  H   H1752     1.0  0.93556  0.29913  0.36060  1.0000
  C   C1098     1.0  0.78390  0.40644  0.36474  1.0000
  Fe  Fe225     1.0  0.69473  0.41145  0.35318  1.0000
  C   C1099     1.0  0.94397  0.45172  0.35933  1.0000
  H   H1753     1.0  0.89648  0.32421  0.45321  1.0000
  C   C1100     1.0  0.81558  0.39692  0.66588  1.0000
  S   S444      1.0  0.83504  0.39571  0.64661  1.0000
  H   H1754     1.0  0.85973  0.37786  0.57133  1.0000
  C   C1101     1.0  0.91849  0.27500  0.35897  1.0000
  C   C1102     1.0  0.92182  0.29377  0.36401  1.0000
  C   C1103     1.0  0.90752  0.30574  0.37305  1.0000
  C   C1104     1.0  0.88985  0.29850  0.37733  1.0000
  C   C1105     1.0  0.88655  0.27969  0.37241  1.0000
  C   C1106     1.0  0.68520  0.43374  0.41104  1.0000
  H   H1755     1.0  0.87866  0.30743  0.38424  1.0000
  H   H1756     1.0  0.93562  0.31019  0.41441  1.0000
  H   H1757     1.0  0.88750  0.43545  0.35213  1.0000
  H   H1758     1.0  0.85959  0.47879  0.36703  1.0000
  H   H1759     1.0  0.92120  0.33612  0.47561  1.0000
  H   H1760     1.0  0.90466  0.33739  0.42963  1.0000
  H   H1761     1.0  0.88044  0.46897  0.39766  1.0000
  H   H1762     1.0  0.92360  0.28608  0.64518  1.0000
  H   H1763     1.0  0.69399  0.45337  0.43456  1.0000
  H   H1764     1.0  0.87882  0.42158  0.37483  1.0000
  C   C1107     1.0  0.84991  0.41002  0.59080  1.0000
  H   H1765     1.0  0.94073  0.34628  0.65712  1.0000
  C   C1108     1.0  0.90078  0.26781  0.36304  1.0000
  H   H1766     1.0  0.85881  0.41937  0.58029  1.0000
  H   H1767     1.0  0.93762  0.33489  0.41689  1.0000
  H   H1768     1.0  0.85815  0.39631  0.55071  1.0000
  H   H1769     1.0  0.91867  0.30175  0.47242  1.0000
  H   H1770     1.0  0.95377  0.31887  0.43067  1.0000
  H   H1771     1.0  0.69644  0.43661  0.39922  1.0000
  H   H1772     1.0  0.85559  0.43513  0.40175  1.0000
  H   H1773     1.0  0.81746  0.37777  0.58271  1.0000
  H   H1774     1.0  0.94530  0.33429  0.46611  1.0000
  H   H1775     1.0  0.94049  0.40721  0.34220  1.0000
  H   H1776     1.0  0.90257  0.31272  0.42763  1.0000
  N   N111      1.0  0.92610  0.32083  0.44581  1.0000
  C   C1109     1.0  0.90658  0.32381  0.43885  1.0000
  C   C1110     1.0  0.93064  0.33592  0.46062  1.0000
  C   C1111     1.0  0.93890  0.32117  0.42617  1.0000
  C   C1112     1.0  0.92823  0.30244  0.45758  1.0000
  C   C1113     1.0  0.85241  0.44658  0.38933  1.0000
  H   H1777     1.0  0.84116  0.37850  0.55207  1.0000
  H   H1778     1.0  0.93900  0.46085  0.37235  1.0000
  H   H1779     1.0  0.81751  0.39482  0.60389  1.0000
  C   C1114     1.0  0.78362  0.39241  0.34917  1.0000
  H   H1780     1.0  0.88848  0.44483  0.40072  1.0000
  C   C1115     1.0  0.88439  0.45610  0.38844  1.0000
  H   H1781     1.0  0.96413  0.35113  0.66415  1.0000
  S   S445      1.0  0.72171  0.42644  0.35050  1.0000
  H   H1782     1.0  0.96083  0.47297  0.34300  1.0000
  H   H1783     1.0  0.89719  0.45890  0.37810  1.0000
  H   H1784     1.0  0.67194  0.43778  0.57131  1.0000
  C   C1116     1.0  0.79992  0.38085  0.34584  1.0000
  N   N112      1.0  0.86896  0.45038  0.37490  1.0000
  C   C1117     1.0  0.94912  0.35369  0.66898  1.0000
  H   H1785     1.0  0.84057  0.44188  0.37975  1.0000
  H   H1786     1.0  0.92541  0.25877  0.67163  1.0000
  S   S446      1.0  0.88648  0.37390  0.67175  1.0000
  C   C1118     1.0  0.86415  0.46560  0.35871  1.0000
  H   H1787     1.0  0.76908  0.41140  0.66719  1.0000
  H   H1788     1.0  0.92963  0.26615  0.35182  1.0000
  C   C1119     1.0  0.95643  0.45867  0.34265  1.0000
  H   H1789     1.0  0.86356  0.42817  0.35305  1.0000
  S   S447      1.0  0.67326  0.40802  0.38158  1.0000
  C   C1120     1.0  0.67212  0.42053  0.40644  1.0000
  C   C1121     1.0  0.67086  0.43196  0.58795  1.0000
  H   H1790     1.0  0.85259  0.46166  0.34822  1.0000
  C   C1122     1.0  0.94481  0.42154  0.34248  1.0000
  H   H1791     1.0  0.87641  0.46874  0.34760  1.0000
  H   H1792     1.0  0.93409  0.44333  0.66605  1.0000
  C   C1123     1.0  0.78229  0.40560  0.67308  1.0000
  H   H1793     1.0  0.94613  0.32116  0.71097  1.0000
  H   H1794     1.0  0.97168  0.35487  0.70325  1.0000
  Fe  Fe226     1.0  0.70221  0.43914  0.72807  1.0000
  S   S448      1.0  0.71453  0.41115  0.74016  1.0000
  S   S449      1.0  0.69104  0.46285  0.75030  1.0000
  Fe  Fe227     1.0  0.73382  0.41237  0.70978  1.0000
  S   S450      1.0  0.76400  0.40065  0.71420  1.0000
  Fe  Fe228     1.0  0.69410  0.39802  0.71862  1.0000
  H   H1795     1.0  0.89483  0.29147  0.72007  1.0000
  S   S451      1.0  0.72298  0.44146  0.69951  1.0000
  C   C1124     1.0  0.81687  0.39075  0.68791  1.0000
  C   C1125     1.0  0.70116  0.50551  0.79065  1.0000
  S   S452      1.0  0.97533  0.47266  0.71771  1.0000
  S   S453      1.0  0.99190  0.47646  0.78138  1.0000
  C   C1126     1.0  0.94068  0.42390  0.69278  1.0000
  C   C1127     1.0  0.92500  0.35097  0.69750  1.0000
  C   C1128     1.0  0.95214  0.45578  0.68907  1.0000
  C   C1129     1.0  0.96217  0.45347  0.70867  1.0000
  C   C1130     1.0  0.96118  0.43625  0.72039  1.0000
  S   S454      1.0  0.68029  0.42588  0.70829  1.0000
  H   H1796     1.0  0.71016  0.33849  0.71912  1.0000
  H   H1797     1.0  0.74563  0.49806  0.77042  1.0000
  H   H1798     1.0  0.96868  0.43409  0.73548  1.0000
  C   C1131     1.0  0.78360  0.39953  0.69514  1.0000
  H   H1799     1.0  0.91286  0.47437  0.75398  1.0000
  H   H1800     1.0  0.80221  0.38731  0.71941  1.0000
  C   C1132     1.0  0.73077  0.49630  0.77299  1.0000
  C   C1133     1.0  0.91027  0.27311  0.69777  1.0000
  C   C1134     1.0  0.90113  0.29023  0.70371  1.0000
  H   H1801     1.0  0.94552  0.48517  0.78230  1.0000
  H   H1802     1.0  0.71450  0.35606  0.69822  1.0000
  N   N113      1.0  0.93110  0.49744  0.75440  1.0000
  C   C1135     1.0  0.72215  0.48220  0.76170  1.0000
  C   C1136     1.0  0.70293  0.47977  0.76471  1.0000
  C   C1137     1.0  0.69252  0.49151  0.77925  1.0000
  H   H1803     1.0  0.73033  0.47325  0.75061  1.0000
  H   H1804     1.0  0.67769  0.48959  0.78189  1.0000
  H   H1805     1.0  0.93405  0.48423  0.72306  1.0000
  H   H1806     1.0  0.95361  0.35290  0.72447  1.0000
  C   C1138     1.0  0.80098  0.39203  0.70239  1.0000
  H   H1807     1.0  0.95333  0.37281  0.70553  1.0000
  C   C1139     1.0  0.75191  0.35559  0.70149  1.0000
  H   H1808     1.0  0.72723  0.37586  0.72598  1.0000
  H   H1809     1.0  0.95012  0.40847  0.72176  1.0000
  H   H1810     1.0  0.94717  0.47127  0.75786  1.0000
  H   H1811     1.0  0.96024  0.49190  0.75929  1.0000
  S   S455      1.0  0.71401  0.39787  0.68880  1.0000
  H   H1812     1.0  0.74633  0.36851  0.69271  1.0000
  Fe  Fe229     1.0  0.99424  0.48316  0.74485  1.0000
  H   H1813     1.0  0.76499  0.35951  0.70929  1.0000
  H   H1814     1.0  0.72284  0.35838  0.74692  1.0000
  H   H1815     1.0  0.75578  0.34504  0.68887  1.0000
  C   C1140     1.0  0.95645  0.35733  0.70699  1.0000
  H   H1816     1.0  0.92120  0.34571  0.71442  1.0000
  N   N114      1.0  0.73814  0.34844  0.71808  1.0000
  C   C1141     1.0  0.74624  0.33159  0.72963  1.0000
  C   C1142     1.0  0.73338  0.36308  0.73424  1.0000
  C   C1143     1.0  0.72100  0.34359  0.70702  1.0000
  N   N115      1.0  0.94503  0.34716  0.69190  1.0000
  H   H1817     1.0  0.73615  0.32593  0.74228  1.0000
  H   H1818     1.0  0.75914  0.33489  0.73822  1.0000
  H   H1819     1.0  0.75003  0.32024  0.71794  1.0000
  C   C1144     1.0  0.89998  0.30578  0.68865  1.0000
  H   H1820     1.0  0.89275  0.31873  0.69345  1.0000
  C   C1145     1.0  0.95060  0.42165  0.71248  1.0000
  C   C1146     1.0  0.94151  0.44121  0.68121  1.0000
  H   H1821     1.0  0.72394  0.33254  0.69473  1.0000
  H   H1822     1.0  0.83011  0.38507  0.69383  1.0000
  S   S456      1.0  0.68092  0.36948  0.72608  1.0000
  H   H1823     1.0  0.74597  0.36744  0.74270  1.0000
  H   H1824     1.0  0.92128  0.36630  0.69662  1.0000
  H   H1825     1.0  0.95271  0.46893  0.67972  1.0000
  C   C1147     1.0  0.94660  0.48586  0.76395  1.0000
  C   C1148     1.0  0.91317  0.48882  0.76040  1.0000
  C   C1149     1.0  0.94947  0.32673  0.69403  1.0000
  H   H1826     1.0  0.96452  0.32332  0.69015  1.0000
  H   H1827     1.0  0.94728  0.50472  0.72511  1.0000
  H   H1828     1.0  0.91596  0.34411  0.68591  1.0000
  H   H1829     1.0  0.91092  0.48770  0.77863  1.0000
  S   S457      1.0  0.92777  0.40460  0.68351  1.0000
  H   H1830     1.0  0.94121  0.31884  0.68249  1.0000
  C   C1150     1.0  0.91831  0.27178  0.67653  1.0000
  Fe  Fe230     1.0  0.70174  0.42666  0.68036  1.0000
  H   H1831     1.0  0.70785  0.49747  0.99497  1.0000
  C   C1151     1.0  0.93372  0.49847  0.73014  1.0000
  H   H1832     1.0  0.90112  0.49722  0.75353  1.0000
  Fe  Fe231     1.0  0.69526  0.58006  0.18471  1.0000
  S   S458      1.0  0.70554  0.60573  0.20043  1.0000
  H   H1833     1.0  0.00160  0.55141  0.28056  1.0000
  Fe  Fe232     1.0  0.71378  0.55300  0.21868  1.0000
  S   S459      1.0  0.72527  0.57664  0.23721  1.0000
  S   S460      1.0  0.71444  0.52088  0.22250  1.0000
  Fe  Fe233     1.0  0.69714  0.59215  0.23297  1.0000
  C   C1152     1.0  0.68314  0.51909  0.14441  1.0000
  Fe  Fe234     1.0  0.73320  0.58898  0.20342  1.0000
  S   S461      1.0  0.76036  0.60508  0.19810  1.0000
  S   S462      1.0  0.68542  0.56745  0.21708  1.0000
  S   S463      1.0  0.72327  0.56439  0.18510  1.0000
  C   C1153     1.0  0.89502  0.59885  0.01884  1.0000
  Fe  Fe235     1.0  0.86916  0.61068  0.14847  1.0000
  S   S464      1.0  0.89093  0.59550  0.12700  1.0000
  S   S465      1.0  0.84170  0.59490  0.15018  1.0000
  Fe  Fe236     1.0  0.89648  0.64208  0.15682  1.0000
  S   S466      1.0  0.91946  0.62864  0.13530  1.0000
  S   S467      1.0  0.90009  0.66665  0.18001  1.0000
  Fe  Fe237     1.0  0.89663  0.62370  0.11113  1.0000
  S   S468      1.0  0.89605  0.63189  0.07363  1.0000
  Fe  Fe238     1.0  0.91187  0.60125  0.15280  1.0000
  S   S469      1.0  0.93140  0.57595  0.16380  1.0000
  S   S470      1.0  0.87412  0.63885  0.13192  1.0000
  S   S471      1.0  0.88972  0.61470  0.17502  1.0000
  C   C1154     1.0  0.89862  0.54141  0.19548  1.0000
  S   S472      1.0  0.97805  0.54298  0.24694  1.0000
  H   H1834     1.0  0.87109  0.54561  0.22669  1.0000
  C   C1155     1.0  0.94449  0.56727  0.18710  1.0000
  C   C1156     1.0  0.94557  0.57730  0.20644  1.0000
  C   C1157     1.0  0.95579  0.56961  0.22444  1.0000
  C   C1158     1.0  0.96511  0.55174  0.22357  1.0000
  C   C1159     1.0  0.96392  0.54166  0.20429  1.0000
  C   C1160     1.0  0.95373  0.54938  0.18627  1.0000
  H   H1835     1.0  0.93867  0.59108  0.20749  1.0000
  H   H1836     1.0  0.95652  0.57762  0.23916  1.0000
  H   H1837     1.0  0.97097  0.52796  0.20315  1.0000
  H   H1838     1.0  0.95311  0.54142  0.17148  1.0000
  H   H1839     1.0  0.94875  0.71796  0.18228  1.0000
  C   C1161     1.0  0.89584  0.60453  0.04096  1.0000
  C   C1162     1.0  0.89547  0.62364  0.04584  1.0000
  C   C1163     1.0  0.89420  0.63685  0.02805  1.0000
  H   H1840     1.0  0.89700  0.59406  0.05419  1.0000
  H   H1841     1.0  0.89394  0.65167  0.03137  1.0000
  C   C1164     1.0  0.91164  0.73031  0.17736  1.0000
  C   C1165     1.0  0.91077  0.72042  0.15773  1.0000
  C   C1166     1.0  0.90730  0.70102  0.15813  1.0000
  C   C1167     1.0  0.90460  0.69117  0.17823  1.0000
  C   C1168     1.0  0.90554  0.70108  0.19786  1.0000
  C   C1169     1.0  0.90899  0.72047  0.19747  1.0000
  H   H1842     1.0  0.91282  0.72776  0.14204  1.0000
  H   H1843     1.0  0.90666  0.69368  0.14289  1.0000
  H   H1844     1.0  0.90335  0.69369  0.21352  1.0000
  H   H1845     1.0  0.90932  0.72779  0.21275  1.0000
  H   H1846     1.0  0.68856  0.51675  0.03466  1.0000
  H   H1847     1.0  0.85557  0.63442  0.05722  1.0000
  H   H1848     1.0  0.97207  0.70781  0.18012  1.0000
  C   C1170     1.0  0.78297  0.60171  0.18482  1.0000
  C   C1171     1.0  0.78796  0.58602  0.17226  1.0000
  C   C1172     1.0  0.80595  0.58422  0.16189  1.0000
  C   C1173     1.0  0.81929  0.59797  0.16397  1.0000
  C   C1174     1.0  0.81433  0.61362  0.17657  1.0000
  C   C1175     1.0  0.79632  0.61546  0.18684  1.0000
  H   H1849     1.0  0.77793  0.57532  0.17047  1.0000
  H   H1850     1.0  0.80953  0.57204  0.15219  1.0000
  H   H1851     1.0  0.82432  0.62436  0.17838  1.0000
  H   H1852     1.0  0.79267  0.62767  0.19647  1.0000
  H   H1853     1.0  0.99663  0.71867  0.20394  1.0000
  C   C1176     1.0  0.68885  0.56421  0.12371  1.0000
  C   C1177     1.0  0.68865  0.55666  0.10255  1.0000
  H   H1854     1.0  0.70191  0.56492  0.13206  1.0000
  H   H1855     1.0  0.70163  0.55155  0.09476  1.0000
  H   H1856     1.0  0.86132  0.53940  0.20116  1.0000
  H   H1857     1.0  0.85693  0.56257  0.21130  1.0000
  C   C1178     1.0  0.86777  0.55090  0.20977  1.0000
  H   H1858     1.0  0.67294  0.71514  0.34055  1.0000
  H   H1859     1.0  0.98240  0.71248  0.22787  1.0000
  C   C1179     1.0  0.95365  0.73677  0.21944  1.0000
  C   C1180     1.0  0.71744  0.51409  0.26775  1.0000
  C   C1181     1.0  0.96129  0.71372  0.19191  1.0000
  H   H1860     1.0  0.98353  0.74033  0.17496  1.0000
  N   N116      1.0  0.96821  0.72982  0.20351  1.0000
  H   H1861     1.0  0.86946  0.57674  0.17639  1.0000
  H   H1862     1.0  0.96000  0.74997  0.17818  1.0000
  C   C1182     1.0  0.67579  0.72506  0.29740  1.0000
  H   H1863     1.0  0.90321  0.53589  0.21187  1.0000
  H   H1864     1.0  0.99071  0.73586  0.22432  1.0000
  C   C1183     1.0  0.97264  0.74503  0.18732  1.0000
  S   S473      1.0  0.67155  0.58069  0.16043  1.0000
  H   H1865     1.0  0.67410  0.74058  0.29891  1.0000
  C   C1184     1.0  0.70315  0.52019  0.02956  1.0000
  H   H1866     1.0  0.67746  0.52834  0.19882  1.0000
  H   H1867     1.0  0.89295  0.52965  0.18658  1.0000
  H   H1868     1.0  0.68951  0.72042  0.30432  1.0000
  H   H1869     1.0  0.95713  0.70220  0.20365  1.0000
  H   H1870     1.0  0.87288  0.55357  0.16595  1.0000
  N   N117      1.0  0.83942  0.61873  0.08139  1.0000
  C   C1185     1.0  0.82753  0.61078  0.06496  1.0000
  C   C1186     1.0  0.82829  0.62215  0.10195  1.0000
  C   C1187     1.0  0.84678  0.63660  0.07252  1.0000
  C   C1188     1.0  0.85522  0.60531  0.08611  1.0000
  H   H1871     1.0  0.83559  0.60813  0.04924  1.0000
  H   H1872     1.0  0.81539  0.62049  0.06106  1.0000
  H   H1873     1.0  0.82196  0.59717  0.07108  1.0000
  H   H1874     1.0  0.82251  0.60894  0.10910  1.0000
  H   H1875     1.0  0.83698  0.62780  0.11485  1.0000
  H   H1876     1.0  0.81634  0.63238  0.09918  1.0000
  H   H1877     1.0  0.85591  0.64295  0.08451  1.0000
  H   H1878     1.0  0.83533  0.64710  0.06859  1.0000
  H   H1879     1.0  0.71910  0.52902  0.26905  1.0000
  H   H1880     1.0  0.86495  0.61139  0.09745  1.0000
  H   H1881     1.0  0.86359  0.60185  0.07088  1.0000
  H   H1882     1.0  0.85040  0.59199  0.09401  1.0000
  C   C1189     1.0  0.98526  0.72389  0.21543  1.0000
  H   H1883     1.0  0.89549  0.58403  0.01545  1.0000
  N   N118      1.0  0.88469  0.55728  0.19760  1.0000
  H   H1884     1.0  0.69178  0.53972  0.17819  1.0000
  C   C1190     1.0  0.87953  0.56441  0.17542  1.0000
  C   C1191     1.0  0.89281  0.57247  0.20965  1.0000
  H   H1885     1.0  0.70705  0.53169  0.04027  1.0000
  H   H1886     1.0  0.91140  0.54579  0.18604  1.0000
  Fe  Fe239     1.0  0.99526  0.51615  0.25836  1.0000
  H   H1887     1.0  0.89203  0.56892  0.16558  1.0000
  H   H1888     1.0  0.94085  0.74207  0.21095  1.0000
  H   H1889     1.0  0.88253  0.58450  0.21201  1.0000
  H   H1890     1.0  0.90518  0.57808  0.20048  1.0000
  H   H1891     1.0  0.89755  0.56746  0.22616  1.0000
  H   H1892     1.0  0.94942  0.72555  0.23150  1.0000
  H   H1893     1.0  0.67579  0.64182  0.23852  1.0000
  C   C1192     1.0  0.67900  0.53152  0.18078  1.0000
  S   S474      1.0  0.99717  0.51128  0.29548  1.0000
  H   H1894     1.0  0.95867  0.74855  0.22892  1.0000
  S   S475      1.0  0.67239  0.54635  0.06465  1.0000
  H   H1895     1.0  0.69628  0.52668  0.14125  1.0000
  N   N119      1.0  0.68038  0.51416  0.16809  1.0000
  S   S476      1.0  0.67806  0.60430  0.26093  1.0000
  H   H1896     1.0  0.67645  0.72204  0.27951  1.0000
  H   H1897     1.0  0.72039  0.50809  0.30256  1.0000
  H   H1898     1.0  0.70973  0.50977  0.17421  1.0000
  H   H1899     1.0  0.71235  0.50759  0.03337  1.0000
  H   H1900     1.0  0.99672  0.58049  0.25861  1.0000
  H   H1901     1.0  0.67616  0.68937  0.31383  1.0000
  C   C1193     1.0  0.67184  0.55590  0.09131  1.0000
  C   C1194     1.0  0.67219  0.57105  0.13385  1.0000
  S   S477      1.0  0.91657  0.75473  0.17562  1.0000
  H   H1902     1.0  0.72873  0.54207  0.00974  1.0000
  H   H1903     1.0  0.69557  0.55455  0.01226  1.0000
  H   H1904     1.0  0.00312  0.59352  0.28182  1.0000
  C   C1195     1.0  0.71479  0.50664  0.24714  1.0000
  H   H1905     1.0  0.67141  0.52843  0.13824  1.0000
  Fe  Fe240     1.0  0.70328  0.57701  0.85375  1.0000
  S   S478      1.0  0.70983  0.60408  0.83525  1.0000
  H   H1906     1.0  0.72279  0.64137  0.88836  1.0000
  Fe  Fe241     1.0  0.71997  0.55303  0.81638  1.0000
  S   S479      1.0  0.72781  0.57873  0.79644  1.0000
  S   S480      1.0  0.73181  0.52622  0.80036  1.0000
  Fe  Fe242     1.0  0.73800  0.58974  0.82800  1.0000
  S   S481      1.0  0.76542  0.60527  0.82910  1.0000
  Fe  Fe243     1.0  0.69897  0.59073  0.80547  1.0000
  C   C1196     1.0  0.68430  0.54784  0.90649  1.0000
  S   S482      1.0  0.73198  0.56339  0.84754  1.0000
  S   S483      1.0  0.69062  0.56436  0.82430  1.0000
  S   S484      1.0  0.90336  0.74719  0.83260  1.0000
  Fe  Fe244     1.0  0.89591  0.64116  0.89646  1.0000
  S   S485      1.0  0.91622  0.62104  0.91391  1.0000
  S   S486      1.0  0.90982  0.66950  0.88925  1.0000
  Fe  Fe245     1.0  0.86679  0.61069  0.89515  1.0000
  S   S487      1.0  0.88631  0.58913  0.91182  1.0000
  S   S488      1.0  0.83766  0.59909  0.88946  1.0000
  Fe  Fe246     1.0  0.89194  0.61195  0.93566  1.0000
  S   S489      1.0  0.89296  0.60380  0.97325  1.0000
  Fe  Fe247     1.0  0.90915  0.59994  0.88876  1.0000
  S   S490      1.0  0.93498  0.58630  0.86986  1.0000
  S   S491      1.0  0.87176  0.63316  0.91969  1.0000
  S   S492      1.0  0.88944  0.62032  0.87080  1.0000
  C   C1197     1.0  0.72404  0.53036  0.99989  1.0000
  C   C1198     1.0  0.89389  0.61205  0.00101  1.0000
  S   S493      1.0  0.96429  0.52066  0.80415  1.0000
  C   C1199     1.0  0.94271  0.56789  0.85154  1.0000
  C   C1200     1.0  0.96176  0.56632  0.84468  1.0000
  C   C1201     1.0  0.96863  0.55214  0.83027  1.0000
  C   C1202     1.0  0.95655  0.53914  0.82239  1.0000
  C   C1203     1.0  0.93747  0.54080  0.82912  1.0000
  C   C1204     1.0  0.93060  0.55501  0.84350  1.0000
  H   H1907     1.0  0.97138  0.57604  0.85078  1.0000
  H   H1908     1.0  0.98332  0.55116  0.82545  1.0000
  H   H1909     1.0  0.92791  0.53088  0.82337  1.0000
  H   H1910     1.0  0.91595  0.55585  0.84855  1.0000
  H   H1911     1.0  0.76156  0.55290  0.79541  1.0000
  C   C1205     1.0  0.77532  0.54583  0.79111  1.0000
  H   H1912     1.0  0.71190  0.61961  0.88395  1.0000
  H   H1913     1.0  0.77217  0.51453  0.81621  1.0000
  C   C1206     1.0  0.90579  0.72538  0.84793  1.0000
  C   C1207     1.0  0.89152  0.71243  0.84729  1.0000
  C   C1208     1.0  0.89244  0.69528  0.85970  1.0000
  C   C1209     1.0  0.90768  0.69083  0.87304  1.0000
  C   C1210     1.0  0.92206  0.70366  0.87345  1.0000
  C   C1211     1.0  0.92123  0.72070  0.86089  1.0000
  H   H1914     1.0  0.87955  0.71575  0.83723  1.0000
  H   H1915     1.0  0.88128  0.68559  0.85907  1.0000
  H   H1916     1.0  0.93404  0.70031  0.88349  1.0000
  H   H1917     1.0  0.93263  0.73013  0.86114  1.0000
  H   H1918     1.0  0.67906  0.52069  0.92170  1.0000
  H   H1919     1.0  0.75358  0.58903  0.89725  1.0000
  S   S494      1.0  0.99265  0.51474  0.74894  1.0000
  C   C1212     1.0  0.94351  0.63493  0.86533  1.0000
  C   C1213     1.0  0.92833  0.65432  0.83738  1.0000
  C   C1214     1.0  0.78547  0.60319  0.84600  1.0000
  C   C1215     1.0  0.78723  0.58965  0.86313  1.0000
  C   C1216     1.0  0.80325  0.58871  0.87615  1.0000
  C   C1217     1.0  0.81785  0.60116  0.87226  1.0000
  C   C1218     1.0  0.81611  0.61465  0.85510  1.0000
  C   C1219     1.0  0.80002  0.61565  0.84212  1.0000
  H   H1920     1.0  0.77641  0.57975  0.86627  1.0000
  H   H1921     1.0  0.80446  0.57817  0.88932  1.0000
  H   H1922     1.0  0.82715  0.62434  0.85186  1.0000
  H   H1923     1.0  0.79890  0.62621  0.82896  1.0000
  S   S495      1.0  0.68152  0.60158  0.77608  1.0000
  C   C1220     1.0  0.74232  0.59704  0.88832  1.0000
  H   H1924     1.0  0.77235  0.53319  0.78173  1.0000
  C   C1221     1.0  0.67748  0.53573  0.92346  1.0000
  H   H1925     1.0  0.68251  0.52112  0.74116  1.0000
  H   H1926     1.0  0.94467  0.52320  0.75942  1.0000
  N   N120      1.0  0.73990  0.61651  0.89582  1.0000
  H   H1927     1.0  0.72034  0.60918  0.92198  1.0000
  C   C1222     1.0  0.72546  0.62678  0.88272  1.0000
  H   H1928     1.0  0.94840  0.61036  0.83289  1.0000
  H   H1929     1.0  0.92695  0.65770  0.81950  1.0000
  H   H1930     1.0  0.76924  0.61831  0.90200  1.0000
  H   H1931     1.0  0.91274  0.75436  0.93747  1.0000
  H   H1932     1.0  0.95416  0.62351  0.86919  1.0000
  H   H1933     1.0  0.96525  0.65804  0.84149  1.0000
  H   H1934     1.0  0.91434  0.65036  0.84420  1.0000
  H   H1935     1.0  0.89262  0.64159  0.99261  1.0000
  N   N121      1.0  0.70454  0.52589  0.00596  1.0000
  H   H1936     1.0  0.72983  0.62772  0.86495  1.0000
  H   H1937     1.0  0.79668  0.55464  0.83859  1.0000
  C   C1223     1.0  0.68467  0.54820  0.77031  1.0000
  C   C1224     1.0  0.67424  0.55844  0.73441  1.0000
  H   H1938     1.0  0.73382  0.51801  0.00277  1.0000
  H   H1939     1.0  0.74443  0.60844  0.92968  1.0000
  H   H1940     1.0  0.76257  0.62649  0.87509  1.0000
  H   H1941     1.0  0.67733  0.53957  0.00585  1.0000
  C   C1225     1.0  0.93786  0.62211  0.83006  1.0000
  H   H1942     1.0  0.69811  0.53087  0.72043  1.0000
  C   C1226     1.0  0.75786  0.62591  0.89278  1.0000
  H   H1943     1.0  0.75668  0.64060  0.89847  1.0000
  H   H1944     1.0  0.80252  0.51885  0.79540  1.0000
  H   H1945     1.0  0.67965  0.56207  0.77661  1.0000
  H   H1946     1.0  0.96107  0.64868  0.81505  1.0000
  H   H1947     1.0  0.69108  0.54210  0.89186  1.0000
  H   H1948     1.0  0.90297  0.72889  0.91304  1.0000
  H   H1949     1.0  0.67141  0.71118  0.75823  1.0000
  H   H1950     1.0  0.94665  0.64752  0.87469  1.0000
  C   C1227     1.0  0.89344  0.63117  0.00591  1.0000
  H   H1951     1.0  0.81266  0.54152  0.79416  1.0000
  H   H1952     1.0  0.97228  0.63410  0.83593  1.0000
  H   H1953     1.0  0.69279  0.54752  0.98426  1.0000
  H   H1954     1.0  0.93172  0.66745  0.84553  1.0000
  S   S496      1.0  0.69107  0.58329  0.88806  1.0000
  H   H1955     1.0  0.78309  0.55564  0.77992  1.0000
  H   H1956     1.0  0.72926  0.58928  0.89101  1.0000
  H   H1957     1.0  0.71099  0.56247  0.72579  1.0000
  H   H1958     1.0  0.79640  0.56842  0.81329  1.0000
  H   H1959     1.0  0.92414  0.61694  0.83635  1.0000
  H   H1960     1.0  0.88993  0.73533  0.88910  1.0000
  N   N122      1.0  0.78583  0.54071  0.81112  1.0000
  C   C1228     1.0  0.80420  0.53182  0.80475  1.0000
  C   C1229     1.0  0.78865  0.55783  0.82344  1.0000
  C   C1230     1.0  0.77511  0.52740  0.82520  1.0000
  H   H1961     1.0  0.81249  0.52780  0.81949  1.0000
  C   C1231     1.0  0.69212  0.54268  0.00189  1.0000
  H   H1962     1.0  0.71871  0.55472  0.75260  1.0000
  H   H1963     1.0  0.92791  0.74859  0.89997  1.0000
  H   H1964     1.0  0.69677  0.54331  0.78029  1.0000
  H   H1965     1.0  0.78272  0.52297  0.84030  1.0000
  H   H1966     1.0  0.76128  0.53377  0.83058  1.0000
  H   H1967     1.0  0.74601  0.59682  0.87042  1.0000
  C   C1232     1.0  0.70660  0.56105  0.74349  1.0000
  H   H1968     1.0  0.92988  0.63006  0.87191  1.0000
  H   H1969     1.0  0.93695  0.62472  0.81198  1.0000
  C   C1233     1.0  0.73391  0.61621  0.91935  1.0000
  C   C1234     1.0  0.96117  0.64528  0.83306  1.0000
  H   H1970     1.0  0.73191  0.63067  0.92563  1.0000
  N   N123      1.0  0.94272  0.63917  0.84142  1.0000
  H   H1971     1.0  0.72547  0.53471  0.98215  1.0000
  N   N124      1.0  0.68999  0.54953  0.74662  1.0000
  C   C1235     1.0  0.89262  0.73948  0.90617  1.0000
  C   C1236     1.0  0.69447  0.53049  0.73838  1.0000
  C   C1237     1.0  0.69877  0.51039  0.99249  1.0000
  H   H1972     1.0  0.69299  0.51409  0.80213  1.0000
  H   H1973     1.0  0.67769  0.55967  0.71644  1.0000
  H   H1974     1.0  0.69925  0.51436  0.97458  1.0000
  H   H1975     1.0  0.70373  0.57547  0.74969  1.0000
  C   C1238     1.0  0.72031  0.50817  0.78734  1.0000
  Fe  Fe248     1.0  0.99071  0.50812  0.78555  1.0000
  H   H1976     1.0  0.67699  0.73373  0.72660  1.0000
  H   H1977     1.0  0.77501  0.56475  0.82857  1.0000
  C   C1239     1.0  0.67344  0.57451  0.92772  1.0000
  H   H1978     1.0  0.70660  0.52360  0.74691  1.0000
  H   H1979     1.0  0.87929  0.73826  0.91597  1.0000
  C   C1240     1.0  0.93106  0.51656  0.76315  1.0000
  H   H1980     1.0  0.91978  0.52590  0.75610  1.0000
  C   C1241     1.0  0.68229  0.56732  0.90854  1.0000
  H   H1981     1.0  0.92906  0.51627  0.78144  1.0000
  H   H1982     1.0  0.67327  0.53828  0.77367  1.0000
  H   H1983     1.0  0.68408  0.50668  0.99668  1.0000
  H   H1984     1.0  0.67176  0.58955  0.92946  1.0000
  H   H1985     1.0  0.92233  0.50711  0.72225  1.0000
  Fe  Fe249     1.0  0.98278  0.89672  0.02702  1.0000
  S   S497      1.0  0.95891  0.89350  0.05172  1.0000
  C   C1242     1.0  0.90106  0.95464  0.02039  1.0000
  H   H1986     1.0  0.92378  0.77269  0.13045  1.0000
  H   H1987     1.0  0.78502  0.87189  0.31369  1.0000
  C   C1243     1.0  0.91682  0.94217  0.01910  1.0000
  Fe  Fe250     1.0  0.96022  0.86335  0.04220  1.0000
  S   S498      1.0  0.96117  0.83858  0.06684  1.0000
  H   H1988     1.0  0.89047  0.77242  0.14029  1.0000
  Fe  Fe251     1.0  0.91494  0.80722  0.23584  1.0000
  S   S499      1.0  0.94232  0.82117  0.22893  1.0000
  S   S500      1.0  0.89482  0.81581  0.26456  1.0000
  Fe  Fe252     1.0  0.92332  0.77771  0.19968  1.0000
  S   S501      1.0  0.95081  0.79048  0.19046  1.0000
  Fe  Fe253     1.0  0.95536  0.79184  0.22691  1.0000
  S   S502      1.0  0.98385  0.77889  0.23721  1.0000
  Fe  Fe254     1.0  0.93567  0.81844  0.19313  1.0000
  S   S503      1.0  0.93736  0.84308  0.16844  1.0000
  S   S504      1.0  0.92847  0.77770  0.23608  1.0000
  S   S505      1.0  0.90765  0.80600  0.20011  1.0000
  Fe  Fe255     1.0  0.81127  0.94353  0.32358  1.0000
  S   S506      1.0  0.80072  0.92163  0.30210  1.0000
  S   S507      1.0  0.80743  0.97541  0.31807  1.0000
  H   H1989     1.0  0.90030  0.77919  0.10119  1.0000
  Fe  Fe256     1.0  0.82651  0.90385  0.31098  1.0000
  S   S508      1.0  0.84179  0.88954  0.28155  1.0000
  H   H1990     1.0  0.85464  0.00563  0.14501  1.0000
  C   C1244     1.0  0.80929  0.98965  0.29349  1.0000
  C   C1245     1.0  0.81241  0.98198  0.27272  1.0000
  H   H1991     1.0  0.97768  0.88485  0.09508  1.0000
  H   H1992     1.0  0.81407  0.96691  0.27130  1.0000
  H   H1993     1.0  0.99213  0.89889  0.11091  1.0000
  H   H1994     1.0  0.72572  0.98335  0.33240  1.0000
  H   H1995     1.0  0.99124  0.90277  0.08159  1.0000
  H   H1996     1.0  0.87628  0.79397  0.14029  1.0000
  C   C1246     1.0  0.88109  0.83703  0.26920  1.0000
  C   C1247     1.0  0.87324  0.84027  0.29043  1.0000
  C   C1248     1.0  0.86174  0.85649  0.29475  1.0000
  C   C1249     1.0  0.85755  0.86958  0.27773  1.0000
  C   C1250     1.0  0.86535  0.86632  0.25650  1.0000
  C   C1251     1.0  0.87715  0.85029  0.25228  1.0000
  H   H1997     1.0  0.87618  0.83016  0.30367  1.0000
  H   H1998     1.0  0.85601  0.85875  0.31120  1.0000
  H   H1999     1.0  0.86228  0.87629  0.24317  1.0000
  H   H2000     1.0  0.88300  0.84806  0.23587  1.0000
  C   C1252     1.0  0.95541  0.84048  0.09525  1.0000
  C   C1253     1.0  0.95904  0.82494  0.10956  1.0000
  C   C1254     1.0  0.95406  0.82568  0.13217  1.0000
  C   C1255     1.0  0.94527  0.84194  0.14060  1.0000
  C   C1256     1.0  0.94203  0.85762  0.12638  1.0000
  C   C1257     1.0  0.94706  0.85692  0.10379  1.0000
  H   H2001     1.0  0.96567  0.81224  0.10309  1.0000
  H   H2002     1.0  0.95693  0.81366  0.14306  1.0000
  H   H2003     1.0  0.93524  0.87027  0.13280  1.0000
  H   H2004     1.0  0.94408  0.86894  0.09295  1.0000
  H   H2005     1.0  0.76808  0.98963  0.33240  1.0000
  C   C1258     1.0  0.92345  0.78816  0.13255  1.0000
  H   H2006     1.0  0.77860  0.84789  0.31484  1.0000
  H   H2007     1.0  0.77515  0.95087  0.31500  1.0000
  C   C1259     1.0  0.90025  0.79435  0.10506  1.0000
  N   N125      1.0  0.90473  0.79688  0.12832  1.0000
  C   C1260     1.0  0.78102  0.86016  0.30346  1.0000
  S   S509      1.0  0.75631  0.90139  0.32764  1.0000
  C   C1261     1.0  0.76292  0.95938  0.30891  1.0000
  H   H2008     1.0  0.92758  0.79049  0.14971  1.0000
  H   H2009     1.0  0.81193  0.83785  0.30837  1.0000
  C   C1262     1.0  0.89062  0.78781  0.14294  1.0000
  C   C1263     1.0  0.90465  0.81716  0.13270  1.0000
  H   H2010     1.0  0.80220  0.88468  0.28138  1.0000
  C   C1264     1.0  0.71939  0.89354  0.33755  1.0000
  H   H2011     1.0  0.89062  0.98358  0.01729  1.0000
  H   H2012     1.0  0.78531  0.87689  0.26304  1.0000
  S   S510      1.0  0.91410  0.91771  0.02273  1.0000
  H   H2013     1.0  0.71834  0.89225  0.31995  1.0000
  H   H2014     1.0  0.91481  0.82453  0.12155  1.0000
  H   H2015     1.0  0.76865  0.97122  0.29873  1.0000
  H   H2016     1.0  0.91067  0.80108  0.09362  1.0000
  H   H2017     1.0  0.97826  0.80748  0.27086  1.0000
  H   H2018     1.0  0.78775  0.82722  0.28355  1.0000
  H   H2019     1.0  0.74018  0.99030  0.30901  1.0000
  C   C1265     1.0  0.90283  0.97409  0.01640  1.0000
  S   S511      1.0  0.98527  0.86621  0.01883  1.0000
  H   H2020     1.0  0.89368  0.78938  0.16060  1.0000
  S   S512      1.0  0.83811  0.92684  0.33061  1.0000
  H   H2021     1.0  0.80041  0.83661  0.25994  1.0000
  H   H2022     1.0  0.72651  0.96983  0.30790  1.0000
  H   H2023     1.0  0.73541  0.94094  0.33003  1.0000
  H   H2024     1.0  0.88620  0.80074  0.10127  1.0000
  N   N126      1.0  0.79559  0.85575  0.28631  1.0000
  C   C1266     1.0  0.99253  0.80181  0.27145  1.0000
  H   H2025     1.0  0.90859  0.81964  0.14992  1.0000
  H   H2026     1.0  0.80980  0.87004  0.25926  1.0000
  Fe  Fe257     1.0  0.94037  0.89873  0.02291  1.0000
  H   H2027     1.0  0.84827  0.99118  0.18250  1.0000
  C   C1267     1.0  0.81341  0.85017  0.29683  1.0000
  C   C1268     1.0  0.78972  0.84015  0.27310  1.0000
  C   C1269     1.0  0.79827  0.87252  0.27179  1.0000
  Fe  Fe258     1.0  0.78659  0.90955  0.33284  1.0000
  H   H2028     1.0  0.75526  0.95038  0.29799  1.0000
  C   C1270     1.0  0.93437  0.94928  0.01393  1.0000
  H   H2029     1.0  0.76741  0.86465  0.29616  1.0000
  H   H2030     1.0  0.89062  0.82416  0.13031  1.0000
  H   H2031     1.0  0.81864  0.86181  0.30635  1.0000
  S   S513      1.0  0.93923  0.86802  0.01546  1.0000
  N   N127      1.0  0.75090  0.96620  0.32749  1.0000
  H   H2032     1.0  0.81586  0.98776  0.23773  1.0000
  C   C1271     1.0  0.81345  0.99387  0.25369  1.0000
  H   H2033     1.0  0.77627  0.84382  0.26499  1.0000
  H   H2034     1.0  0.93434  0.79407  0.12118  1.0000
  H   H2035     1.0  0.88743  0.94924  0.02441  1.0000
  H   H2036     1.0  0.82463  0.84647  0.28433  1.0000
  C   C1272     1.0  0.92035  0.98107  0.01064  1.0000
  H   H2037     1.0  0.95563  0.99965  0.03558  1.0000
  C   C1273     1.0  0.99885  0.78810  0.25667  1.0000
  C   C1274     1.0  0.73510  0.97794  0.31882  1.0000
  H   H2038     1.0  0.99944  0.81852  0.29880  1.0000
  C   C1275     1.0  0.85074  0.00504  0.18950  1.0000
  H   H2039     1.0  0.94665  0.93991  0.01314  1.0000
  H   H2040     1.0  0.99332  0.85579  0.10992  1.0000
  C   C1276     1.0  0.99136  0.89171  0.09501  1.0000
  H   H2041     1.0  0.99227  0.86149  0.06973  1.0000
  C   C1277     1.0  0.93607  0.96859  0.00943  1.0000
  H   H2042     1.0  0.97795  0.75738  0.19557  1.0000
  S   S514      1.0  0.81162  0.89019  0.34014  1.0000
  C   C1278     1.0  0.74365  0.94995  0.34037  1.0000
  H   H2043     1.0  0.84223  0.00603  0.20521  1.0000
  H   H2044     1.0  0.86571  0.00512  0.19386  1.0000
  C   C1279     1.0  0.79663  0.90231  0.62466  1.0000
  Fe  Fe259     1.0  0.91362  0.93539  0.50809  1.0000
  S   S515      1.0  0.91039  0.94424  0.54302  1.0000
  S   S516      1.0  0.93740  0.91750  0.49311  1.0000
  Fe  Fe260     1.0  0.87659  0.95462  0.49523  1.0000
  S   S517      1.0  0.87026  0.96538  0.52952  1.0000
  S   S518      1.0  0.85972  0.96236  0.46484  1.0000
  Fe  Fe261     1.0  0.90071  0.97236  0.52874  1.0000
  H   H2045     1.0  0.76643  0.93627  0.60441  1.0000
  Fe  Fe262     1.0  0.88047  0.93658  0.54149  1.0000
  S   S519      1.0  0.86856  0.91702  0.56841  1.0000
  S   S520      1.0  0.90628  0.96398  0.49377  1.0000
  S   S521      1.0  0.88438  0.92534  0.50724  1.0000
  H   H2046     1.0  0.81787  0.92634  0.60055  1.0000
  H   H2047     1.0  0.92928  0.94899  0.42148  1.0000
  S   S522      1.0  0.83375  0.90650  0.39306  1.0000
  H   H2048     1.0  0.80144  0.91612  0.58337  1.0000
  H   H2049     1.0  0.97803  0.92752  0.55490  1.0000
  H   H2050     1.0  0.68402  0.93098  0.44374  1.0000
  S   S523      1.0  0.68506  0.88807  0.39303  1.0000
  N   N128      1.0  0.79109  0.92143  0.61639  1.0000
  C   C1280     1.0  0.73767  0.89959  0.36899  1.0000
  C   C1281     1.0  0.72176  0.89656  0.38292  1.0000
  C   C1282     1.0  0.70454  0.89196  0.37434  1.0000
  S   S524      1.0  0.84079  0.94467  0.66322  1.0000
  H   H2051     1.0  0.75077  0.90293  0.37597  1.0000
  H   H2052     1.0  0.72288  0.89763  0.40053  1.0000
  C   C1283     1.0  0.85136  0.94669  0.44569  1.0000
  C   C1284     1.0  0.84506  0.95391  0.42529  1.0000
  C   C1285     1.0  0.83940  0.94185  0.40907  1.0000
  C   C1286     1.0  0.83993  0.92241  0.41316  1.0000
  C   C1287     1.0  0.84598  0.91523  0.43368  1.0000
  C   C1288     1.0  0.85156  0.92729  0.44992  1.0000
  H   H2053     1.0  0.84476  0.96891  0.42189  1.0000
  H   H2054     1.0  0.83476  0.94758  0.39337  1.0000
  H   H2055     1.0  0.84627  0.90022  0.43704  1.0000
  H   H2056     1.0  0.85604  0.92156  0.46568  1.0000
  H   H2057     1.0  0.75522  0.94075  0.34708  1.0000
  H   H2058     1.0  0.78806  0.89820  0.63956  1.0000
  H   H2059     1.0  0.70033  0.89199  0.63964  1.0000
  C   C1289     1.0  0.89369  0.93968  0.41564  1.0000
  C   C1290     1.0  0.70727  0.89395  0.65488  1.0000
  C   C1291     1.0  0.77116  0.92204  0.61063  1.0000
  H   H2060     1.0  0.89081  0.93266  0.45897  1.0000
  C   C1292     1.0  0.84864  0.93665  0.63705  1.0000
  C   C1293     1.0  0.84801  0.91776  0.63168  1.0000
  C   C1294     1.0  0.85425  0.91194  0.61063  1.0000
  C   C1295     1.0  0.86112  0.92493  0.59476  1.0000
  C   C1296     1.0  0.86181  0.94379  0.60017  1.0000
  C   C1297     1.0  0.85564  0.94959  0.62125  1.0000
  H   H2061     1.0  0.84295  0.90762  0.64384  1.0000
  H   H2062     1.0  0.85376  0.89730  0.60661  1.0000
  H   H2063     1.0  0.86709  0.95392  0.58811  1.0000
  H   H2064     1.0  0.85625  0.96422  0.62525  1.0000
  C   C1298     1.0  0.67248  0.88547  0.45145  1.0000
  C   C1299     1.0  0.97651  0.92028  0.53974  1.0000
  C   C1300     1.0  0.96019  0.92353  0.52770  1.0000
  C   C1301     1.0  0.95807  0.91421  0.50810  1.0000
  C   C1302     1.0  0.97249  0.90180  0.50051  1.0000
  C   C1303     1.0  0.98891  0.89867  0.51247  1.0000
  H   H2065     1.0  0.94937  0.93338  0.53349  1.0000
  H   H2066     1.0  0.97099  0.89458  0.48533  1.0000
  H   H2067     1.0  0.69495  0.91036  0.43158  1.0000
  C   C1304     1.0  0.91719  0.91426  0.41680  1.0000
  H   H2068     1.0  0.90013  0.94556  0.40013  1.0000
  C   C1305     1.0  0.68977  0.90410  0.47536  1.0000
  C   C1306     1.0  0.79376  0.93505  0.63370  1.0000
  H   H2069     1.0  0.69237  0.91841  0.48102  1.0000
  C   C1307     1.0  0.73558  0.90164  0.67410  1.0000
  H   H2070     1.0  0.93231  0.93562  0.44689  1.0000
  H   H2071     1.0  0.90695  0.90412  0.41151  1.0000
  C   C1308     1.0  0.70346  0.89056  0.35149  1.0000
  H   H2072     1.0  0.91492  0.95452  0.44545  1.0000
  C   C1309     1.0  0.89837  0.92148  0.44935  1.0000
  H   H2073     1.0  0.69040  0.88704  0.34455  1.0000
  N   N129      1.0  0.92232  0.88840  0.56439  1.0000
  C   C1310     1.0  0.90971  0.87552  0.57653  1.0000
  C   C1311     1.0  0.91451  0.89350  0.54271  1.0000
  C   C1312     1.0  0.94108  0.87911  0.56114  1.0000
  C   C1313     1.0  0.92388  0.90554  0.57712  1.0000
  H   H2074     1.0  0.91515  0.87128  0.59298  1.0000
  H   H2075     1.0  0.90799  0.86253  0.56727  1.0000
  H   H2076     1.0  0.89549  0.88232  0.57923  1.0000
  H   H2077     1.0  0.91362  0.88104  0.53231  1.0000
  H   H2078     1.0  0.90018  0.90014  0.54446  1.0000
  H   H2079     1.0  0.92333  0.90366  0.53342  1.0000
  H   H2080     1.0  0.95078  0.88847  0.55172  1.0000
  H   H2081     1.0  0.94043  0.86607  0.55167  1.0000
  H   H2082     1.0  0.94758  0.87527  0.57714  1.0000
  H   H2083     1.0  0.93350  0.91548  0.56859  1.0000
  H   H2084     1.0  0.92942  0.90220  0.59375  1.0000
  H   H2085     1.0  0.91000  0.91311  0.57946  1.0000
  C   C1314     1.0  0.80278  0.92631  0.59665  1.0000
  H   H2086     1.0  0.90857  0.91408  0.46042  1.0000
  N   N130      1.0  0.90775  0.92955  0.42942  1.0000
  C   C1315     1.0  0.99092  0.90787  0.53217  1.0000
  H   H2087     1.0  0.79478  0.89163  0.61206  1.0000
  H   H2088     1.0  0.81155  0.90133  0.62930  1.0000
  H   H2089     1.0  0.80854  0.93468  0.63881  1.0000
  Fe  Fe263     1.0  0.82182  0.91419  0.35942  1.0000
  C   C1316     1.0  0.92171  0.94275  0.43605  1.0000
  H   H2090     1.0  0.76201  0.91847  0.62526  1.0000
  H   H2091     1.0  0.78494  0.93196  0.64871  1.0000
  H   H2092     1.0  0.88794  0.91119  0.44506  1.0000
  S   S525      1.0  0.91425  0.99613  0.54508  1.0000
  H   H2093     1.0  0.92452  0.91983  0.40167  1.0000
  H   H2094     1.0  0.88664  0.95161  0.42453  1.0000
  H   H2095     1.0  0.79882  0.94055  0.58980  1.0000
  H   H2096     1.0  0.79002  0.94967  0.62797  1.0000
  H   H2097     1.0  0.70332  0.89782  0.46887  1.0000
  H   H2098     1.0  0.88252  0.93029  0.41100  1.0000
  H   H2099     1.0  0.92778  0.90626  0.42686  1.0000
  C   C1317     1.0  0.72616  0.89906  0.65448  1.0000
  H   H2100     1.0  0.68542  0.87894  0.44370  1.0000
  H   H2101     1.0  0.73352  0.90092  0.63878  1.0000
  H   H2102     1.0  0.76857  0.91184  0.59772  1.0000
  S   S526      1.0  0.79579  0.93241  0.35402  1.0000
  C   C1318     1.0  0.68168  0.91632  0.43919  1.0000
  C   C1319     1.0  0.73664  0.89798  0.34616  1.0000
  H   H2103     1.0  0.68536  0.89546  0.49010  1.0000
  H   H2104     1.0  0.73449  0.95448  0.35456  1.0000
  N   N131      1.0  0.67539  0.90474  0.45844  1.0000
  H   H2105     1.0  0.77406  0.96908  0.34863  1.0000
  H   H2106     1.0  0.99997  0.88909  0.50648  1.0000
  H   H2107     1.0  0.75343  0.98310  0.35591  1.0000
  H   H2108     1.0  0.67116  0.91693  0.42606  1.0000
  S   S527      1.0  0.75942  0.90842  0.67230  1.0000
  C   C1320     1.0  0.76200  0.97752  0.34177  1.0000
  H   H2109     1.0  0.95927  0.00634  0.49579  1.0000
  Fe  Fe264     1.0  0.96407  0.87329  0.99281  1.0000
  S   S528      1.0  0.96724  0.86668  0.95636  1.0000
  H   H2110     1.0  0.97172  0.81930  0.75567  1.0000
  Fe  Fe265     1.0  0.92521  0.80695  0.86336  1.0000
  S   S529      1.0  0.89933  0.79973  0.84595  1.0000
  S   S530      1.0  0.92034  0.81251  0.89998  1.0000
  Fe  Fe266     1.0  0.95013  0.80121  0.82129  1.0000
  S   S531      1.0  0.92583  0.79269  0.80183  1.0000
  S   S532      1.0  0.97743  0.81121  0.80496  1.0000
  Fe  Fe267     1.0  0.90966  0.81725  0.81680  1.0000
  S   S533      1.0  0.89763  0.84281  0.79674  1.0000
  Fe  Fe268     1.0  0.91746  0.77563  0.83263  1.0000
  S   S534      1.0  0.93416  0.82618  0.83563  1.0000
  S   S535      1.0  0.94310  0.78237  0.85094  1.0000
  Fe  Fe269     1.0  0.81741  0.89504  0.72075  1.0000
  S   S536      1.0  0.83108  0.92263  0.72242  1.0000
  S   S537      1.0  0.82793  0.86701  0.73668  1.0000
  Fe  Fe270     1.0  0.78342  0.91283  0.69577  1.0000
  S   S538      1.0  0.79484  0.94185  0.69675  1.0000
  C   C1321     1.0  0.70680  0.89407  0.69461  1.0000
  C   C1322     1.0  0.80518  0.00434  0.78814  1.0000
  Fe  Fe271     1.0  0.80243  0.93472  0.73177  1.0000
  S   S539      1.0  0.80285  0.95222  0.76269  1.0000
  H   H2111     1.0  0.87190  0.77194  0.90509  1.0000
  S   S540      1.0  0.78884  0.90667  0.73181  1.0000
  C   C1323     1.0  0.80027  0.97698  0.76583  1.0000
  C   C1324     1.0  0.80671  0.98478  0.78501  1.0000
  H   H2112     1.0  0.78679  0.89374  0.80581  1.0000
  C   C1325     1.0  0.79206  0.98901  0.74988  1.0000
  H   H2113     1.0  0.81295  0.97564  0.79759  1.0000
  H   H2114     1.0  0.84884  0.96063  0.73189  1.0000
  H   H2115     1.0  0.78656  0.98325  0.73531  1.0000
  H   H2116     1.0  0.81751  0.86851  0.78392  1.0000
  Fe  Fe272     1.0  0.82264  0.92783  0.68735  1.0000
  H   H2117     1.0  0.85435  0.00276  0.73639  1.0000
  C   C1326     1.0  0.87814  0.84901  0.77998  1.0000
  C   C1327     1.0  0.87675  0.86722  0.77024  1.0000
  C   C1328     1.0  0.86170  0.87290  0.75674  1.0000
  C   C1329     1.0  0.84771  0.86044  0.75284  1.0000
  C   C1330     1.0  0.84911  0.84223  0.76255  1.0000
  C   C1331     1.0  0.86420  0.83652  0.77601  1.0000
  H   H2118     1.0  0.88747  0.87700  0.77311  1.0000
  H   H2119     1.0  0.86099  0.88687  0.74923  1.0000
  H   H2120     1.0  0.83842  0.83242  0.75964  1.0000
  H   H2121     1.0  0.86503  0.82246  0.78330  1.0000
  C   C1332     1.0  0.95406  0.85140  0.94117  1.0000
  C   C1333     1.0  0.95817  0.84973  0.91849  1.0000
  C   C1334     1.0  0.94800  0.83791  0.90566  1.0000
  C   C1335     1.0  0.93352  0.82766  0.91539  1.0000
  C   C1336     1.0  0.92928  0.82946  0.93805  1.0000
  C   C1337     1.0  0.93950  0.84124  0.95090  1.0000
  H   H2122     1.0  0.96943  0.85750  0.91082  1.0000
  H   H2123     1.0  0.95143  0.83666  0.88827  1.0000
  H   H2124     1.0  0.91812  0.82158  0.94574  1.0000
  H   H2125     1.0  0.93623  0.84234  0.96834  1.0000
  H   H2126     1.0  0.83468  0.90234  0.82329  1.0000
  H   H2127     1.0  0.88895  0.76365  0.93937  1.0000
  H   H2128     1.0  0.81649  0.92003  0.81805  1.0000
  H   H2129     1.0  0.83573  0.87238  0.80250  1.0000
  H   H2130     1.0  0.95316  0.90626  0.94980  1.0000
  H   H2131     1.0  0.86879  0.97294  0.72134  1.0000
  H   H2132     1.0  0.98701  0.77188  0.79429  1.0000
  H   H2133     1.0  0.90738  0.77854  0.92992  1.0000
  H   H2134     1.0  0.79262  0.91459  0.78992  1.0000
  H   H2135     1.0  0.92363  0.93839  0.95373  1.0000
  H   H2136     1.0  0.81754  0.97042  0.72066  1.0000
  N   N132      1.0  0.89950  0.75872  0.90639  1.0000
  S   S541      1.0  0.81119  0.89927  0.68460  1.0000
  C   C1338     1.0  0.72573  0.89907  0.69421  1.0000
  C   C1339     1.0  0.82339  0.97964  0.70726  1.0000
  N   N133      1.0  0.92305  0.90838  0.95062  1.0000
  C   C1340     1.0  0.92215  0.92534  0.96406  1.0000
  C   C1341     1.0  0.90771  0.90956  0.93490  1.0000
  C   C1342     1.0  0.92108  0.89154  0.96519  1.0000
  C   C1343     1.0  0.94127  0.90699  0.93838  1.0000
  H   H2137     1.0  0.93346  0.92481  0.97619  1.0000
  S   S542      1.0  0.92334  0.00502  0.00373  1.0000
  H   H2138     1.0  0.88342  0.76844  0.87866  1.0000
  H   H2139     1.0  0.89380  0.91041  0.94371  1.0000
  H   H2140     1.0  0.90868  0.92219  0.92373  1.0000
  H   H2141     1.0  0.69940  0.89212  0.71029  1.0000
  H   H2142     1.0  0.93295  0.88977  0.97641  1.0000
  H   H2143     1.0  0.92107  0.87849  0.95562  1.0000
  H   H2144     1.0  0.90802  0.89246  0.97569  1.0000
  C   C1344     1.0  0.88569  0.77202  0.89608  1.0000
  H   H2145     1.0  0.94967  0.97385  0.00494  1.0000
  H   H2146     1.0  0.94322  0.91928  0.92693  1.0000
  N   N134      1.0  0.94457  0.83343  0.75404  1.0000
  C   C1345     1.0  0.95086  0.84743  0.73724  1.0000
  C   C1346     1.0  0.95689  0.81625  0.75281  1.0000
  C   C1347     1.0  0.92506  0.82880  0.75003  1.0000
  C   C1348     1.0  0.94548  0.84131  0.77615  1.0000
  H   H2147     1.0  0.94186  0.86058  0.73779  1.0000
  H   H2148     1.0  0.95039  0.84194  0.72034  1.0000
  H   H2149     1.0  0.96552  0.85124  0.73991  1.0000
  H   H2150     1.0  0.95282  0.80553  0.76563  1.0000
  H   H2151     1.0  0.95642  0.80969  0.73649  1.0000
  H   H2152     1.0  0.73266  0.90098  0.70946  1.0000
  H   H2153     1.0  0.91538  0.84146  0.75095  1.0000
  H   H2154     1.0  0.91978  0.81847  0.76264  1.0000
  H   H2155     1.0  0.92377  0.82268  0.73358  1.0000
  H   H2156     1.0  0.94085  0.83106  0.78914  1.0000
  H   H2157     1.0  0.93619  0.85417  0.77790  1.0000
  H   H2158     1.0  0.96000  0.84482  0.77997  1.0000
  N   N135      1.0  0.81616  0.89595  0.79775  1.0000
  C   C1349     1.0  0.82803  0.90448  0.78012  1.0000
  C   C1350     1.0  0.79624  0.89930  0.79246  1.0000
  C   C1351     1.0  0.81975  0.90459  0.81889  1.0000
  C   C1352     1.0  0.82062  0.87550  0.79945  1.0000
  H   H2159     1.0  0.84317  0.90200  0.78332  1.0000
  H   H2160     1.0  0.82545  0.89847  0.76391  1.0000
  H   H2161     1.0  0.94267  0.89401  0.92861  1.0000
  H   H2162     1.0  0.81102  0.89852  0.83262  1.0000
  H   H2163     1.0  0.82516  0.91993  0.77845  1.0000
  H   H2164     1.0  0.79295  0.89226  0.77706  1.0000
  C   C1353     1.0  0.69742  0.89142  0.67499  1.0000
  H   H2165     1.0  0.90812  0.89697  0.92446  1.0000
  H   H2166     1.0  0.81230  0.86862  0.81298  1.0000
  C   C1354     1.0  0.99569  0.80018  0.78879  1.0000
  H   H2167     1.0  0.90868  0.92673  0.97377  1.0000
  C   C1355     1.0  0.99724  0.78076  0.78627  1.0000
  N   N136      1.0  0.84213  0.98569  0.71258  1.0000
  H   H2168     1.0  0.83477  0.98988  0.74676  1.0000
  C   C1356     1.0  0.90223  0.76402  0.92933  1.0000
  S   S543      1.0  0.67337  0.88540  0.67672  1.0000
  H   H2169     1.0  0.91566  0.75721  0.87607  1.0000
  S   S544      1.0  0.96405  0.90424  0.99899  1.0000
  H   H2170     1.0  0.92380  0.77333  0.89507  1.0000
  H   H2171     1.0  0.81333  0.99184  0.70479  1.0000
  C   C1357     1.0  0.91752  0.75944  0.89385  1.0000
  C   C1358     1.0  0.85444  0.96897  0.71749  1.0000
  H   H2172     1.0  0.89051  0.78667  0.89583  1.0000
  C   C1359     1.0  0.85010  0.99638  0.69349  1.0000
  C   C1360     1.0  0.84052  0.99768  0.73204  1.0000
  H   H2173     1.0  0.82391  0.97154  0.69190  1.0000
  H   H2174     1.0  0.85571  0.95948  0.70324  1.0000
  H   H2175     1.0  0.85153  0.98758  0.67861  1.0000
  H   H2176     1.0  0.86425  0.00124  0.69688  1.0000
