data_image0
_chemical_formula_structural       FeS2FeS2FeSFeS3FeS2FeS2FeSFeS3FeS2FeS2FeSFeS3FeS2FeS2FeSFeS3FeS2FeS2FeSFeS3FeS2FeS2FeSFeS3FeS2FeS2FeSFeS3FeS2FeS2FeSFeS3FeS2FeS2FeSFeS3FeS2FeS2FeSFeS3FeS2FeS2FeSFeS3FeS2FeS2FeSFeS3C6H4C6H4C6H4C6H4C6H4C6H4C6H4C6H4C6H4C6H4C6H4C6H4C6H4C6H4C6H4C6H4C6H4C6H4C6H4C6H4C6H4C6H4C6H4C6H4FeS2FeS2FeSFeS3FeS2FeS2FeSFeS3FeS2FeS2FeSFeS3FeS2FeS2FeSFeS3FeS2FeS2FeSFeS3FeS2FeS2FeSFeS3FeS2FeS2FeSFeS3FeS2FeS2FeSFeS3FeS2FeS2FeSFeS3FeS2FeS2FeSFeS3FeS2FeS2FeSFeS3FeS2FeS2FeSFeS3C6H4C6H4C6H4C6H4C6H4C6H4C6H4C6H4C6H4C6H4C6H4C6H4C6H4C6H4C6H4C6H4C6H4C6H4C6H4C6H4C6H4C6H4C6H4C6H4NC4H12NC4H12NC4H12NC4H12NC4H12NC4H12NC4H12NC4H12NC4H12NC4H12NC4H12NC4H12NC4H12NC4H12NC4H12NC4H12NC4H12NC4H12NC4H12NC4H12NC4H12NC4H12NC4H12NC4H12NC4H12NC4H12NC4H12NC4H12NC4H12NC4H12NC4H12NC4H12NC4H12NC4H12NC4H12NC4H12NC4H12NC4H12NC4H12NC4H12NC4H12NC4H12NC4H12NC4H12NC4H12NC4H12NC4H12NC4H12
_chemical_formula_sum              "Fe96 S192 C480 H768 N48"
_cell_length_a       50.6773257626784
_cell_length_b       50.79476164229546
_cell_length_c       48.239672856768884
_cell_angle_alpha    90.07199871898901
_cell_angle_beta     89.76398008447482
_cell_angle_gamma    120.017005934961

_space_group_name_H-M_alt    "P 1"
_space_group_IT_number       1

loop_
  _space_group_symop_operation_xyz
  'x, y, z'

loop_
  _atom_site_type_symbol
  _atom_site_label
  _atom_site_symmetry_multiplicity
  _atom_site_fract_x
  _atom_site_fract_y
  _atom_site_fract_z
  _atom_site_occupancy
  Fe  Fe1       1.0  0.46006547057639696  0.3752058424908595  0.4025561948742603  1.0000
  S   S1        1.0  0.41985646382583536  0.3822182819388737  0.40205366581129226  1.0000
  S   S2        1.0  0.5030974490752518  0.41198288498957136  0.4223816964419687  1.0000
  Fe  Fe2       1.0  0.42390669660067914  0.3110298373347573  0.3788070305244091  1.0000
  S   S3        1.0  0.3805411324358379  0.31347927155320887  0.37656401131502376  1.0000
  S   S4        1.0  0.4339034433147572  0.2749684390094744  0.36078683052997484  1.0000
  Fe  Fe3       1.0  0.4102983029563252  0.3608973662446553  0.35949595698031134  1.0000
  S   S5        1.0  0.4004668978694843  0.3878734811478637  0.3269850317331178  1.0000
  Fe  Fe4       1.0  0.39371234699654306  0.33512458524432936  0.4192794690897927  1.0000
  S   S6        1.0  0.36084862164962583  0.3238342365773293  0.45589798479996907  1.0000
  S   S7        1.0  0.4528264199978351  0.3574601754084287  0.35913492889481236  1.0000
  S   S8        1.0  0.4346697219853888  0.329104583362394  0.4224288823595472  1.0000
  Fe  Fe5       1.0  0.6635939000763729  0.6107343370352125  0.3424652434310212  1.0000
  S   S9        1.0  0.6853873318334649  0.5818920999155176  0.33664042197923605  1.0000
  S   S10       1.0  0.6424918673345651  0.6276559246728148  0.31005018346288193  1.0000
  Fe  Fe6       1.0  0.6607240333011289  0.6028445190834674  0.40680425917240903  1.0000
  S   S11       1.0  0.6817234944302513  0.5727376850955035  0.40543616976965047  1.0000
  S   S12       1.0  0.6398204760743846  0.6155910601133038  0.44312275324008626  1.0000
  Fe  Fe7       1.0  0.7143024630752277  0.6061231229680318  0.37384468938404025  1.0000
  S   S13       1.0  0.7664235997276331  0.628437059349502  0.37617336938895574  1.0000
  Fe  Fe8       1.0  0.6513792224326868  0.5506185846031993  0.3683806565197135  1.0000
  S   S14       1.0  0.6243362248810077  0.5006339067016865  0.35702533257522767  1.0000
  S   S15       1.0  0.6948936543927757  0.6377656184391562  0.37741048106587916  1.0000
  S   S16       1.0  0.6280056353968867  0.5778134861516787  0.3721183713668212  1.0000
  Fe  Fe9       1.0  0.3462929641358847  0.3820311218909803  0.10071337077286717  1.0000
  S   S17       1.0  0.3350529660170316  0.419654729371977  0.10068686123608207  1.0000
  S   S18       1.0  0.33666388661405205  0.3496057599586208  0.06419225142233287  1.0000
  Fe  Fe10      1.0  0.3653380869401894  0.3922554617193287  0.16218733406582833  1.0000
  S   S19       1.0  0.3563703814393477  0.43111580624359125  0.16635848246360393  1.0000
  S   S20       1.0  0.37900633034085895  0.36959190761046334  0.19599235368854023  1.0000
  Fe  Fe11      1.0  0.31310226351724846  0.4025661969599372  0.14226957785429625  1.0000
  S   S21       1.0  0.27360427112247054  0.40680703220045195  0.16069862517380784  1.0000
  Fe  Fe12      1.0  0.3786703821510029  0.4460064506019443  0.12461008884140932  1.0000
  S   S22       1.0  0.40495017152729157  0.4957227653649035  0.11251085208549338  1.0000
  S   S23       1.0  0.3205204766685403  0.3624231426820559  0.1408522997725135  1.0000
  S   S24       1.0  0.3915582029352452  0.4095371931939196  0.1218794655081807  1.0000
  Fe  Fe13      1.0  0.6165625075817354  0.6661021739003145  0.0940022296067329  1.0000
  S   S25       1.0  0.5701690646367273  0.6575293908695728  0.10759858925493314  1.0000
  S   S26       1.0  0.6218946751055477  0.6696880190208688  0.04678129274789255  1.0000
  Fe  Fe14      1.0  0.6375424978428569  0.6715098610649485  0.15474627022778137  1.0000
  S   S27       1.0  0.5933070573963926  0.6646331248396492  0.17118895467685685  1.0000
  S   S28       1.0  0.6737349049628188  0.6755918456597525  0.1851140783898887  1.0000
  Fe  Fe15      1.0  0.5721423972850013  0.6269442645519694  0.14002977723821572  1.0000
  S   S29       1.0  0.5393178779174375  0.5803093713245079  0.15734711157868478  1.0000
  Fe  Fe16      1.0  0.596165631345304  0.6963806590874874  0.13720186652233407  1.0000
  S   S30       1.0  0.5815153155435047  0.7315216172014435  0.14630845883545182  1.0000
  S   S31       1.0  0.6165570732843566  0.6326405984828469  0.12448019647469663  1.0000
  S   S32       1.0  0.6423896981188137  0.7062780959904479  0.12272117119245626  1.0000
  Fe  Fe17      1.0  0.11243815296559986  0.39508258065649016  0.1200027156796627  1.0000
  S   S33       1.0  0.06174147614076165  0.36470501447980713  0.11292303700712916  1.0000
  S   S34       1.0  0.14317713457630438  0.37454623575678986  0.11273079663918624  1.0000
  Fe  Fe18      1.0  0.10500628953136118  0.4498882222927937  0.13214226356973247  1.0000
  S   S35       1.0  0.05442320691605636  0.4236727988889919  0.12627079428082305  1.0000
  S   S36       1.0  0.13224471670090798  0.5005940853521513  0.1405363084435732  1.0000
  Fe  Fe19      1.0  0.05607589396434823  0.3871742682136762  0.15124198426568755  1.0000
  S   S37       1.0  0.017839027298695426  0.35818855647305947  0.1819785563674399  1.0000
  Fe  Fe20      1.0  0.0638641829043697  0.4033911692646538  0.0885014083859337  1.0000
  S   S38       1.0  0.03855970277180752  0.4048987636132265  0.04965188416427609  1.0000
  S   S39       1.0  0.10642626259616822  0.41478210992947623  0.1598269915632212  1.0000
  S   S40       1.0  0.11481601234788467  0.4322912653711206  0.0929033511625615  1.0000
  Fe  Fe21      1.0  0.06981687516133861  0.6710347671066248  0.10053089570407178  1.0000
  S   S41       1.0  0.10759105611393249  0.6598778588904476  0.09941046133374312  1.0000
  S   S42       1.0  0.04610580751065416  0.6803421197924769  0.06450248246615059  1.0000
  Fe  Fe22      1.0  0.06744441313874529  0.6703635971506692  0.16468032566598106  1.0000
  S   S43       1.0  0.10495092617183666  0.6590995686425811  0.16836419346928314  1.0000
  S   S44       1.0  0.040349247353865844  0.6779969205899897  0.19884526206269054  1.0000
  Fe  Fe23      1.0  0.12894135679527863  0.6941429394323252  0.13434165709478763  1.0000
  S   S45       1.0  0.18079580946373253  0.7267612564681032  0.13631106525091496  1.0000
  Fe  Fe24      1.0  0.08143753661358043  0.6261687863062297  0.13335374484812745  1.0000
  S   S46       1.0  0.06261822105046634  0.5750698623144371  0.13311405614520358  1.0000
  S   S47       1.0  0.09302213852199198  0.7076136570325233  0.133133801431099  1.0000
  S   S48       1.0  0.042334751518986094  0.6352537947590166  0.13204114409600975  1.0000
  Fe  Fe25      1.0  0.9749995974013301  0.3426589924274829  0.3461386307168291  1.0000
  S   S49       1.0  0.9245571852172523  0.32367356217675397  0.34080717708923364  1.0000
  S   S50       1.0  0.01341477455284723  0.3560079469931678  0.31441068019977997  1.0000
  Fe  Fe26      1.0  0.9722779919677911  0.35454311946622  0.4092617090469986  1.0000
  S   S51       1.0  0.9218982965416209  0.3379866064133969  0.40808316515479204  1.0000
  S   S52       1.0  0.006575675206895726  0.3782354483662238  0.4442066266364665  1.0000
  Fe  Fe27      1.0  0.9185347223200457  0.2995647394134899  0.38169913091835345  1.0000
  S   S53       1.0  0.8861174973568816  0.2501821740484455  0.3950502231503063  1.0000
  Fe  Fe28      1.0  0.9315361432074678  0.36319528078733637  0.36746589838671423  1.0000
  S   S54       1.0  0.9156180195644371  0.39405099673261523  0.3495634861457352  1.0000
  S   S55       1.0  0.9689577136307855  0.315341562293175  0.3848998777374662  1.0000
  S   S56       1.0  0.9818481273975718  0.38296702118680265  0.3708455310080138  1.0000
  Fe  Fe29      1.0  0.904408540276738  0.5860161805643915  0.3814626265106557  1.0000
  S   S57       1.0  0.9489587243226808  0.6273399925253428  0.368181868742256  1.0000
  S   S58       1.0  0.853110999726718  0.569990431378992  0.38132418753322567  1.0000
  Fe  Fe30      1.0  0.9358269062280746  0.5500374072352431  0.39678000700061644  1.0000
  S   S59       1.0  0.9821137276838645  0.5877167761673749  0.38515358758001533  1.0000
  S   S60       1.0  0.9272502141566039  0.5064152218303869  0.4173689266812375  1.0000
  Fe  Fe31      1.0  0.9691128097157289  0.61861703570437  0.4067617445164535  1.0000
  S   S61       1.0  0.006952459589527393  0.656462300196616  0.43246615277670614  1.0000
  Fe  Fe32      1.0  0.9601288851536299  0.5942075364069903  0.3473010895777044  1.0000
  S   S62       1.0  0.9859299846391131  0.5957698649596702  0.30763500875046484  1.0000
  S   S63       1.0  0.9241051479303497  0.5803788177916238  0.42145060351214564  1.0000
  S   S64       1.0  0.9144526027039692  0.5536224219698095  0.35757478365906303  1.0000
  Fe  Fe33      1.0  0.7111643903458709  0.10793861765921657  0.3801921094842811  1.0000
  S   S65       1.0  0.7067978628682785  0.06137201741206204  0.3790439715598184  1.0000
  S   S66       1.0  0.7473783074866939  0.1547581448416485  0.3637895730026561  1.0000
  Fe  Fe34      1.0  0.6462958698399502  0.08270176154279434  0.40145399467257065  1.0000
  S   S67       1.0  0.6363978973943554  0.03453222785346453  0.4021579607467315  1.0000
  S   S68       1.0  0.6152811883299542  0.09874425391815043  0.4190090483984086  1.0000
  Fe  Fe35      1.0  0.6828211796857887  0.053361596894242504  0.42060713470381433  1.0000
  S   S69       1.0  0.6900569831063508  0.026364547948240953  0.4546194899010503  1.0000
  Fe  Fe36      1.0  0.6602495650119684  0.044556666638624384  0.3605917702224774  1.0000
  S   S70       1.0  0.6362245915499817  0.004173141151600727  0.33082331678718657  1.0000
  S   S71       1.0  0.6913008958184783  0.10115802198076884  0.42317079391387064  1.0000
  S   S72       1.0  0.6659233883647356  0.09139471168668725  0.35852505779346466  1.0000
  Fe  Fe37      1.0  0.41874730045021236  0.10753734545434837  0.38679143670085103  1.0000
  S   S73       1.0  0.3787582500650416  0.059498326579947684  0.3859512877683114  1.0000
  S   S74       1.0  0.40735768942605904  0.14378002165153622  0.4015686958975172  1.0000
  Fe  Fe38      1.0  0.46264685902120656  0.08620674375227115  0.36737239842630204  1.0000
  S   S75       1.0  0.42546332433265516  0.037413113458133564  0.3648849917654285  1.0000
  S   S76       1.0  0.5081983552097421  0.09614826073503933  0.3494714389488953  1.0000
  Fe  Fe39      1.0  0.39772823665270884  0.05522977919451515  0.3447966369641747  1.0000
  S   S77       1.0  0.3672844954638633  0.03801548144544952  0.3063435100901572  1.0000
  Fe  Fe40      1.0  0.40995552005385866  0.045805393554636684  0.40634636503683663  1.0000
  S   S78       1.0  0.3996375575093853  0.008535428343809742  0.43865427308254734  1.0000
  S   S79       1.0  0.4358598428604038  0.10382055909187522  0.34476619738861614  1.0000
  S   S80       1.0  0.4490965816732225  0.09399571117137605  0.40982415229355373  1.0000
  Fe  Fe41      1.0  0.31533765521256824  0.9048744739704749  0.1261183566533143  1.0000
  S   S81       1.0  0.33187228165026605  0.953881742265088  0.13836759940669424  1.0000
  S   S82       1.0  0.26378975842092894  0.8722356848107418  0.13002405508823175  1.0000
  Fe  Fe42      1.0  0.3804957866287195  0.9187675623490942  0.11348800597600546  1.0000
  S   S83       1.0  0.400752277636284  0.9673182488828105  0.12632393536761466  1.0000
  S   S84       1.0  0.41194499509070803  0.905081568106352  0.09235487740755127  1.0000
  Fe  Fe43      1.0  0.3678865525789464  0.9501662812521969  0.16232597063511964  1.0000
  S   S85       1.0  0.3833379766402719  0.9623704518035961  0.2075323519484736  1.0000
  Fe  Fe44      1.0  0.3632085683728488  0.9667970775063429  0.10105759751740083  1.0000
  S   S86       1.0  0.38098042598196635  0.00797625869805696  0.07192139368211317  1.0000
  S   S87       1.0  0.35046583201111325  0.9009136229666727  0.1512714940131939  1.0000
  S   S88       1.0  0.34373862700374563  0.9184221270943438  0.08704438144098973  1.0000
  Fe  Fe45      1.0  0.6172849348308916  0.9050043866612479  0.12961184707551981  1.0000
  S   S89       1.0  0.6543859746119083  0.954351324460039  0.12983569185108254  1.0000
  S   S90       1.0  0.6345782712618135  0.8723925225515778  0.11722477745849597  1.0000
  Fe  Fe46      1.0  0.5690224833895221  0.9226459546225121  0.14155886501696618  1.0000
  S   S91       1.0  0.6027904964954705  0.9725686600033979  0.14124654142836693  1.0000
  S   S92       1.0  0.5223297892893016  0.9097720025119092  0.15858344675737562  1.0000
  Fe  Fe47      1.0  0.6230424210618184  0.9631400260538191  0.10363009993074185  1.0000
  S   S93       1.0  0.645170746748441  0.0006203982007932929  0.07061915626036121  1.0000
  Fe  Fe48      1.0  0.6314889486566219  0.9603668203596114  0.16743954188740579  1.0000
  S   S94       1.0  0.6591250361396261  0.994521579059747  0.2014531271746726  1.0000
  S   S95       1.0  0.5866103231690964  0.9136219772277826  0.10155199147532964  1.0000
  S   S96       1.0  0.597031635842263  0.9104805501059323  0.16955358259215925  1.0000
  C   C1        1.0  0.443598952294374  0.9085470002204759  0.11079606209246864  1.0000
  C   C2        1.0  0.444539768722633  0.9100200689754703  0.139734598113791  1.0000
  C   C3        1.0  0.46896945284300273  0.9106129431065231  0.15401844001474016  1.0000
  C   C4        1.0  0.4930703962431515  0.9106337965314322  0.13950533327557063  1.0000
  C   C5        1.0  0.49267437383172696  0.9101858142471145  0.11051904722920408  1.0000
  C   C6        1.0  0.46778192259307405  0.9087348555619236  0.09623123133178309  1.0000
  H   H1        1.0  0.4259565454428427  0.9097235716789327  0.15113490589902026  1.0000
  H   H2        1.0  0.468927638579255  0.9106274293649187  0.17643479516741853  1.0000
  H   H3        1.0  0.5110080690311112  0.9099552507314331  0.09917105007433746  1.0000
  H   H4        1.0  0.46711326274117826  0.9074304782339538  0.07385213159036721  1.0000
  C   C7        1.0  0.3724940785282183  0.017675519782351788  0.27861855099645444  1.0000
  C   C8        1.0  0.35497408944705955  0.011391307000546913  0.2543182773505716  1.0000
  C   C9        1.0  0.3582688447602583  0.995020916767911  0.23209980072743686  1.0000
  C   C10       1.0  0.378944285166337  0.9844232236428835  0.23406884292203378  1.0000
  C   C11       1.0  0.39625120146805937  0.9905412072753554  0.25843917659315807  1.0000
  C   C12       1.0  0.3932527117966999  0.007212297459465519  0.2804556614099576  1.0000
  H   H5        1.0  0.3388369578689631  0.01933311866096954  0.25260401410341105  1.0000
  H   H6        1.0  0.3447745137870471  0.9905384978042758  0.21354176674929637  1.0000
  H   H7        1.0  0.4122620385466568  0.9824394279117838  0.2602647006331106  1.0000
  H   H8        1.0  0.4068900067809631  0.011783455176557878  0.2989293164337139  1.0000
  C   C13       1.0  0.3872502183853472  0.004042548204504864  0.4738781746911511  1.0000
  C   C14       1.0  0.3887725189973039  0.9819059435225546  0.49026282721832315  1.0000
  C   C15       1.0  0.39956900243316396  0.029927090437378068  0.018921824409548416  1.0000
  C   C16       1.0  0.3759620469792008  0.007687739818534434  0.035417815784387165  1.0000
  C   C17       1.0  0.3487422928624904  0.9865993541002176  0.022653986767627584  1.0000
  C   C18       1.0  0.37525317467645264  0.021031852418577503  0.4856751975276171  1.0000
  H   H9        1.0  0.39777267991175463  0.9684468619926746  0.48137577120597486  1.0000
  H   H10       1.0  0.4207533784470096  0.04625938062068369  0.028596210248877672  1.0000
  H   H11       1.0  0.33028980416937603  0.9695017521231829  0.03507215479553958  1.0000
  H   H12       1.0  0.3737689509327221  0.038036056558144  0.47337297995011024  1.0000
  C   C19       1.0  0.6679224957833274  0.013037744944404439  0.4855737240862079  1.0000
  C   C20       1.0  0.6735321240499419  0.9951582032858701  0.5042833229484976  1.0000
  C   C21       1.0  0.6291254345945266  0.9752529178818701  0.017740912933724113  1.0000
  C   C22       1.0  0.6469378073171159  0.0011011879985165507  0.03380313230611621  1.0000
  C   C23       1.0  0.6675451932699537  0.028380143236324016  0.020348125799111046  1.0000
  C   C24       1.0  0.6447445864288139  0.019489807391700583  0.4917454472220918  1.0000
  H   H13       1.0  0.6914184526612374  0.9900428775087918  0.4997750850833831  1.0000
  H   H14       1.0  0.6127478728939154  0.9542571660334697  0.027693601578830596  1.0000
  H   H15       1.0  0.681552004459843  0.048487058643601824  0.03258302202877846  1.0000
  H   H16       1.0  0.640163184770079  0.03322741753585909  0.4776073574151229  1.0000
  C   C25       1.0  0.6428070081235873  0.00214445820942366  0.2947647304733906  1.0000
  C   C26       1.0  0.6656786756175864  0.026830265234028827  0.2801269477993366  1.0000
  C   C27       1.0  0.6703225704796666  0.023989749054156805  0.2516539209714124  1.0000
  C   C28       1.0  0.652151020025448  0.9965618515686637  0.23738318124080957  1.0000
  C   C29       1.0  0.6292170239757862  0.9718715719679516  0.25199537870753624  1.0000
  C   C30       1.0  0.6245550347787929  0.9746972360449901  0.280485272294883  1.0000
  H   H17       1.0  0.6799915753703916  0.0480546750528152  0.2907580279717472  1.0000
  H   H18       1.0  0.6882367329240421  0.04320597312736557  0.2406100277864491  1.0000
  H   H19       1.0  0.6154774263664186  0.9504739890457244  0.2414448897261998  1.0000
  H   H20       1.0  0.6069184285478956  0.9553776901986472  0.2916057110017578  1.0000
  C   C31       1.0  0.5856750010045785  0.09781293527502803  0.3993320121326661  1.0000
  C   C32       1.0  0.5669841287372511  0.10772016533131745  0.41154970968539134  1.0000
  C   C33       1.0  0.5432233451384053  0.10748458793930074  0.39644276402449286  1.0000
  C   C34       1.0  0.5380110423534803  0.09726875344800659  0.369021168033913  1.0000
  C   C35       1.0  0.5571279756866802  0.08796593106354356  0.3566247727223904  1.0000
  C   C36       1.0  0.5807323039913251  0.08793241715469748  0.3718098872768467  1.0000
  H   H21       1.0  0.5709694502890547  0.11571531676989417  0.4327630369573884  1.0000
  H   H22       1.0  0.5290689131834665  0.11542193298357249  0.4059033834088001  1.0000
  H   H23       1.0  0.5533682677962285  0.08035679156035248  0.3352879114310977  1.0000
  H   H24       1.0  0.5950845710857439  0.08032504260545892  0.36220239996140086  1.0000
  C   C37       1.0  0.847251190024796  0.22438996140009015  0.3865286851277903  1.0000
  C   C38       1.0  0.831550792104799  0.23109326699639154  0.3665306569493979  1.0000
  C   C39       1.0  0.8010562348032038  0.20953395994701643  0.3599825879268621  1.0000
  C   C40       1.0  0.7857236744892186  0.18109705739990156  0.3734271100810075  1.0000
  C   C41       1.0  0.8012849167907008  0.1745455363776438  0.3936934470103196  1.0000
  C   C42       1.0  0.8318707934233714  0.1960109734094954  0.40008115562864965  1.0000
  H   H25       1.0  0.8430288476350455  0.25269768203176257  0.35581136001031666  1.0000
  H   H26       1.0  0.7893937768922903  0.2148505927662451  0.3441540404646555  1.0000
  H   H27       1.0  0.7899059292467248  0.15280968653121021  0.40419577356240227  1.0000
  H   H28       1.0  0.8437128527788974  0.1904737060521117  0.4155436318181846  1.0000
  C   C43       1.0  0.9213978615901368  0.42628192064997766  0.3684403281033449  1.0000
  C   C44       1.0  0.9212156949909375  0.4504054645983241  0.3544028014085865  1.0000
  C   C45       1.0  0.9246749545167309  0.47591794382834485  0.36901758711988386  1.0000
  C   C46       1.0  0.9271264772209354  0.4768875301571921  0.397915133662434  1.0000
  C   C47       1.0  0.9274091012945205  0.4528169527755759  0.4119219102566228  1.0000
  C   C48       1.0  0.9250404811478353  0.42779755701615885  0.3972068300293196  1.0000
  H   H29       1.0  0.9182912611744923  0.4493388520253279  0.33215594377359686  1.0000
  H   H30       1.0  0.9247141145183899  0.49446324485710585  0.35798408927201314  1.0000
  H   H31       1.0  0.9292838991872565  0.4534289252352989  0.4342730684259294  1.0000
  H   H32       1.0  0.9251373547574816  0.4092895393958766  0.4081973691201843  1.0000
  C   C49       1.0  0.025076265600677643  0.6548314128757767  0.22891939676451353  1.0000
  C   C50       1.0  0.028652114756493367  0.6296502996007574  0.23367037542753952  1.0000
  C   C51       1.0  0.016166078400027144  0.6117684984359907  0.257689596007361  1.0000
  C   C52       1.0  0.9998735585595002  0.618683009193851  0.27727142168921015  1.0000
  C   C53       1.0  0.9963100013756214  0.6439298858525755  0.2726050387805985  1.0000
  C   C54       1.0  0.008856316489897197  0.6618703357665742  0.24854727466923246  1.0000
  H   H33       1.0  0.041045332477411475  0.6239105709973939  0.2188109638672209  1.0000
  H   H34       1.0  0.019191081275911903  0.5923875933585246  0.2610825174667489  1.0000
  H   H35       1.0  0.9837863615774364  0.6495431938443769  0.28738298153844327  1.0000
  H   H36       1.0  0.005910701031555332  0.6812757760601307  0.2450631260766581  1.0000
  C   C55       1.0  0.02785853725961886  0.6571544420018329  0.03499126186067322  1.0000
  C   C56       1.0  0.0178927300372881  0.6688189671757834  0.013503292690300745  1.0000
  C   C57       1.0  0.9961550519272736  0.6228664697535073  0.4810057583415238  1.0000
  C   C58       1.0  0.013913819155995367  0.6507468819678264  0.4675813125586835  1.0000
  C   C59       1.0  0.037834877333758975  0.6746775048951309  0.4823795432667439  1.0000
  C   C60       1.0  0.02221907342219782  0.6273032899705601  0.032798450062199655  1.0000
  H   H37       1.0  0.02213451125149346  0.6918735032917487  0.01491446838307058  1.0000
  H   H38       1.0  0.9777102120025807  0.6042134450951125  0.46999025050985765  1.0000
  H   H39       1.0  0.051708068311284335  0.6963678542635472  0.472271716390694  1.0000
  H   H40       1.0  0.029676257638433807  0.617961308634506  0.04912033147846084  1.0000
  C   C61       1.0  0.20332237653051968  0.7672446785344358  0.13377863311503083  1.0000
  C   C62       1.0  0.19039922893001943  0.7859745124053789  0.13274842764398465  1.0000
  C   C63       1.0  0.20925335951875215  0.8179259116811041  0.13133462244881586  1.0000
  C   C64       1.0  0.24125502757729422  0.8316727551296854  0.13065518331994916  1.0000
  C   C65       1.0  0.25421252459587923  0.8129787714475811  0.13165616600060126  1.0000
  C   C66       1.0  0.23535750008240738  0.7810396117049282  0.13331270537890022  1.0000
  H   H41       1.0  0.16586951206416592  0.7758281291185901  0.13309935591146993  1.0000
  H   H42       1.0  0.19889960507255844  0.83206940090982  0.13060624215582986  1.0000
  H   H43       1.0  0.2787244502966218  0.8230499613180227  0.13115771951422459  1.0000
  H   H44       1.0  0.24564456697946124  0.7668335423685329  0.13407342968727096  1.0000
  C   C67       1.0  0.01681017084670986  0.3595374826572966  0.21878481055584809  1.0000
  C   C68       1.0  0.98901450718512  0.34115569727606504  0.2326615629965502  1.0000
  C   C69       1.0  0.9873427053952585  0.34028752488064784  0.2618849228460534  1.0000
  C   C70       1.0  0.013666708626603854  0.35734764551240644  0.2775894632820948  1.0000
  C   C71       1.0  0.04146626280893752  0.3757896003704542  0.26371423644757763  1.0000
  C   C72       1.0  0.042949500918634045  0.377353329371915  0.23450468669868724  1.0000
  H   H45       1.0  0.9686415930269371  0.3272617095612903  0.22070483739650923  1.0000
  H   H46       1.0  0.9658486802069556  0.3258012350926995  0.27222045713290144  1.0000
  H   H47       1.0  0.0619493323379957  0.3891951283435683  0.2756825796405957  1.0000
  H   H48       1.0  0.06434879744138583  0.39207749832593597  0.22417672396990135  1.0000
  C   C73       1.0  0.025765542925517197  0.3824856715041199  0.01892998166834376  1.0000
  C   C74       1.0  0.011039734326989637  0.39027746928161733  0.9985486619370002  1.0000
  C   C75       1.0  0.9877617477830191  0.3434058452264039  0.492523486160484  1.0000
  C   C76       1.0  0.011063828243365032  0.36825013812838936  0.47840395959957294  1.0000
  C   C77       1.0  0.038770255486090005  0.38666600798361056  0.4921128571065493  1.0000
  C   C78       1.0  0.029713191178311893  0.3574637219918769  0.014237602155732961  1.0000
  H   H49       1.0  0.007815965805891128  0.40953826722232106  0.0018921436745242828  1.0000
  H   H50       1.0  0.9661333144401316  0.3296340938200038  0.48241843197047773  1.0000
  H   H51       1.0  0.05696537560609177  0.4059450434368527  0.48136679099254415  1.0000
  H   H52       1.0  0.04100969538322116  0.3511767086606441  0.029660900094002067  1.0000
  C   C79       1.0  0.08316622207002185  0.5558874185764969  0.13825584917636588  1.0000
  C   C80       1.0  0.06662384302811847  0.5242595248574594  0.1420574175380804  1.0000
  C   C81       1.0  0.0815890611552568  0.5073427456822452  0.14368598684142866  1.0000
  C   C82       1.0  0.1132774448791608  0.5218469016740458  0.14126095937452557  1.0000
  C   C83       1.0  0.12999324164653345  0.5536298030416493  0.13823193256815755  1.0000
  C   C84       1.0  0.11499207160759789  0.5706624785603444  0.1367286616794079  1.0000
  H   H53       1.0  0.04202221719050025  0.5127411586764777  0.14346709153391707  1.0000
  H   H54       1.0  0.06853683127262598  0.48304702548506245  0.1466959658468266  1.0000
  H   H55       1.0  0.15456750108002237  0.5650683388561092  0.13650772715443352  1.0000
  H   H56       1.0  0.127953155790698  0.5950468116487304  0.1337689393618324  1.0000
  C   C85       1.0  0.5969608546773364  0.7707413865162211  0.13802657082351052  1.0000
  C   C86       1.0  0.5813465364016841  0.7856500890939425  0.14694541804921543  1.0000
  C   C87       1.0  0.5925430991935656  0.8166795885291691  0.14094264100089332  1.0000
  C   C88       1.0  0.6195680005341602  0.833270438457479  0.12581860725930472  1.0000
  C   C89       1.0  0.6352440440798647  0.8183448034587245  0.11691613451578005  1.0000
  C   C90       1.0  0.6241046010883372  0.7873254083802858  0.12302716938453971  1.0000
  H   H57       1.0  0.5603225063533595  0.7731175843980357  0.15856001255499572  1.0000
  H   H58       1.0  0.5801626998880872  0.8277204686308688  0.14793350528716923  1.0000
  H   H59       1.0  0.6562590709972933  0.830960910686106  0.1053354222778779  1.0000
  H   H60       1.0  0.6366328849728135  0.7763805694148505  0.11630809024281445  1.0000
  C   C91       1.0  0.1802906184501273  0.38558555463997946  0.1253536321433164  1.0000
  C   C92       1.0  0.19732970228927027  0.3740914216253622  0.11226796546747066  1.0000
  C   C93       1.0  0.22618904062453773  0.38088437076029336  0.12234401904922444  1.0000
  C   C94       1.0  0.23805365199221623  0.39868690351393227  0.1461298272856883  1.0000
  C   C95       1.0  0.2210450136154218  0.4102103402985745  0.15924106605834537  1.0000
  C   C96       1.0  0.19250101753356194  0.4039958939532751  0.14878361454924288  1.0000
  H   H61       1.0  0.18807737549849876  0.35972705117523224  0.0941947711869661  1.0000
  H   H62       1.0  0.23887867886672817  0.37176749315633073  0.11201563684360273  1.0000
  H   H63       1.0  0.2299956501185637  0.4240743435499023  0.17762661274865785  1.0000
  H   H64       1.0  0.17974506476229038  0.41303571463827143  0.15910315514515494  1.0000
  C   C97       1.0  0.44256162288586115  0.5187628615936081  0.12456136603283209  1.0000
  C   C98       1.0  0.4600068774629491  0.5486825454681944  0.11464694146810532  1.0000
  C   C99       1.0  0.4898856275589567  0.5677481716858407  0.1242291953146588  1.0000
  C   C100      1.0  0.5023290610846134  0.557027806929555  0.14401154462207147  1.0000
  C   C101      1.0  0.48485902976303735  0.5271256416742017  0.1539409992132139  1.0000
  C   C102      1.0  0.45511921540582995  0.5079822432351837  0.14416275896376593  1.0000
  H   H65       1.0  0.45040414906873527  0.5571232020975  0.09946525591357164  1.0000
  H   H66       1.0  0.5031535253239875  0.5907506395289761  0.11650006457050309  1.0000
  H   H67       1.0  0.49432205149455727  0.5186877266954955  0.16925172133391495  1.0000
  H   H68       1.0  0.4418409414886548  0.4849790989261917  0.1519238116018958  1.0000
  C   C103      1.0  0.7901082554207897  0.6116870640992286  0.377381549820816  1.0000
  C   C104      1.0  0.8220150368715352  0.6307520809827615  0.3779816896819499  1.0000
  C   C105      1.0  0.8417068563147139  0.6185691153743963  0.3791433250266788  1.0000
  C   C106      1.0  0.8296996008433115  0.5870536241788201  0.3798145379706188  1.0000
  C   C107      1.0  0.7977771288885712  0.5680166289149046  0.37942485862960706  1.0000
  C   C108      1.0  0.7781050800580918  0.5801896587138339  0.378205459602574  1.0000
  H   H69       1.0  0.8316264849944324  0.6551450902855424  0.37727390848044495  1.0000
  H   H70       1.0  0.8661409933913768  0.6335517888319632  0.37940694653187496  1.0000
  H   H71       1.0  0.7881404637919806  0.5436279385674923  0.3798971894804215  1.0000
  H   H72       1.0  0.753673618236577  0.5651901243644131  0.3777351711949442  1.0000
  C   C109      1.0  0.6526013306511154  0.6417007924635431  0.2756741947306645  1.0000
  C   C110      1.0  0.6322955465296183  0.6474993607722643  0.2606975908693265  1.0000
  C   C111      1.0  0.638300998028156  0.6574234804834007  0.2329664868070783  1.0000
  C   C112      1.0  0.665170896740911  0.6624928525991305  0.21996998711206256  1.0000
  C   C113      1.0  0.685790829142713  0.6572049582485543  0.23505053965066458  1.0000
  C   C114      1.0  0.6794388590855865  0.646576680001389  0.262695888827492  1.0000
  H   H73       1.0  0.6115096259315836  0.6438515413937936  0.27057088378854993  1.0000
  H   H74       1.0  0.6222033063917438  0.6614027208992592  0.22184392961934774  1.0000
  H   H75       1.0  0.7067277670892976  0.6611598348834469  0.22527655903118063  1.0000
  H   H76       1.0  0.6953441649930715  0.6423206330673945  0.2739902995114936  1.0000
  C   C115      1.0  0.649294007045299  0.6276854943201072  0.47810150377415156  1.0000
  C   C116      1.0  0.632522213207451  0.6388637177529818  0.4921486922553976  1.0000
  C   C117      1.0  0.6575499227922346  0.6434835718924522  0.034132103689832584  1.0000
  C   C118      1.0  0.6384722258590522  0.6539398249660754  0.024332398127040734  1.0000
  C   C119      1.0  0.6332572484853347  0.653121533239658  0.9956025897015879  1.0000
  C   C120      1.0  0.6720718494777245  0.6255686823107782  0.4924744273201578  1.0000
  H   H77       1.0  0.6149300344788325  0.6407195186639988  0.4811861771077821  1.0000
  H   H78       1.0  0.6619487548184881  0.6441074067043344  0.056112179556154815  1.0000
  H   H79       1.0  0.6186296115929437  0.661196415979811  0.9877304519003506  1.0000
  H   H80       1.0  0.6845139071986666  0.6162544176013379  0.482154788907358  1.0000
  C   C121      1.0  0.42631021158877364  0.23857909744619454  0.37267271618879666  1.0000
  C   C122      1.0  0.4093020615830092  0.2250089321579613  0.39665403827725537  1.0000
  C   C123      1.0  0.4040455548034587  0.19618190630472165  0.40520728748866935  1.0000
  C   C124      1.0  0.4158639672262593  0.1805973860692722  0.3901136434804146  1.0000
  C   C125      1.0  0.4331514709595489  0.19432172746433649  0.36626871763131574  1.0000
  C   C126      1.0  0.438202338328083  0.22304450223143332  0.35758915954778764  1.0000
  H   H81       1.0  0.3999002348759846  0.2365329298618928  0.408481146501263  1.0000
  H   H82       1.0  0.39058083660301235  0.18580249813434793  0.4236557637144307  1.0000
  H   H83       1.0  0.44267268589644637  0.1828723193594335  0.35452247323613584  1.0000
  H   H84       1.0  0.45146910947783647  0.23332559158157642  0.3390313843816806  1.0000
  C   C127      1.0  0.3953808416693475  0.38279819947214433  0.2904655066277762  1.0000
  C   C128      1.0  0.3963738275907678  0.359160211248829  0.2765187487116506  1.0000
  C   C129      1.0  0.39193064343411466  0.3559384970810697  0.24756471834435703  1.0000
  C   C130      1.0  0.3865000909858271  0.37625951468262125  0.23213575042452358  1.0000
  C   C131      1.0  0.3857700789583894  0.4000911892711698  0.24605892169856447  1.0000
  C   C132      1.0  0.39012998549836736  0.40326059563602096  0.2750364652465841  1.0000
  H   H85       1.0  0.40038456855208127  0.34322814297979  0.28802731103865253  1.0000
  H   H86       1.0  0.39250651834622674  0.33739194987785676  0.2370531138292477  1.0000
  H   H87       1.0  0.38185252027143435  0.4160647853326412  0.23453823522845912  1.0000
  H   H88       1.0  0.3893683875836189  0.42167781695849194  0.28558556033663357  1.0000
  C   C133      1.0  0.36910289907611105  0.3474986065313345  0.4856461222052237  1.0000
  C   C134      1.0  0.3478317927431918  0.3382883159656242  0.5075906164155346  1.0000
  C   C135      1.0  0.34967210915523944  0.3316166661356946  0.014411909976436637  1.0000
  C   C136      1.0  0.35841717457730904  0.3557642775033836  0.03328739220590359  1.0000
  C   C137      1.0  0.38373479629970464  0.38402072732080295  0.026846925148638772  1.0000
  C   C138      1.0  0.396294512665424  0.37526855898393424  0.4878704751659953  1.0000
  H   H89       1.0  0.3267911632494897  0.31677671274267477  0.5061209752178841  1.0000
  H   H90       1.0  0.33012073429062033  0.30966516406469174  0.019166978875409732  1.0000
  H   H91       1.0  0.3907130967333973  0.40282364540960663  0.04107606101499185  1.0000
  H   H92       1.0  0.4128920551636898  0.38269215737625273  0.4712424406138084  1.0000
  C   C139      1.0  0.5358416225466343  0.4367547212226904  0.4031354598877583  1.0000
  C   C140      1.0  0.5555419528008847  0.4659418071727464  0.41355691555890495  1.0000
  C   C141      1.0  0.5824240674792636  0.4859966288946908  0.3992526485566862  1.0000
  C   C142      1.0  0.5901065555164705  0.47665475431179527  0.37475957100849255  1.0000
  C   C143      1.0  0.5703616483969529  0.447437476687084  0.36429011835427566  1.0000
  C   C144      1.0  0.5431430327729055  0.42759193245113836  0.37831628879885804  1.0000
  H   H93       1.0  0.55006723023182  0.47307014837516953  0.43284031337070994  1.0000
  H   H94       1.0  0.5975460923385524  0.5084466747552818  0.4074718495765074  1.0000
  H   H95       1.0  0.5763222842650109  0.44013639977624225  0.34536669866139685  1.0000
  H   H96       1.0  0.5282480812057988  0.4050400024124445  0.37028684234874  1.0000
  Fe  Fe49      1.0  0.46514113072465835  0.35237635490659924  0.8760996977332346  1.0000
  S   S97       1.0  0.43649453254599796  0.3740663281009874  0.8801019672706624  1.0000
  S   S98       1.0  0.5167776338443172  0.3798942988475096  0.8761936987059898  1.0000
  Fe  Fe50      1.0  0.410808267475567  0.28872917731365055  0.8816611142482867  1.0000
  S   S99       1.0  0.3780101919236285  0.30660621105923036  0.8868599346720937  1.0000
  S   S100      1.0  0.39050810476930453  0.2368884891097305  0.8824061756822253  1.0000
  Fe  Fe51      1.0  0.40355561991643785  0.33808150079250987  0.8512572446157953  1.0000
  S   S101      1.0  0.3795593972749812  0.3561745751288002  0.8233404706050425  1.0000
  Fe  Fe52      1.0  0.4130019891929529  0.34183358572042405  0.9154047804300751  1.0000
  S   S102      1.0  0.4124077497491211  0.37077607256365247  0.951714321545767  1.0000
  S   S103      1.0  0.43430136465454233  0.3182846528320058  0.8442800010222907  1.0000
  S   S104      1.0  0.44374621243683304  0.3217499157897374  0.9129184537233469  1.0000
  Fe  Fe53      1.0  0.6771134229054588  0.618815233441021  0.8548743758004744  1.0000
  S   S105      1.0  0.6675917063237824  0.5721657147251825  0.8436736559382373  1.0000
  S   S106      1.0  0.6814273883267036  0.6519987458451982  0.8210626829706363  1.0000
  Fe  Fe54      1.0  0.6765236341515805  0.6068099231799595  0.9180090986721974  1.0000
  S   S107      1.0  0.6660534760608857  0.5587996320140491  0.9100854520425201  1.0000
  S   S108      1.0  0.6861803276254221  0.6201310807864234  0.9637924196794196  1.0000
  Fe  Fe55      1.0  0.7020107840419604  0.5793140238457632  0.8766637580712558  1.0000
  S   S109      1.0  0.7362376078506749  0.562912742404469  0.8705708071786392  1.0000
  Fe  Fe56      1.0  0.6330596300912636  0.5567480112987725  0.8780720310103253  1.0000
  S   S110      1.0  0.5831086461689479  0.5239416570648441  0.8700248364986706  1.0000
  S   S111      1.0  0.7140280183695502  0.6273401064320144  0.8857239589537563  1.0000
  S   S112      1.0  0.6410692150342138  0.6034540897036017  0.8880798002312603  1.0000
  Fe  Fe57      1.0  0.3662663823357152  0.4093886516711832  0.6031119206538098  1.0000
  S   S113      1.0  0.34814907354112096  0.44139549046580995  0.6099488328811973  1.0000
  S   S114      1.0  0.38964141028950244  0.4090513941400338  0.5625617853366145  1.0000
  Fe  Fe58      1.0  0.3573387196688447  0.38946721469489304  0.6647715817054315  1.0000
  S   S115      1.0  0.3375527509989168  0.41911011914766544  0.6759394212817667  1.0000
  S   S116      1.0  0.36902569901444526  0.3591050716812084  0.6910052406252585  1.0000
  Fe  Fe59      1.0  0.3114570832185726  0.4037010606074387  0.6356540033785092  1.0000
  S   S117      1.0  0.2600469099519636  0.38353852363331525  0.629073185028047  1.0000
  Fe  Fe60      1.0  0.3754979551924593  0.4545872588676881  0.649315710325974  1.0000
  S   S118      1.0  0.4058581024074597  0.5023414463556253  0.6654176558030175  1.0000
  S   S119      1.0  0.3282571336790503  0.37081821864171416  0.6264340337874595  1.0000
  S   S120      1.0  0.39654314007885366  0.4259302022380718  0.6405793188019915  1.0000
  Fe  Fe61      1.0  0.6375933989775925  0.658642590575908  0.6026347032006042  1.0000
  S   S121      1.0  0.5999674297335277  0.669519126852289  0.5969177966361733  1.0000
  S   S122      1.0  0.6695992915144532  0.6570360089725045  0.5698237175045122  1.0000
  Fe  Fe62      1.0  0.6198084929355574  0.6388324448873367  0.6638381994694295  1.0000
  S   S123      1.0  0.5801269608565598  0.6470547245262489  0.6619008285891052  1.0000
  S   S124      1.0  0.6279141140088206  0.613109025333941  0.6987452134095512  1.0000
  Fe  Fe63      1.0  0.5707570614835599  0.6256849921538086  0.6197823966119447  1.0000
  S   S125      1.0  0.5264270103881279  0.5919819436412229  0.5992506326104711  1.0000
  Fe  Fe64      1.0  0.6123982126232641  0.6907906986826476  0.6394969039289711  1.0000
  S   S126      1.0  0.6086275973326688  0.7310942734877668  0.6566172313958959  1.0000
  S   S127      1.0  0.6075132874406498  0.6137942195750684  0.623103127400104  1.0000
  S   S128      1.0  0.6528528804300272  0.6834855915730138  0.6437903697398069  1.0000
  Fe  Fe65      1.0  0.12370956699360916  0.42449490721701116  0.6200360732405558  1.0000
  S   S129      1.0  0.08776295379503118  0.37650244742904915  0.6303853108909068  1.0000
  S   S130      1.0  0.17548381453312076  0.44365875143498534  0.6180046166175959  1.0000
  Fe  Fe66      1.0  0.07715357267409502  0.446968608836073  0.6211882450531433  1.0000
  S   S131      1.0  0.038780993675012324  0.4005379401929353  0.6326574446163102  1.0000
  S   S132      1.0  0.059898123541885125  0.4800652911216634  0.6144447349850959  1.0000
  Fe  Fe67      1.0  0.0712843436222297  0.39773653544135223  0.6623185875020202  1.0000
  S   S133      1.0  0.06866245925217966  0.38703157859954246  0.7087257666254476  1.0000
  Fe  Fe68      1.0  0.058264642516258444  0.3837471266124293  0.5995456831973981  1.0000
  S   S134      1.0  0.02363891704004176  0.3486496618054453  0.5693130484242678  1.0000
  S   S135      1.0  0.10841768176572295  0.4455395766319014  0.6530114132001646  1.0000
  S   S136      1.0  0.09538929444788052  0.4303325862366183  0.5868922025163364  1.0000
  Fe  Fe69      1.0  0.06401818472135029  0.6611110304220108  0.5950843301266331  1.0000
  S   S137      1.0  0.1150351454910757  0.6809772928885164  0.595572029040096  1.0000
  S   S138      1.0  0.03157680540798402  0.6363825369169511  0.5588914145595486  1.0000
  Fe  Fe70      1.0  0.06059212005943896  0.6638228039736885  0.6597143873517463  1.0000
  S   S139      1.0  0.11109271938067174  0.6828845879692009  0.6642947639165923  1.0000
  S   S140      1.0  0.02431665573518135  0.6546718106696231  0.6928484371773436  1.0000
  Fe  Fe71      1.0  0.11626178119426242  0.7134261144557829  0.6283667910566978  1.0000
  S   S141      1.0  0.14660595820809735  0.765114101909843  0.6332229919180764  1.0000
  Fe  Fe72      1.0  0.10595398022219088  0.6491103677108749  0.6314210865214852  1.0000
  S   S142      1.0  0.13126592271282847  0.6228837741948585  0.6331949805659811  1.0000
  S   S143      1.0  0.06556389411741176  0.6958337330802988  0.6251228277711505  1.0000
  S   S144      1.0  0.055218330164179624  0.6277341054472646  0.6296010212470039  1.0000
  Fe  Fe73      1.0  0.9553828068375317  0.339563282635485  0.8407006325047917  1.0000
  S   S145      1.0  0.918383028723835  0.35067596836022447  0.8499499381355927  1.0000
  S   S146      1.0  0.957083867421054  0.3300038817216911  0.7945438742918495  1.0000
  Fe  Fe74      1.0  0.9672634140702131  0.3369700256924143  0.903457516168622  1.0000
  S   S147      1.0  0.9307541509800965  0.3472680715644722  0.9157308522353179  1.0000
  S   S148      1.0  0.9911568424658458  0.32639801892042347  0.9381614075550866  1.0000
  Fe  Fe75      1.0  0.9025746365000819  0.3139252064417744  0.882433753824825  1.0000
  S   S149      1.0  0.8518910861145083  0.27980219730048345  0.8887842370878501  1.0000
  Fe  Fe76      1.0  0.9502756597326971  0.3825612064847706  0.8820645012377213  1.0000
  S   S150      1.0  0.9655215088380901  0.4318240072956584  0.8917261206440963  1.0000
  S   S151      1.0  0.937831264792253  0.3012517129511532  0.8718957781864146  1.0000
  S   S152      1.0  0.9885150260032212  0.3738629961382969  0.871076841757325  1.0000
  Fe  Fe77      1.0  0.914418398835193  0.6104655169777994  0.8801916896754135  1.0000
  S   S153      1.0  0.9640023174135283  0.6423583526747559  0.8915823043771293  1.0000
  S   S154      1.0  0.8815029695327374  0.6292383956414087  0.8810974302616793  1.0000
  Fe  Fe78      1.0  0.9259718008994902  0.5578360028773369  0.8700082851532457  1.0000
  S   S155      1.0  0.9751630881237641  0.5856090757835848  0.8810229092665004  1.0000
  S   S156      1.0  0.9045998473824157  0.5088838082914252  0.8555922780915112  1.0000
  Fe  Fe79      1.0  0.9601250104675597  0.6032451452060295  0.9169734438026028  1.0000
  S   S157      1.0  0.9772135388419232  0.5970791332653106  0.959256027237367  1.0000
  Fe  Fe80      1.0  0.9750320575034754  0.6219454335621925  0.8545762978298849  1.0000
  S   S158      1.0  0.01617763291415164  0.6446442083526611  0.8251508393230514  1.0000
  S   S159      1.0  0.9101605996930893  0.5725709954524367  0.9074939132085862  1.0000
  S   S160      1.0  0.9261691712307373  0.5930728563091415  0.841660096220766  1.0000
  Fe  Fe81      1.0  0.7242921152893391  0.10128082843748801  0.8779717452147691  1.0000
  S   S161      1.0  0.7068605965650605  0.05085173693463002  0.8710096002475367  1.0000
  S   S162      1.0  0.7759618030357669  0.13474167188834427  0.8766581430666981  1.0000
  Fe  Fe82      1.0  0.6600533098007285  0.09041702948670581  0.8857600190378835  1.0000
  S   S163      1.0  0.63890941844872  0.04045087469235042  0.8793634215000774  1.0000
  S   S164      1.0  0.6320955779033195  0.11301690375731516  0.8947837323295894  1.0000
  Fe  Fe83      1.0  0.6754774377925189  0.0433982300713418  0.907387762295647  1.0000
  S   S165      1.0  0.6569289831517432  0.003981742714886844  0.9385514069595386  1.0000
  Fe  Fe84      1.0  0.6713381247509351  0.05172912897040652  0.8435066126752364  1.0000
  S   S166      1.0  0.6453057040483873  0.02744113264047237  0.8039480424844653  1.0000
  S   S167      1.0  0.6950945384092567  0.09329478025985895  0.9160255667744087  1.0000
  S   S168      1.0  0.690479536839513  0.10229463123584631  0.8483398606212866  1.0000
  Fe  Fe85      1.0  0.4367481957640745  0.10562649324763844  0.885260247276225  1.0000
  S   S169      1.0  0.38758147621000966  0.07133488273266098  0.8783332100436951  1.0000
  S   S170      1.0  0.4548208166087323  0.15626024774710184  0.892876845907069  1.0000
  Fe  Fe86      1.0  0.45589581969423426  0.05724233610539686  0.8809256895787416  1.0000
  S   S171      1.0  0.407612370777203  0.01986219726266894  0.873580956492937  1.0000
  S   S172      1.0  0.4884146003251756  0.03883027439604874  0.8817731415865505  1.0000
  Fe  Fe87      1.0  0.40456053414791254  0.05264491375882951  0.8444359157423721  1.0000
  S   S173      1.0  0.38106306634961473  0.04368389241538422  0.8021877116933661  1.0000
  Fe  Fe88      1.0  0.39569739989987407  0.04184329382987644  0.9081663160836391  1.0000
  S   S174      1.0  0.3613203558435024  0.013373497602206996  0.941752620893706  1.0000
  S   S175      1.0  0.45366065085879237  0.0889364155505265  0.8496921518885446  1.0000
  S   S176      1.0  0.44398795029349203  0.07729031128701828  0.9171821267040536  1.0000
  Fe  Fe89      1.0  0.3284253023005656  0.8958456539108164  0.6236578402932264  1.0000
  S   S177      1.0  0.3305642738267212  0.9399898991918364  0.6353803943056895  1.0000
  S   S178      1.0  0.29150361925838464  0.845952232510834  0.6177575521721436  1.0000
  Fe  Fe90      1.0  0.3970025094678766  0.9284913513701539  0.6095884578559211  1.0000
  S   S179      1.0  0.40423187478389205  0.9748403576565945  0.6192674936008137  1.0000
  S   S180      1.0  0.43115365546394807  0.918040793342698  0.5895348251199926  1.0000
  Fe  Fe91      1.0  0.374904436124211  0.9525680702594995  0.6571386239820795  1.0000
  S   S181      1.0  0.394171231790782  0.9692208252196183  0.7006590857810019  1.0000
  Fe  Fe92      1.0  0.35996143105600825  0.9591623285822729  0.5967176229236644  1.0000
  S   S182      1.0  0.351033665941301  0.9864080132088194  0.564116773071703  1.0000
  S   S183      1.0  0.37041850389281633  0.9068519980482781  0.6481546736130276  1.0000
  S   S184      1.0  0.3551791034663271  0.9146788574360818  0.5843499114184697  1.0000
  Fe  Fe93      1.0  0.6099722185851811  0.8887517607274419  0.6209796297335302  1.0000
  S   S185      1.0  0.6475520148121556  0.9379137148502311  0.6180265837559825  1.0000
  S   S186      1.0  0.6188814892126505  0.8516505905314874  0.6040134712761508  1.0000
  Fe  Fe94      1.0  0.5653533408869743  0.9067982702647313  0.6447246570124241  1.0000
  S   S187      1.0  0.5996596148084344  0.9566168200562095  0.6440438066313633  1.0000
  S   S188      1.0  0.5190006145145577  0.8924138969994424  0.6631150282027961  1.0000
  Fe  Fe95      1.0  0.6117864532151192  0.9475496316203941  0.6012813793409248  1.0000
  S   S189      1.0  0.6117263342452502  0.9784586737358598  0.5665865889035934  1.0000
  Fe  Fe96      1.0  0.6321329099836008  0.942903503949033  0.6609306965371994  1.0000
  S   S190      1.0  0.6664203564324812  0.9660951529516681  0.6960733995256752  1.0000
  S   S191      1.0  0.5751346385000565  0.8981969449297456  0.6013046280816908  1.0000
  S   S192      1.0  0.5969584400036864  0.8932705654328956  0.6645817036571705  1.0000
  C   C145      1.0  0.45466533368810763  0.9102121873946494  0.610534218965084  1.0000
  C   C146      1.0  0.4728154002549807  0.8998500048058198  0.5980319379828297  1.0000
  C   C147      1.0  0.492765181848327  0.8945065309548671  0.614005866271436  1.0000
  C   C148      1.0  0.4940863312515989  0.8987956954670102  0.6427101592212768  1.0000
  C   C149      1.0  0.4752883032623939  0.9083485604292257  0.6553256986498727  1.0000
  C   C150      1.0  0.4559367292704513  0.9145109732358088  0.6392248040885169  1.0000
  H   H97       1.0  0.47168678563534255  0.8962045625957545  0.5758586500963505  1.0000
  H   H98       1.0  0.5069891473699862  0.88686815353498  0.6041858972254935  1.0000
  H   H99       1.0  0.47624570376452624  0.911669828517903  0.6775531012706083  1.0000
  H   H100      1.0  0.44213134489369066  0.9226728281417538  0.6490352731794911  1.0000
  C   C151      1.0  0.38474278428992714  0.02270982273280412  0.774194539050329  1.0000
  C   C152      1.0  0.36811748989016485  0.018622292054181644  0.7496536310895013  1.0000
  C   C153      1.0  0.3705371965083572  0.002304360466921951  0.7269392041864136  1.0000
  C   C154      1.0  0.3897401949103742  0.9899222470539659  0.7284824809704611  1.0000
  C   C155      1.0  0.40640778497244695  0.9941375024823536  0.7529996136339123  1.0000
  C   C156      1.0  0.4039394040744116  0.010361398082041331  0.7757026830891138  1.0000
  H   H101      1.0  0.35313728684438067  0.027981512542566644  0.7482228843185307  1.0000
  H   H102      1.0  0.3575649907101383  0.9992910267514704  0.7082861728947617  1.0000
  H   H103      1.0  0.42128251052478777  0.9846459379663024  0.7544912126172088  1.0000
  H   H104      1.0  0.4168398402165799  0.013212572622529018  0.794383493227421  1.0000
  C   C157      1.0  0.368262165265111  0.010886856037722065  0.9774803528473379  1.0000
  C   C158      1.0  0.3959615705965431  0.031204640081736068  0.9900388540537469  1.0000
  C   C159      1.0  0.3785868677719231  0.9768475761592386  0.5180627759970792  1.0000
  C   C160      1.0  0.3661558419201805  0.9935015164737582  0.5297449838005229  1.0000
  C   C161      1.0  0.3645043628246442  0.015549944407529602  0.5133453341820251  1.0000
  C   C162      1.0  0.3447971748227609  0.9885019412042617  0.9939380808305868  1.0000
  H   H105      1.0  0.4143442685782281  0.0482354090891437  0.9775975398740439  1.0000
  H   H106      1.0  0.3799893412612923  0.9597763304741832  0.5303150055533444  1.0000
  H   H107      1.0  0.35490163534887137  0.02855065143567841  0.5221068918287448  1.0000
  H   H108      1.0  0.3232524201836618  0.9726875957875678  0.9844603519448744  1.0000
  C   C163      1.0  0.6531181674608463  0.0038951439419663875  0.9751882950046504  1.0000
  C   C164      1.0  0.6324311997395548  0.9766206714414977  0.9886322732509973  1.0000
  C   C165      1.0  0.6564394083860068  0.984111794838336  0.5290262119648765  1.0000
  C   C166      1.0  0.6335601277302506  0.9909455056316939  0.5353978795075678  1.0000
  C   C167      1.0  0.6277767793760642  0.00859186292731076  0.5165378660840159  1.0000
  C   C168      1.0  0.6705768557092362  0.029844473413253324  0.9912232697418376  1.0000
  H   H109      1.0  0.618754666493572  0.95643394434309  0.9763852892603797  1.0000
  H   H110      1.0  0.6612216938006708  0.9706354026108478  0.543310717880686  1.0000
  H   H111      1.0  0.6102059902822555  0.014086627180069219  0.5212155272186237  1.0000
  H   H112      1.0  0.6869016382230873  0.050875561441250085  0.9812377999698254  1.0000
  C   C169      1.0  0.6520108640835358  0.010420621099185418  0.7743561010790304  1.0000
  C   C170      1.0  0.6793565114009058  0.010432727362158199  0.7700722081988465  1.0000
  C   C171      1.0  0.6834134167620926  0.9968257580206146  0.7460478925614081  1.0000
  C   C172      1.0  0.6602623653967334  0.9830610294773003  0.7260121629013468  1.0000
  C   C173      1.0  0.6329164023299421  0.983002286926985  0.730355883039387  1.0000
  C   C174      1.0  0.6288718036294035  0.9965961751298013  0.754331237934134  1.0000
  H   H113      1.0  0.6973966418004006  0.02098327767637095  0.7852031748510337  1.0000
  H   H114      1.0  0.704693169806678  0.9970968408280301  0.7429454047466373  1.0000
  H   H115      1.0  0.6148360039583981  0.972436250575797  0.7152589099264223  1.0000
  H   H116      1.0  0.6075567661043574  0.9962455833732272  0.7574057293625281  1.0000
  C   C175      1.0  0.5920788116841164  0.09236095344852152  0.8916081923036008  1.0000
  C   C176      1.0  0.5755200390646639  0.10773671686230243  0.8928111118672909  1.0000
  C   C177      1.0  0.5435919537558479  0.09174897362482827  0.889884111803442  1.0000
  C   C178      1.0  0.5281447056157527  0.06024424414590581  0.8860621368785576  1.0000
  C   C179      1.0  0.5446816863843409  0.04489117235167167  0.8852930425283376  1.0000
  C   C180      1.0  0.5764991624901545  0.06087305466578243  0.8878547625443967  1.0000
  H   H117      1.0  0.5874317716831875  0.13213435876966068  0.8957103071836613  1.0000
  H   H118      1.0  0.5309722998650755  0.10374809656519969  0.8905182248853778  1.0000
  H   H119      1.0  0.5327643794427616  0.02047853694346539  0.8824585945864326  1.0000
  H   H120      1.0  0.5887833836423939  0.04868563120162538  0.8869762270690525  1.0000
  C   C181      1.0  0.8313676852389422  0.23945740738423874  0.8856072823087355  1.0000
  C   C182      1.0  0.7993057291473219  0.2240607060798794  0.886224765632597  1.0000
  C   C183      1.0  0.7819973270766328  0.19210978840159768  0.8836402234532896  1.0000
  C   C184      1.0  0.7965787796528137  0.17506572384538124  0.8804958217798544  1.0000
  C   C185      1.0  0.8287042966756518  0.19048652578613667  0.8800750729220048  1.0000
  C   C186      1.0  0.8460225101606752  0.22245703333696748  0.8826828366757025  1.0000
  H   H121      1.0  0.7876858829357059  0.23692351197721676  0.8886365042154885  1.0000
  H   H122      1.0  0.7573561538472494  0.18066258856870207  0.8840482054477998  1.0000
  H   H123      1.0  0.8402244666914266  0.17752389401035035  0.8777113884393314  1.0000
  H   H124      1.0  0.8706416216026568  0.23388266777898997  0.8823091866700425  1.0000
  C   C187      1.0  0.949295212872089  0.4525672152911508  0.8779855244597031  1.0000
  C   C188      1.0  0.965774439597953  0.48433997426668546  0.8802077909007265  1.0000
  C   C189      1.0  0.9525739760403469  0.5018392094063838  0.8726549145146202  1.0000
  C   C190      1.0  0.9227294011311582  0.4876937244884002  0.8627239854747759  1.0000
  C   C191      1.0  0.9066293772413581  0.4559757306593318  0.859350193285049  1.0000
  C   C192      1.0  0.9198489026562525  0.4383850390836681  0.8670169991772435  1.0000
  H   H125      1.0  0.9887183553606789  0.4954068075729768  0.8883635129786498  1.0000
  H   H126      1.0  0.9654041420887298  0.5261743690374732  0.8750195608561137  1.0000
  H   H127      1.0  0.883544725568329  0.4448613141193909  0.851548423119518  1.0000
  H   H128      1.0  0.9069746761217855  0.4138683958020131  0.8652412054376034  1.0000
  C   C193      1.0  0.022201265815257307  0.6498357863088143  0.7295108036025709  1.0000
  C   C194      1.0  0.04730492251477881  0.654884551936212  0.7454751853836004  1.0000
  C   C195      1.0  0.044966057445274064  0.6530246423213807  0.7746718457114704  1.0000
  C   C196      1.0  0.01742491538975684  0.6455003035529494  0.7882693518870191  1.0000
  C   C197      1.0  0.9921023805202993  0.639620254166244  0.7722659247188172  1.0000
  C   C198      1.0  0.9945966429862699  0.6420400317334021  0.7431099644668618  1.0000
  H   H129      1.0  0.06862540464384471  0.6605848201308295  0.7354276531985061  1.0000
  H   H130      1.0  0.06468723098479418  0.6575533786514928  0.7868569594271433  1.0000
  H   H131      1.0  0.9708308669636246  0.634048073555351  0.7823846601308175  1.0000
  H   H132      1.0  0.9750468026141496  0.6382001999597783  0.7310090630778256  1.0000
  C   C199      1.0  0.025612013587820535  0.6430837895237004  0.523798111510019  1.0000
  C   C200      1.0  0.0019682694287086774  0.6191207164125152  0.5088777524435345  1.0000
  C   C201      1.0  0.0027570367190654643  0.6510580061585521  0.9900039132615898  1.0000
  C   C202      1.0  0.9970848522692491  0.621193478227379  0.9878385899346598  1.0000
  C   C203      1.0  0.00683049802682989  0.6094520828364746  0.009446951755157196  1.0000
  C   C204      1.0  0.0437334244885564  0.6708842609233094  0.5103064766523133  1.0000
  H   H133      1.0  0.9877858779400238  0.5975053985055195  0.5190233938817674  1.0000
  H   H134      1.0  0.9954303991047453  0.6604646683735372  0.9736401690248025  1.0000
  H   H135      1.0  0.0026412446894050704  0.5864331761068609  0.008069585701693693  1.0000
  H   H136      1.0  0.062013408602036496  0.6895466211260433  0.5214437284069967  1.0000
  C   C205      1.0  0.1869446793179123  0.7872635246001084  0.6289156398559752  1.0000
  C   C206      1.0  0.20437879875814255  0.7744162301784334  0.6201934033379547  1.0000
  C   C207      1.0  0.23624549414415988  0.7927892347788288  0.6169636532893438  1.0000
  C   C208      1.0  0.25122016525240204  0.82419396051248  0.6225575788536577  1.0000
  C   C209      1.0  0.23382073243484822  0.8371196998328398  0.6312501552975801  1.0000
  C   C210      1.0  0.20188312733906663  0.8187511842395656  0.6343052037415058  1.0000
  H   H137      1.0  0.1933033104878371  0.7502890001379673  0.6159478224222398  1.0000
  H   H138      1.0  0.24936728273649175  0.7824753386261135  0.610192329166865  1.0000
  H   H139      1.0  0.2449183871840027  0.8611373024918999  0.6359019937261139  1.0000
  H   H140      1.0  0.18867345603036917  0.8289489748746397  0.641143756349198  1.0000
  C   C211      1.0  0.03715566089287297  0.3732215163206781  0.7320742358362364  1.0000
  C   C212      1.0  0.04278168319902616  0.37666451009873625  0.7607913310458071  1.0000
  C   C213      1.0  0.01858280441233802  0.3645867041306333  0.7801790701027049  1.0000
  C   C214      1.0  0.9883914028293022  0.34827346906725926  0.7710644802550279  1.0000
  C   C215      1.0  0.9827484578602995  0.3449068483441149  0.7423413168530472  1.0000
  C   C216      1.0  0.006934516893901851  0.35757513869295676  0.7229387201878049  1.0000
  H   H141      1.0  0.0660241190685011  0.38861795497333307  0.7681425357009886  1.0000
  H   H142      1.0  0.02332934645284168  0.3672423452750543  0.8021669582124773  1.0000
  H   H143      1.0  0.9595275962048664  0.3322631112152549  0.7350230258501511  1.0000
  H   H144      1.0  0.002222533512812073  0.3545292084073514  0.7009632144178178  1.0000
  C   C217      1.0  0.019893820080184785  0.3557757684516452  0.5338627447802621  1.0000
  C   C218      1.0  0.9923151555761657  0.3369464364347541  0.5199882620184838  1.0000
  C   C219      1.0  0.0005647382397698383  0.3735054647305923  0.9737329896683079  1.0000
  C   C220      1.0  0.004657688193086835  0.3486077057638914  0.9689389350760838  1.0000
  C   C221      1.0  0.0191546920787657  0.34061497689171977  0.9893954282082046  1.0000
  C   C222      1.0  0.04323938710608584  0.3804327012473982  0.5195930242334761  1.0000
  H   H145      1.0  0.974073653714477  0.3178779038053849  0.5308856521812597  1.0000
  H   H146      1.0  0.9895268449219914  0.3800167078813475  0.9582286239293689  1.0000
  H   H147      1.0  0.022475937644062728  0.3214215248882021  0.9859330999509937  1.0000
  H   H148      1.0  0.06473197369264481  0.39487625058382314  0.5297964571708009  1.0000
  C   C223      1.0  0.11115413213399845  0.5828864199204821  0.6298498489940435  1.0000
  C   C224      1.0  0.07968131246769736  0.5669411080688943  0.6256149020784134  1.0000
  C   C225      1.0  0.06438084960261548  0.5353993405076649  0.6212365798522055  1.0000
  C   C226      1.0  0.08029071946694041  0.5193872341154563  0.6214964309478058  1.0000
  C   C227      1.0  0.11172798814134857  0.5351524795244413  0.6261208481532023  1.0000
  C   C228      1.0  0.12712942689690104  0.5668833195435122  0.6301489147005406  1.0000
  H   H149      1.0  0.06708601185242634  0.5788613604631949  0.6256267932215116  1.0000
  H   H150      1.0  0.04002100401683528  0.5233003103203148  0.6178805108655309  1.0000
  H   H151      1.0  0.12420446641608825  0.5230064937677658  0.626277607934294  1.0000
  H   H152      1.0  0.15151114568589893  0.5790772755999339  0.6334189060971382  1.0000
  C   C229      1.0  0.6111858731431337  0.7642047324848117  0.6413011904555505  1.0000
  C   C230      1.0  0.6036394746117972  0.7826635363750494  0.657444019109753  1.0000
  C   C231      1.0  0.6053630543865068  0.8092019103182508  0.6463263462502316  1.0000
  C   C232      1.0  0.6150046252383804  0.8178058494588639  0.6189339973873577  1.0000
  C   C233      1.0  0.6223069366728188  0.799204872854749  0.6027557937576207  1.0000
  C   C234      1.0  0.6202923668860355  0.7725081316121061  0.613778867902237  1.0000
  H   H153      1.0  0.596407900594816  0.776384115065888  0.6787228782120182  1.0000
  H   H154      1.0  0.5993052203922019  0.8230178811331802  0.6589274137387251  1.0000
  H   H155      1.0  0.6297970936704393  0.8056257223132145  0.581541824807336  1.0000
  H   H156      1.0  0.6262552677435219  0.7586653136759137  0.6010855202692514  1.0000
  C   C235      1.0  0.19848604017728505  0.426315458663402  0.6207561796786571  1.0000
  C   C236      1.0  0.18607854932459125  0.394739267362648  0.6210750867501266  1.0000
  C   C237      1.0  0.20526512620250675  0.38216232629437213  0.6238586528141592  1.0000
  C   C238      1.0  0.23705518407211298  0.40087008712463224  0.626446345911148  1.0000
  C   C239      1.0  0.24948768482205244  0.43243118549024717  0.6260794961309221  1.0000
  C   C240      1.0  0.2303068687380348  0.4450155060235134  0.6231805844497617  1.0000
  H   H157      1.0  0.1617354537153684  0.3799816882625794  0.6189021100240785  1.0000
  H   H158      1.0  0.19537834371600551  0.3577104766230444  0.6239393697293774  1.0000
  H   H159      1.0  0.27386765809496755  0.4471736724053694  0.6279898187504116  1.0000
  H   H160      1.0  0.24020458948433906  0.4694714975282512  0.6229536263659524  1.0000
  C   C241      1.0  0.44015895027028773  0.5259850325285503  0.6474349277454877  1.0000
  C   C242      1.0  0.4637747341212845  0.5513553035394235  0.6608829730218082  1.0000
  C   C243      1.0  0.4908991233841922  0.5711772441971982  0.6466698543679302  1.0000
  C   C244      1.0  0.49413522838168844  0.5661836241335835  0.6186597656279132  1.0000
  C   C245      1.0  0.4705485737293769  0.5408396524209654  0.6052233899844244  1.0000
  C   C246      1.0  0.4438246571600075  0.5205551022677234  0.6196488786645796  1.0000
  H   H161      1.0  0.4610425274735486  0.555582269858398  0.682398166212635  1.0000
  H   H162      1.0  0.508976760914043  0.5905409472946719  0.6572607728369477  1.0000
  H   H163      1.0  0.4727943319430011  0.5369178845436077  0.5835254836387732  1.0000
  H   H164      1.0  0.4256970296620887  0.5011585885023122  0.6090942902974938  1.0000
  C   C247      1.0  0.7767046413426154  0.582007767584221  0.8732212168847966  1.0000
  C   C248      1.0  0.7944425180062263  0.6135925550283661  0.8761969455396371  1.0000
  C   C249      1.0  0.8264024960221896  0.6275409593270448  0.8785738423035298  1.0000
  C   C250      1.0  0.8411288623731251  0.6102519510193821  0.8778336213400265  1.0000
  C   C251      1.0  0.8234000582879669  0.5787218916722084  0.8746359766362474  1.0000
  C   C252      1.0  0.7914166386080435  0.5647470116333975  0.872299554476399  1.0000
  H   H165      1.0  0.7837269680309982  0.6273935372192725  0.8765315083141199  1.0000
  H   H166      1.0  0.8399456749614761  0.6519703878682702  0.8809066900251179  1.0000
  H   H167      1.0  0.8343582795497044  0.5651095219342436  0.8739501839140669  1.0000
  H   H168      1.0  0.7780123330515005  0.5403228514619343  0.8698536402704301  1.0000
  C   C253      1.0  0.6674637891118798  0.6413321659932015  0.7867365811291936  1.0000
  C   C254      1.0  0.6597990372991417  0.6128205344021902  0.7759340043642544  1.0000
  C   C255      1.0  0.6487009863579138  0.6050762585434815  0.7486563885475045  1.0000
  C   C256      1.0  0.6445448650464392  0.6254308943911439  0.7319892807166384  1.0000
  C   C257      1.0  0.6524283268582295  0.6540379787796792  0.7426947021652034  1.0000
  C   C258      1.0  0.6640258992729484  0.661985036506647  0.7698668308496835  1.0000
  H   H169      1.0  0.6623871237060845  0.5967196916378251  0.7885311545267235  1.0000
  H   H170      1.0  0.6427777586746922  0.5829426239682494  0.7404964206614174  1.0000
  H   H171      1.0  0.6494272813230033  0.6699660217538077  0.7301102262530232  1.0000
  H   H172      1.0  0.670042283822008  0.6841759865099096  0.7779468614140441  1.0000
  C   C259      1.0  0.666512558045727  0.6322026086127847  0.9866071235337409  1.0000
  C   C260      1.0  0.6716719395210795  0.6329531621826521  0.01534518500429738  1.0000
  C   C261      1.0  0.638433843396097  0.6479267216671908  0.5201635296024731  1.0000
  C   C262      1.0  0.6612969212676768  0.6459577775845771  0.5345117838652736  1.0000
  C   C263      1.0  0.6782015554126913  0.6349067310570152  0.5204480463555281  1.0000
  C   C264      1.0  0.6469421013892861  0.6420775747056268  0.9768645177960842  1.0000
  H   H173      1.0  0.6868171878962673  0.6254848382748744  0.023154903483203038  1.0000
  H   H174      1.0  0.6255843793672289  0.6568267862488831  0.5305456391983171  1.0000
  H   H175      1.0  0.6957981371269641  0.6331240689190069  0.531458613043062  1.0000
  H   H176      1.0  0.6428469776295659  0.6418075619272549  0.9548514705417004  1.0000
  C   C265      1.0  0.4089886697826255  0.21499919254649047  0.8851468642870786  1.0000
  C   C266      1.0  0.3911776416261398  0.1830137783378366  0.885087804830107  1.0000
  C   C267      1.0  0.40477654391431256  0.16468160939299678  0.8871473356819378  1.0000
  C   C268      1.0  0.43645191908100384  0.17816050943027453  0.8893316600450691  1.0000
  C   C269      1.0  0.4542203110357926  0.21008473388584095  0.8896161295659984  1.0000
  C   C270      1.0  0.4406406592121441  0.2284175600207438  0.8874151699487189  1.0000
  H   H177      1.0  0.3666527819245305  0.17241213574477188  0.8835426513228727  1.0000
  H   H178      1.0  0.3907202619184843  0.14020970203112934  0.8874074271317031  1.0000
  H   H179      1.0  0.4787298357118632  0.22079571012017657  0.8914809803986371  1.0000
  H   H180      1.0  0.4546665656692753  0.2529433138852212  0.8875418046128031  1.0000
  C   C271      1.0  0.37826087834250993  0.35771430357086453  0.7864178116182926  1.0000
  C   C272      1.0  0.3878521489921136  0.3419369856140832  0.7691137183754768  1.0000
  C   C273      1.0  0.3850252392380216  0.34276821675236085  0.7400259193681724  1.0000
  C   C274      1.0  0.3730127941032538  0.3596962784680333  0.727799096410968  1.0000
  C   C275      1.0  0.36392945297786067  0.3758988211426716  0.7450829197757738  1.0000
  C   C276      1.0  0.36634026484310594  0.37470761860185703  0.7741710261245998  1.0000
  H   H181      1.0  0.3969293550035147  0.3286526508333557  0.7781531419303767  1.0000
  H   H182      1.0  0.3920155829581268  0.3300250999962422  0.726954551759465  1.0000
  H   H183      1.0  0.35457006443179734  0.38894917902003656  0.7360759932618601  1.0000
  H   H184      1.0  0.35878015993898765  0.3869659931293575  0.7872592506558234  1.0000
  C   C277      1.0  0.3912557454785971  0.36383783485500354  0.9830833398811526  1.0000
  C   C278      1.0  0.36602147639705696  0.33554713684282006  0.9895005432965405  1.0000
  C   C279      1.0  0.3536468514282412  0.3566111022131964  0.5314213475532478  1.0000
  C   C280      1.0  0.38079110438110797  0.3845083935496464  0.5334388203505481  1.0000
  C   C281      1.0  0.4020344225141031  0.3936052234698977  0.5115765004508577  1.0000
  C   C282      1.0  0.39992100124710883  0.38802418017133  0.0018549474246547515  1.0000
  H   H185      1.0  0.3589918932004596  0.316704359080521  0.9753217367905028  1.0000
  H   H186      1.0  0.3371845505533526  0.3491348639921259  0.5481353599105303  1.0000
  H   H187      1.0  0.42311291068990176  0.41510272137795723  0.5128803059605839  1.0000
  H   H188      1.0  0.4193031401529085  0.4100717311189583  0.9971068508485618  1.0000
  C   C283      1.0  0.5353541542786142  0.41990730179794905  0.8736619609908717  1.0000
  C   C284      1.0  0.5193233034349264  0.43469861479215754  0.8666591009608576  1.0000
  C   C285      1.0  0.534358287088727  0.4665890227750306  0.8657329807502091  1.0000
  C   C286      1.0  0.5655764342872411  0.4839896238882443  0.8716268122481793  1.0000
  C   C287      1.0  0.581759834268141  0.4692923076599405  0.8785014825684649  1.0000
  C   C288      1.0  0.5666475617745348  0.43729599033245986  0.8794701585480275  1.0000
  H   H189      1.0  0.4954089195730747  0.4216045768281943  0.8616620655230217  1.0000
  H   H190      1.0  0.5217074127863844  0.4777875318283217  0.8603146262091689  1.0000
  H   H191      1.0  0.6058632817070692  0.4825246614127906  0.8829571172679196  1.0000
  H   H192      1.0  0.579241786912081  0.42597585199248544  0.8847152488032234  1.0000
  N   N1        1.0  0.4019293371970786  0.9392760393036756  0.01760286103617159  1.0000
  C   C289      1.0  0.3967806206469673  0.9519641702288537  0.9919417427687832  1.0000
  C   C290      1.0  0.40521087055318517  0.9592193082359229  0.04120685075690478  1.0000
  C   C291      1.0  0.42998763571340143  0.9373972387162408  0.014825926635770426  1.0000
  C   C292      1.0  0.37565087365145555  0.9085348222747445  0.0226079686777394  1.0000
  H   H193      1.0  0.3943820861015955  0.9376790458080602  0.9735644485720396  1.0000
  H   H194      1.0  0.4158523618769772  0.9753923628522742  0.9877271268578365  1.0000
  H   H195      1.0  0.37560939397012105  0.9534285408763583  0.9934712976077124  1.0000
  H   H196      1.0  0.4235592106633643  0.9831152043281169  0.037640982705421155  1.0000
  H   H197      1.0  0.3837825037716303  0.9595563030825686  0.04489650672315304  1.0000
  H   H198      1.0  0.4105928695702342  0.9513414113340345  0.060767133232856985  1.0000
  H   H199      1.0  0.4341980944533519  0.9277288618623355  0.03396739639994051  1.0000
  H   H200      1.0  0.4502804336819895  0.9602523463205145  0.01138926543076102  1.0000
  H   H201      1.0  0.42840715251739175  0.9225584175173956  0.9971797605491672  1.0000
  H   H202      1.0  0.37856253888677577  0.8984729520754603  0.04207348521804288  1.0000
  H   H203      1.0  0.37263476267817064  0.8927154875583202  0.005371092693715385  1.0000
  H   H204      1.0  0.35403711808978355  0.9090885456796605  0.024754912707799503  1.0000
  N   N2        1.0  0.3183105235158523  0.4921785748507911  0.11506185131599131  1.0000
  C   C293      1.0  0.3138656203076533  0.5183193772481833  0.12064559620670015  1.0000
  C   C294      1.0  0.2886814671515868  0.46519856065619386  0.1081628389753132  1.0000
  C   C295      1.0  0.33100952125801836  0.4857104263785329  0.1399637848473909  1.0000
  C   C296      1.0  0.3397194196441402  0.4995004944145443  0.09156816637917324  1.0000
  H   H205      1.0  0.3358174149747939  0.5390600356301526  0.12589224360517648  1.0000
  H   H206      1.0  0.2979139715734092  0.5135416051405012  0.138361829478375  1.0000
  H   H207      1.0  0.30415925536672483  0.52375538778411  0.10231994257716627  1.0000
  H   H208      1.0  0.29099273028062356  0.4447663725783867  0.10461763711277793  1.0000
  H   H209      1.0  0.2718775387735948  0.4593950211246703  0.12530727951159368  1.0000
  H   H210      1.0  0.2786004495400828  0.4688935147396596  0.08914963175905705  1.0000
  H   H211      1.0  0.3347455156181279  0.46624782306632623  0.13633039124641236  1.0000
  H   H212      1.0  0.31533232089243785  0.4796278644818331  0.15808410839866469  1.0000
  H   H213      1.0  0.3535303052459276  0.5054326785110397  0.145719298127159  1.0000
  H   H214      1.0  0.34357905490895274  0.48023702277417557  0.08678161175165196  1.0000
  H   H215      1.0  0.36252925944061826  0.5193835724320404  0.0963256368485999  1.0000
  H   H216      1.0  0.3311013777266973  0.5047455125164546  0.07240696085088703  1.0000
  N   N3        1.0  0.3528923700275621  0.3827798840193023  0.8983742396265461  1.0000
  C   C297      1.0  0.34547259413004416  0.35072857013125375  0.8988760690851914  1.0000
  C   C298      1.0  0.3337050406887014  0.38642463098242524  0.8774682241997874  1.0000
  C   C299      1.0  0.38534811998029883  0.40249392968705444  0.8909443247088894  1.0000
  C   C300      1.0  0.34713947994129263  0.3913225854357471  0.9261230116809958  1.0000
  H   H217      1.0  0.34949417638566904  0.3435109330001411  0.8782110484970779  1.0000
  H   H218      1.0  0.321187975684759  0.3351259402203705  0.9044692880170361  1.0000
  H   H219      1.0  0.35964475627415177  0.34715590626801496  0.9143315922718492  1.0000
  H   H220      1.0  0.3378080169667952  0.3800700806603822  0.8563615854330116  1.0000
  H   H221      1.0  0.30902594799664407  0.3716724917468207  0.8822269884726469  1.0000
  H   H222      1.0  0.3386546186946018  0.41035038973211996  0.8763999133485126  1.0000
  H   H223      1.0  0.39171892314612955  0.4268372814394447  0.8900535742268118  1.0000
  H   H224      1.0  0.39058754522169126  0.3963215386190715  0.8702822632459233  1.0000
  H   H225      1.0  0.400510510295116  0.40042444231751223  0.9063324870288021  1.0000
  H   H226      1.0  0.3526000997025411  0.4154256737309085  0.9266557280316251  1.0000
  H   H227      1.0  0.3613621562876195  0.388592859182343  0.9422266285714431  1.0000
  H   H228      1.0  0.3228944696192692  0.3767812683779861  0.9324997427420454  1.0000
  N   N4        1.0  0.7558368390036097  0.5962007529213152  0.9585363716059179  1.0000
  C   C301      1.0  0.7250866885027676  0.5689551480867856  0.958599211817837  1.0000
  C   C302      1.0  0.7787820885942718  0.5871659093364958  0.9521362729147981  1.0000
  C   C303      1.0  0.7620528361769637  0.6110053968895993  0.9860058189475116  1.0000
  C   C304      1.0  0.7572749293167059  0.6177265516051054  0.9372364429304612  1.0000
  H   H229      1.0  0.7197193939630459  0.5572072217731647  0.9381246202168892  1.0000
  H   H230      1.0  0.7071849382828781  0.5750635405684497  0.9629918785373548  1.0000
  H   H231      1.0  0.7229807348478174  0.5522440536628773  0.9745788886649399  1.0000
  H   H232      1.0  0.8022325716863262  0.6072356782618504  0.9510818128583322  1.0000
  H   H233      1.0  0.778753040607275  0.5712844455829882  0.9680062429941914  1.0000
  H   H234      1.0  0.7742478887442171  0.5754614440013194  0.9316974422553512  1.0000
  H   H235      1.0  0.7849732828450406  0.6318277710255578  0.9865613855410467  1.0000
  H   H236      1.0  0.7611430319604343  0.595462702917194  0.0026855097791442795  1.0000
  H   H237      1.0  0.7449276587217539  0.6179745848594098  0.9912484906362802  1.0000
  H   H238      1.0  0.780576498438649  0.637844076905199  0.9353825220397382  1.0000
  H   H239      1.0  0.7413784307428667  0.6262471915017809  0.9421415002368405  1.0000
  H   H240      1.0  0.7507787607311195  0.6066125014087118  0.9166155985128137  1.0000
  N   N5        1.0  0.6763825053520595  0.8898093702823142  0.6914247809264793  1.0000
  C   C305      1.0  0.6485758140092678  0.8823053000366852  0.7074969999748012  1.0000
  C   C306      1.0  0.7032412045423618  0.9144447981719857  0.7055853050950385  1.0000
  C   C307      1.0  0.6740070700873876  0.900054526303225  0.6633780323942667  1.0000
  C   C308      1.0  0.6796469392682781  0.8625418949701172  0.6891564708467699  1.0000
  H   H241      1.0  0.6453911007376729  0.9024289020731265  0.7094436148018922  1.0000
  H   H242      1.0  0.6496074740431734  0.874683790016874  0.7288668569703103  1.0000
  H   H243      1.0  0.6278154657097038  0.8638762373365334  0.6973744276317358  1.0000
  H   H244      1.0  0.7058288103702675  0.9075883299667337  0.7268422672322173  1.0000
  H   H245      1.0  0.724616599136444  0.9210414724817401  0.6938544497012521  1.0000
  H   H246      1.0  0.701226298724614  0.9352626354524077  0.7076599620170193  1.0000
  H   H247      1.0  0.6941887038447053  0.9052614973983578  0.6503157550178781  1.0000
  H   H248      1.0  0.6723225949576616  0.9210382764793326  0.664354960758732  1.0000
  H   H249      1.0  0.6535063395395254  0.8824269809195388  0.6523181352215326  1.0000
  H   H250      1.0  0.7004514985522664  0.8674480986944072  0.67718935030493  1.0000
  H   H251      1.0  0.6598524062813929  0.8437294045446777  0.6782157330579952  1.0000
  H   H252      1.0  0.6811904738484661  0.8539117908758193  0.7099261985272775  1.0000
  N   N6        1.0  0.9872051701249676  0.4260753724508122  0.28973355555230734  1.0000
  C   C309      1.0  0.9636597918633544  0.3935803820485993  0.2916400988003032  1.0000
  C   C310      1.0  0.9828106306175652  0.4391023873264069  0.26395521784663695  1.0000
  C   C311      1.0  0.01771957656014922  0.4289882896723748  0.2894040568366635  1.0000
  C   C312      1.0  0.984598102657929  0.44257289162829166  0.31389965256878294  1.0000
  H   H253      1.0  0.9403345762198841  0.3904871789104721  0.2932138731470727  1.0000
  H   H254      1.0  0.9670456529810739  0.3827751929659707  0.3102889736682112  1.0000
  H   H255      1.0  0.9642964236279521  0.3805957463018986  0.27330536090731666  1.0000
  H   H256      1.0  0.9598863641596743  0.4370626947416503  0.2635103202836403  1.0000
  H   H257      1.0  0.00012921202061333403  0.4636561697664301  0.26187991715259823  1.0000
  H   H258      1.0  0.9847694691579116  0.42723083469147605  0.24528805326106085  1.0000
  H   H259      1.0  0.036151545523806616  0.45320046949836706  0.28853488816879724  1.0000
  H   H260      1.0  0.0205759331058053  0.41727336626588346  0.2711049962770188  1.0000
  H   H261      1.0  0.02146557581107711  0.41860216735685535  0.3082548436622527  1.0000
  H   H262      1.0  0.0024252285038122157  0.4670343827575807  0.31358079237558845  1.0000
  H   H263      1.0  0.9867618638724743  0.43268755112310675  0.3337626298989025  1.0000
  H   H264      1.0  0.9620429745449813  0.4413233291772367  0.3144373260326436  1.0000
  N   N7        1.0  0.5183068685737835  0.679665757317137  0.6296745528201706  1.0000
  C   C313      1.0  0.5437537276402256  0.6999678945233239  0.6111629467839736  1.0000
  C   C314      1.0  0.5095781454873102  0.6476948209191902  0.6240992092942249  1.0000
  C   C315      1.0  0.49196287156352353  0.683945291980457  0.6245762838266263  1.0000
  C   C316      1.0  0.5279810167491097  0.6870873110947143  0.6588803517170321  1.0000
  H   H265      1.0  0.5641160454622087  0.6975852203199558  0.6147265198312292  1.0000
  H   H266      1.0  0.5510281497694433  0.7243290289250536  0.6148150645363858  1.0000
  H   H267      1.0  0.5375185962654535  0.6948692566534361  0.5889305063080023  1.0000
  H   H268      1.0  0.4904678753515673  0.6315936851815279  0.6376876752502667  1.0000
  H   H269      1.0  0.502380702228771  0.641154574944579  0.6022075803159255  1.0000
  H   H270      1.0  0.5289755190112505  0.6437532877830642  0.627776510172608  1.0000
  H   H271      1.0  0.47227190715719275  0.6688389130662303  0.638106240783225  1.0000
  H   H272      1.0  0.48420244062017753  0.6786586949852585  0.6026763110844786  1.0000
  H   H273      1.0  0.49782811135194976  0.7078463669616698  0.6287426383766848  1.0000
  H   H274      1.0  0.536254628096462  0.711484133408428  0.6635144496384258  1.0000
  H   H275      1.0  0.5471323510459309  0.6830458960770545  0.6636763892063073  1.0000
  H   H276      1.0  0.5090935785768437  0.6729589605547571  0.6735069572307693  1.0000
  N   N8        1.0  0.6490351234024484  0.7558616825487444  0.20967612579898007  1.0000
  C   C317      1.0  0.660363632874827  0.7341578179348555  0.21146630108824752  1.0000
  C   C318      1.0  0.6156881747207056  0.7395509293247831  0.21423984399006119  1.0000
  C   C319      1.0  0.6560187473716884  0.7701170351880501  0.18191342170727112  1.0000
  C   C320      1.0  0.6640401071075316  0.7796247443435459  0.23105789887574932  1.0000
  H   H277      1.0  0.6854525521145938  0.7455119447453552  0.2081297186724755  1.0000
  H   H278      1.0  0.6497019848140217  0.7160749516092089  0.19547770583560972  1.0000
  H   H279      1.0  0.655322051823633  0.7226853429495659  0.23203986280362238  1.0000
  H   H280      1.0  0.60620425050905  0.7550796416974456  0.21229867439929587  1.0000
  H   H281      1.0  0.603665056849624  0.7212327310978197  0.19865152959757257  1.0000
  H   H282      1.0  0.6094815970000399  0.7287366696003199  0.23509414709173687  1.0000
  H   H283      1.0  0.647688056360283  0.786580979242652  0.17978137846461925  1.0000
  H   H284      1.0  0.6448265541921127  0.7527773257727465  0.16534428770683024  1.0000
  H   H285      1.0  0.6809496766808798  0.7824948320383932  0.17759741245064153  1.0000
  H   H286      1.0  0.6559271457238768  0.7963455782734168  0.2303084434615862  1.0000
  H   H287      1.0  0.6892322670627045  0.7924265438133395  0.22816808882070377  1.0000
  H   H288      1.0  0.6593035264822306  0.7695885907585149  0.25226515358420387  1.0000
  N   N9        1.0  0.5690419414729501  0.5627852541130305  0.5446800524669896  1.0000
  C   C321      1.0  0.5661238563607636  0.5901225698435384  0.5411772725049563  1.0000
  C   C322      1.0  0.5533245030946702  0.5468202260713331  0.5704572981867349  1.0000
  C   C323      1.0  0.60164849232371  0.5719116123709854  0.5463274318379481  1.0000
  C   C324      1.0  0.5550607691043132  0.5423385679323869  0.5207023891052859  1.0000
  H   H289      1.0  0.5764691400875068  0.6019704709848076  0.5213312631387488  1.0000
  H   H290      1.0  0.577591294656518  0.6066945999299337  0.5583083586830867  1.0000
  H   H291      1.0  0.5418078501899647  0.5842594243237832  0.5412089417333008  1.0000
  H   H292      1.0  0.5287297939549972  0.5400019962986513  0.5701217855126325  1.0000
  H   H293      1.0  0.5548781657214414  0.5259888351151253  0.5738147932120105  1.0000
  H   H294      1.0  0.5633252426485018  0.5616774652214754  0.5889190604574622  1.0000
  H   H295      1.0  0.6047744779630191  0.5520543642271722  0.5501004848046502  1.0000
  H   H296      1.0  0.6133383776604178  0.5885413274947174  0.5634042645529557  1.0000
  H   H297      1.0  0.6138747784187911  0.582890093172896  0.5267403277845707  1.0000
  H   H298      1.0  0.5568601716347201  0.5214576203531233  0.522595553704345  1.0000
  H   H299      1.0  0.5664597148926536  0.5537664988538433  0.5008998994230801  1.0000
  H   H300      1.0  0.530458166926342  0.5351136386602103  0.5188252873786058  1.0000
  N   N10       1.0  0.9021489987187012  0.2685729330877043  0.9670109290770353  1.0000
  C   C325      1.0  0.8760193039152209  0.27171612472658585  0.957908387738171  1.0000
  C   C326      1.0  0.9170283939617951  0.26404123306136773  0.9425346914269582  1.0000
  C   C327      1.0  0.8912455487308004  0.2420749947409398  0.9856842639311838  1.0000
  C   C328      1.0  0.9243785110240396  0.29642262492144295  0.9818095112530469  1.0000
  H   H301      1.0  0.8640219972363453  0.27498640311109585  0.9757758512269861  1.0000
  H   H302      1.0  0.8590497363284838  0.25133890265837816  0.9461815123706389  1.0000
  H   H303      1.0  0.8834355818357863  0.2915624776665542  0.9438412150523291  1.0000
  H   H304      1.0  0.9010156556998286  0.24342064390530951  0.9306062942511294  1.0000
  H   H305      1.0  0.9257033643933195  0.28379696237721114  0.9282843463736616  1.0000
  H   H306      1.0  0.9370969492540204  0.26189304400168845  0.9484856166380274  1.0000
  H   H307      1.0  0.9104533416279373  0.23905253365508755  0.99279607549868  1.0000
  H   H308      1.0  0.8744583698382729  0.22070452879134736  0.9750895592772805  1.0000
  H   H309      1.0  0.8799393852418345  0.24475187020772943  0.004443210751290394  1.0000
  H   H310      1.0  0.9332042831055857  0.3168626392265228  0.9682562285422798  1.0000
  H   H311      1.0  0.9446585536409619  0.2950151854107302  0.9885366995433411  1.0000
  H   H312      1.0  0.9141557326162496  0.30068698386722625  0.000502467528251227  1.0000
  N   N11       1.0  0.48956504476439044  0.45970417318594237  0.3385041243068508  1.0000
  C   C329      1.0  0.4739524939196863  0.4706995349781646  0.3199765619069851  1.0000
  C   C330      1.0  0.5213143451964394  0.48422676511467977  0.3431806417125206  1.0000
  C   C331      1.0  0.4895909386085672  0.433322686668206  0.32556052735728186  1.0000
  C   C332      1.0  0.47323382260127217  0.45041085525540314  0.36532891937028483  1.0000
  H   H313      1.0  0.44993727445248843  0.4525305329367696  0.31605766840548505  1.0000
  H   H314      1.0  0.48558853238813177  0.47785816068487663  0.2994942616186619  1.0000
  H   H315      1.0  0.4732064317271155  0.4904266035418853  0.3291607038827567  1.0000
  H   H316      1.0  0.5334382269832035  0.4767642522232346  0.35754357235909007  1.0000
  H   H317      1.0  0.5346616691282028  0.49141624983481236  0.3235266795438234  1.0000
  H   H318      1.0  0.522213073539887  0.5046731374815057  0.3526074601761748  1.0000
  H   H319      1.0  0.5018458357628878  0.43946585471163513  0.3053335214365885  1.0000
  H   H320      1.0  0.46594857314108273  0.41445914368488895  0.32165114093741176  1.0000
  H   H321      1.0  0.5008250870689124  0.42417461421986524  0.3390953242454396  1.0000
  H   H322      1.0  0.4837418562488125  0.441044846870486  0.37959177004858224  1.0000
  H   H323      1.0  0.44898158247040376  0.4325413800705017  0.36242457205215795  1.0000
  H   H324      1.0  0.4733781125441299  0.46985955915316224  0.3760912296170021  1.0000
  N   N12       1.0  0.8645364634279825  0.25397099278991264  0.796671797953727  1.0000
  C   C333      1.0  0.8429983420639775  0.2534149267265921  0.7758071201299084  1.0000
  C   C334      1.0  0.8502625036859549  0.2248031410260387  0.8119282859853935  1.0000
  C   C335      1.0  0.872343539292755  0.2791462183360573  0.8163055290446611  1.0000
  C   C336      1.0  0.8925918183512898  0.2586483737268448  0.782690083666718  1.0000
  H   H325      1.0  0.8530118312297521  0.27530590154647006  0.7642150512664839  1.0000
  H   H326      1.0  0.8215127740493341  0.24969539005796013  0.7857508370913323  1.0000
  H   H327      1.0  0.8368462254378638  0.23488975143159918  0.7604385539172468  1.0000
  H   H328      1.0  0.8662715393013376  0.22421304320854865  0.8273086678547543  1.0000
  H   H329      1.0  0.8295686303515707  0.22102568876241593  0.8235240376815993  1.0000
  H   H330      1.0  0.8432345591646387  0.20513207445198167  0.7977361110280952  1.0000
  H   H331      1.0  0.8517154061183697  0.27702287638550527  0.8267514596386253  1.0000
  H   H332      1.0  0.8843860170924513  0.3016563281492862  0.8057040182203568  1.0000
  H   H333      1.0  0.887679425691864  0.2795621924354139  0.8328937196883914  1.0000
  H   H334      1.0  0.8879293142461647  0.23957113393852147  0.7684627707109253  1.0000
  H   H335      1.0  0.9100077645325559  0.2607838939694733  0.7979692972520415  1.0000
  H   H336      1.0  0.9034255883804607  0.2800195787117887  0.7702531286516647  1.0000
  N   N13       1.0  0.506231204050912  0.4037758998861779  0.9608422360048672  1.0000
  C   C337      1.0  0.5264190193638073  0.4306145691715007  0.977809463179558  1.0000
  C   C338      1.0  0.49348921450129085  0.41321404490337627  0.9379685991078385  1.0000
  C   C339      1.0  0.4811074659224063  0.38097500340780555  0.9782700408624583  1.0000
  C   C340      1.0  0.5238718585644064  0.39033669311900615  0.94918594221745  1.0000
  H   H337      1.0  0.5363272389513135  0.4243452874697466  0.9954054856335379  1.0000
  H   H338      1.0  0.5137648283229587  0.441400688792777  0.9866330484430446  1.0000
  H   H339      1.0  0.5456650231587833  0.4481759988486439  0.965210592075363  1.0000
  H   H340      1.0  0.47852532776368  0.42183500176380395  0.9458150206337257  1.0000
  H   H341      1.0  0.5117918206569817  0.4314019413054467  0.925104976217679  1.0000
  H   H342      1.0  0.4795222267562843  0.3938040586160138  0.9239689737770493  1.0000
  H   H343      1.0  0.46509519882439204  0.3606951162472474  0.9659139967533112  1.0000
  H   H344      1.0  0.46731304530559864  0.3903564870091738  0.9874607193757473  1.0000
  H   H345      1.0  0.48974647308593683  0.3729535821820545  0.9955679931600296  1.0000
  H   H346      1.0  0.5343700178383064  0.38339713157156113  0.9657248287278858  1.0000
  H   H347      1.0  0.5424128406963962  0.4066018847550911  0.9351766867915368  1.0000
  H   H348      1.0  0.5091485590268467  0.3697770178162561  0.9365279159464458  1.0000
  N   N14       1.0  0.6832085563727588  0.1818319726326605  0.3727082368463419  1.0000
  C   C341      1.0  0.694168945202263  0.17069427669030035  0.39572698898011055  1.0000
  C   C342      1.0  0.699183519177221  0.18228793309860014  0.34682781279782704  1.0000
  C   C343      1.0  0.689484443252217  0.21288852134000438  0.3790900397538857  1.0000
  C   C344      1.0  0.6500428286038329  0.16139029451620565  0.3692711207145738  1.0000
  H   H349      1.0  0.6821212746354136  0.1691815267986338  0.41553245093608965  1.0000
  H   H350      1.0  0.7191459129540632  0.18548189305521512  0.3990434342479688  1.0000
  H   H351      1.0  0.6902544888336163  0.14761132828194046  0.3912229072859851  1.0000
  H   H352      1.0  0.6949015389956056  0.15914359267782774  0.34141047565889554  1.0000
  H   H353      1.0  0.6917459820202423  0.19076843380213093  0.32896623770631567  1.0000
  H   H354      1.0  0.7243609585289136  0.19696433583487402  0.3489135161188451  1.0000
  H   H355      1.0  0.6814407567868194  0.22199689535873082  0.36217016495114446  1.0000
  H   H356      1.0  0.7143710219962155  0.22878803783436918  0.3817838418656046  1.0000
  H   H357      1.0  0.6778514521091976  0.2132711695822664  0.3985963768539312  1.0000
  H   H358      1.0  0.6407864233178092  0.16889710317498977  0.3520655058435793  1.0000
  H   H359      1.0  0.6372772709000507  0.16022820927819273  0.3885233009973455  1.0000
  H   H360      1.0  0.6446004138961133  0.13772860737415668  0.36461631335902955  1.0000
  N   N15       1.0  0.5969442688381107  0.5648908695137538  0.20698819427259482  1.0000
  C   C345      1.0  0.563473129942783  0.5453462002584443  0.20517758299660596  1.0000
  C   C346      1.0  0.6056775090269465  0.5746580298709131  0.2360022369598088  1.0000
  C   C347      1.0  0.6068905421078519  0.591883912245212  0.18914466471318883  1.0000
  C   C348      1.0  0.6117873821323939  0.547755111394102  0.1975002487894559  1.0000
  H   H361      1.0  0.5561324763105722  0.5375739785056013  0.1834979619796293  1.0000
  H   H362      1.0  0.5516483060631403  0.5579087839128922  0.21160470221980013  1.0000
  H   H363      1.0  0.554959553131225  0.5248416802653042  0.2185309879813113  1.0000
  H   H364      1.0  0.630753147107678  0.5899682609990775  0.23797890904738095  1.0000
  H   H365      1.0  0.5945457330309379  0.5873123426913573  0.24394979601664069  1.0000
  H   H366      1.0  0.5990999731820752  0.5549898317565166  0.2500865110309088  1.0000
  H   H367      1.0  0.6320768153585458  0.6070580634999505  0.1895526334038587  1.0000
  H   H368      1.0  0.5963504873881365  0.6055667801339718  0.19576904168187187  1.0000
  H   H369      1.0  0.6001395135835741  0.5852092959130432  0.16720183933627433  1.0000
  H   H370      1.0  0.6047947946570197  0.527163199639468  0.21044957596699204  1.0000
  H   H371      1.0  0.6370828558002514  0.5619952788092623  0.1986272683943926  1.0000
  H   H372      1.0  0.6057798063401698  0.540221108848615  0.17559339948843639  1.0000
  N   N16       1.0  0.9970489820142392  0.42170999125726033  0.5589175505164046  1.0000
  C   C349      1.0  0.996195045637009  0.44984896409543557  0.5532251065272225  1.0000
  C   C350      1.0  0.9764203204961242  0.3974319275918925  0.5397297587256888  1.0000
  C   C351      1.0  0.9871761472820966  0.4118450971775289  0.5877976249208632  1.0000
  C   C352      1.0  0.02848120331266478  0.42763071044916934  0.5549360982706928  1.0000
  H   H373      1.0  0.01145513238586099  0.4684218678938401  0.5676635547422086  1.0000
  H   H374      1.0  0.9727987800692084  0.4462575502300572  0.5558782711797224  1.0000
  H   H375      1.0  0.003831696382048463  0.4579851560491611  0.531670060078904  1.0000
  H   H376      1.0  0.9838578801361768  0.403367769097903  0.5177270838986987  1.0000
  H   H377      1.0  0.9759494489174662  0.37573941913681214  0.5443124696474112  1.0000
  H   H378      1.0  0.9526373841761101  0.39296607050386023  0.5414485970793429  1.0000
  H   H379      1.0  0.987605126436989  0.3906237607715656  0.5927449630596937  1.0000
  H   H380      1.0  0.963631778362797  0.4073483811279969  0.5916395010771172  1.0000
  H   H381      1.0  0.0024289871129633345  0.42942044548145053  0.6029177202895621  1.0000
  H   H382      1.0  0.045267434336065775  0.4478750501119449  0.5666582635927776  1.0000
  H   H383      1.0  0.03555715248363069  0.43172039259262024  0.5327702221494488  1.0000
  H   H384      1.0  0.03084190649627785  0.40826968609608105  0.5624273966903859  1.0000
  N   N17       1.0  0.6819266603390307  0.9394495628569473  0.04935836004240366  1.0000
  C   C353      1.0  0.6991945512259025  0.9508345642162075  0.07545096182123821  1.0000
  C   C354      1.0  0.6932098570691545  0.964530017453861  0.0289540452489238  1.0000
  C   C355      1.0  0.6492374674716994  0.9278369888015181  0.05486900060487672  1.0000
  C   C356      1.0  0.6859374121813506  0.9145290626033341  0.03829987145357282  1.0000
  H   H385      1.0  0.690414493873392  0.9327967330487901  0.09173622197143279  1.0000
  H   H386      1.0  0.6973966776978194  0.970342839489491  0.08383352052166147  1.0000
  H   H387      1.0  0.723837490196147  0.9588893378510446  0.07234584614062452  1.0000
  H   H388      1.0  0.6800075842534326  0.9571709390052952  0.009286935886931415  1.0000
  H   H389      1.0  0.6911835959071272  0.9839729198115447  0.037138118322562426  1.0000
  H   H390      1.0  0.717635798232913  0.9734222465434547  0.02375958074136104  1.0000
  H   H391      1.0  0.6454606784746568  0.9457942949378745  0.06392983206749156  1.0000
  H   H392      1.0  0.6398113989692088  0.9085870340027181  0.0698568995850039  1.0000
  H   H393      1.0  0.6354930426469788  0.9196855237348112  0.035591396966104125  1.0000
  H   H394      1.0  0.6730966878727436  0.905394670733754  0.018643779369063113  1.0000
  H   H395      1.0  0.6775249237929543  0.8953361100099488  0.05338436580386904  1.0000
  H   H396      1.0  0.710352311557315  0.922375484173284  0.03393877069629014  1.0000
  N   N18       1.0  0.750786328040031  0.6144609432538233  0.7942502010684819  1.0000
  C   C357      1.0  0.7801762088215952  0.6151386631575833  0.7970608520367315  1.0000
  C   C358      1.0  0.7258411572208554  0.5825567608644765  0.7920502168442923  1.0000
  C   C359      1.0  0.7513131757364819  0.6314178834105298  0.769157597144041  1.0000
  C   C360      1.0  0.7457184194180251  0.6286933523668438  0.8188808000963699  1.0000
  H   H397      1.0  0.7801648629954847  0.6020309807005259  0.8155979534092761  1.0000
  H   H398      1.0  0.7995186917925364  0.6387902257874543  0.7994681300507157  1.0000
  H   H399      1.0  0.7850502073954215  0.6049848682337605  0.7786702336563516  1.0000
  H   H400      1.0  0.7033575453536052  0.5811739664588959  0.7895664782428489  1.0000
  H   H401      1.0  0.7291775665969098  0.5709140043857863  0.7739497201370942  1.0000
  H   H402      1.0  0.7244370210195444  0.5692458042532453  0.8109330156502632  1.0000
  H   H403      1.0  0.7294942596952806  0.6315705732915361  0.7667329610943064  1.0000
  H   H404      1.0  0.7547734921061475  0.6211857557688127  0.7500512654688999  1.0000
  H   H405      1.0  0.7699547298082636  0.6555679811974484  0.7701054948985138  1.0000
  H   H406      1.0  0.723831859934058  0.6287702924407886  0.8174211262651528  1.0000
  H   H407      1.0  0.7641595887623918  0.6527513109875778  0.8213645591599622  1.0000
  H   H408      1.0  0.7449679269827107  0.616304410117635  0.8381230936254591  1.0000
  N   N19       1.0  0.28966332298124187  0.3430252060066952  0.2261758641295491  1.0000
  C   C361      1.0  0.3034863426313519  0.33976672104993333  0.2519486007391216  1.0000
  C   C362      1.0  0.28945243322771386  0.3218520676060829  0.2049894767076203  1.0000
  C   C363      1.0  0.30762921762692697  0.37456763892959083  0.21585092021137484  1.0000
  C   C364      1.0  0.2581003968803037  0.33598764920932833  0.23179478143817628  1.0000
  H   H409      1.0  0.3055953264575311  0.3564797044564767  0.26799262280660036  1.0000
  H   H410      1.0  0.3267893433043486  0.34356874606148835  0.24802447013410175  1.0000
  H   H411      1.0  0.2898773158900864  0.3165779259909533  0.260946789061245  1.0000
  H   H412      1.0  0.2785424632123576  0.3231642263240722  0.18545352880832236  1.0000
  H   H413      1.0  0.31306670079668436  0.3272036915202544  0.19960960784302217  1.0000
  H   H414      1.0  0.2768623191136733  0.29787974370602216  0.21232420713123282  1.0000
  H   H415      1.0  0.3314723309192626  0.38061515086170233  0.21110455934145128  1.0000
  H   H416      1.0  0.3085664115512559  0.39130579427432005  0.23127838703365014  1.0000
  H   H417      1.0  0.29776459564959473  0.3778104352546569  0.19645885826297024  1.0000
  H   H418      1.0  0.24735643973454932  0.33885827489538484  0.21275984136634296  1.0000
  H   H419      1.0  0.25749459746980813  0.3513874242554075  0.24791427982030265  1.0000
  H   H420      1.0  0.24363515069876882  0.3121732665055976  0.23915490069632409  1.0000
  N   N20       1.0  0.267244497357455  0.9002926676113945  0.5560000785127077  1.0000
  C   C365      1.0  0.239638501683286  0.8698105069894486  0.5562697547751851  1.0000
  C   C366      1.0  0.2924366566041387  0.89861447866302  0.5421567206023679  1.0000
  C   C367      1.0  0.27596951451685864  0.9108555792675872  0.5847976856351819  1.0000
  C   C368      1.0  0.2611773919211629  0.9220359341150164  0.540936312566774  1.0000
  H   H421      1.0  0.22018291849465693  0.8702103645406961  0.5666678286261828  1.0000
  H   H422      1.0  0.24367275717511835  0.8531011018509269  0.5677820785363106  1.0000
  H   H423      1.0  0.23239844856311231  0.8609135603503606  0.5348995479183827  1.0000
  H   H424      1.0  0.313792147480695  0.9212115883477332  0.5420913175399472  1.0000
  H   H425      1.0  0.2974257681632884  0.8821614247580912  0.5528409492088366  1.0000
  H   H426      1.0  0.2869256586417135  0.8912459500037145  0.5201976030427851  1.0000
  H   H427      1.0  0.2962849254120342  0.9341172629645421  0.5853252428854568  1.0000
  H   H428      1.0  0.2815849973328402  0.8954689043677035  0.5965760179868964  1.0000
  H   H429      1.0  0.2573130476207262  0.9117816383245194  0.596182972608041  1.0000
  H   H430      1.0  0.28185607856068823  0.945196277221134  0.5404606285161516  1.0000
  H   H431      1.0  0.24255391631026801  0.9242193709319885  0.5509805994964995  1.0000
  H   H432      1.0  0.2545228235831211  0.9148761539987945  0.5190685811139133  1.0000
  N   N21       1.0  0.9775787896223757  0.5468300729410076  0.7891444075070372  1.0000
  C   C369      1.0  0.94594505568187  0.5275995778068867  0.7793443507230058  1.0000
  C   C370      1.0  0.9895830698328257  0.5272601103017782  0.7988701114457515  1.0000
  C   C371      1.0  0.9777875245709149  0.5659522836314246  0.8122830324751629  1.0000
  C   C372      1.0  0.996888496652924  0.5665634337669038  0.7663133141183658  1.0000
  H   H433      1.0  0.9447658624876061  0.5127573202785484  0.7618537281764343  1.0000
  H   H434      1.0  0.9361187539870428  0.5417048218964399  0.7721535963436255  1.0000
  H   H435      1.0  0.9308217204599623  0.5126044833324809  0.7962689353396329  1.0000
  H   H436      1.0  0.9753681319176771  0.512012440856997  0.8160342071244754  1.0000
  H   H437      1.0  0.9899228423060014  0.5125421603211753  0.7819229486772658  1.0000
  H   H438      1.0  0.013268320539289532  0.5410658459981016  0.8068175732520229  1.0000
  H   H439      1.0  0.9628950365847669  0.5517928432041215  0.8295506752177743  1.0000
  H   H440      1.0  0.9693874529502726  0.581429581921414  0.8056444126902514  1.0000
  H   H441      1.0  0.0011591740713096555  0.5805029285607808  0.8207075175390371  1.0000
  H   H442      1.0  0.020682603372731687  0.5820558059433847  0.7733568812812914  1.0000
  H   H443      1.0  0.9881178242304717  0.5812620080082515  0.758239975988559  1.0000
  H   H444      1.0  0.9978568915902041  0.5530018043477412  0.7486128309727094  1.0000
  N   N22       1.0  0.6042512284533593  0.05600769545641994  0.97184340792218  1.0000
  C   C373      1.0  0.6196779387409884  0.04830905816631344  0.9499241834722841  1.0000
  C   C374      1.0  0.6074610239535588  0.04386384376392284  0.9986785636161526  1.0000
  C   C375      1.0  0.5715988434349625  0.04247946967050367  0.9649977176579805  1.0000
  C   C376      1.0  0.6183872208281768  0.0894405936577423  0.9736148417866671  1.0000
  H   H445      1.0  0.6188612153741014  0.05829150499787818  0.9296884115766341  1.0000
  H   H446      1.0  0.6091001556782905  0.023270977293212487  0.9471034287435829  1.0000
  H   H447      1.0  0.6440944965268972  0.05715776503959326  0.9548990588023502  1.0000
  H   H448      1.0  0.5985884018786868  0.018898248582328435  0.9975802944367702  1.0000
  H   H449      1.0  0.6317800452520431  0.05469315778366953  0.004984004049056968  1.0000
  H   H450      1.0  0.5950107417134886  0.04803724873272142  0.01559056000580131  1.0000
  H   H451      1.0  0.5603692988449659  0.01731640026023642  0.9629458309545157  1.0000
  H   H452      1.0  0.5684527622984505  0.051508066976405864  0.9450164927750173  1.0000
  H   H453      1.0  0.5591441895474467  0.047624475101307726  0.9811978546567574  1.0000
  H   H454      1.0  0.6077488904838015  0.09624843824914783  0.9902593148216146  1.0000
  H   H455      1.0  0.6159531851590161  0.09923535800068796  0.9537530033944327  1.0000
  H   H456      1.0  0.6432553595323169  0.10045659397425373  0.9779184532020432  1.0000
  N   N23       1.0  0.4827792091092337  0.018289405893343103  0.4202145793003794  1.0000
  C   C377      1.0  0.4827097716108287  0.0472823582473055  0.4219584583457416  1.0000
  C   C378      1.0  0.4748249113039424  0.003256099523282569  0.4476296034120447  1.0000
  C   C379      1.0  0.5134150049992777  0.024420600039288403  0.41171574077565776  1.0000
  C   C380      1.0  0.4601330809540499  0.9983392949443092  0.39949294798757323  1.0000
  H   H457      1.0  0.48572565382985605  0.057850098773438004  0.4011685601791507  1.0000
  H   H458      1.0  0.501095752410163  0.06387844885932589  0.43571505965221574  1.0000
  H   H459      1.0  0.4608780523689092  0.04396730825613687  0.43043549027013667  1.0000
  H   H460      1.0  0.45170929625451617  0.9983258262666304  0.45443035509015905  1.0000
  H   H461      1.0  0.47467856889168875  0.9812922532197543  0.4472070900449587  1.0000
  H   H462      1.0  0.4912639229050173  0.01792328637634607  0.4637767342380999  1.0000
  H   H463      1.0  0.514486096171054  0.0031228193838858725  0.4102963981332466  1.0000
  H   H464      1.0  0.5312612113282731  0.03983210748234047  0.42660154277170836  1.0000
  H   H465      1.0  0.5198598987878428  0.035669846621589764  0.3910369730182244  1.0000
  H   H466      1.0  0.4368027341850765  0.9936246273786546  0.40504067343150063  1.0000
  H   H467      1.0  0.4592789840766966  0.9760979622417829  0.39778472800220244  1.0000
  H   H468      1.0  0.46553345570591514  0.009045904128203943  0.3785390403686558  1.0000
  N   N24       1.0  0.6426394378526203  0.9523804467613947  0.40304924889347643  1.0000
  C   C381      1.0  0.6186513258032089  0.948763935386071  0.3834999294192387  1.0000
  C   C382      1.0  0.6337672606273602  0.955455545644788  0.43160113806334877  1.0000
  C   C383      1.0  0.671606285467212  0.9799141643755208  0.39563761460475916  1.0000
  C   C384      1.0  0.6466635930896648  0.9255494962087538  0.40142363077032783  1.0000
  H   H469      1.0  0.62490716936595  0.9470549171172699  0.3616576459491513  1.0000
  H   H470      1.0  0.6151161105746343  0.9687093007206965  0.38426694096918285  1.0000
  H   H471      1.0  0.5964365294044738  0.9281286381390151  0.38821778914112576  1.0000
  H   H472      1.0  0.6307363239018748  0.9756500103526126  0.43358479883475093  1.0000
  H   H473      1.0  0.6120621973772573  0.9351184454998575  0.43808158468686  1.0000
  H   H474      1.0  0.6516179305703191  0.9587076459789932  0.4468588500621106  1.0000
  H   H475      1.0  0.6903533317338836  0.983636153217287  0.4099688422197442  1.0000
  H   H476      1.0  0.6692988405882481  0.00045255426406977183  0.39704002153297774  1.0000
  H   H477      1.0  0.6788469860966707  0.9788592514300999  0.37403232753638205  1.0000
  H   H478      1.0  0.6534599220454169  0.9226985560837162  0.3801380467130503  1.0000
  H   H479      1.0  0.6252490302077693  0.9043196940895968  0.40693173087536094  1.0000
  H   H480      1.0  0.6647200838951125  0.9277560924803258  0.4159258388248028  1.0000
  N   N25       1.0  0.93440278317861  0.5045810974297718  0.95571427863955  1.0000
  C   C385      1.0  0.923203830823127  0.5224370528326445  0.9708147854895814  1.0000
  C   C386      1.0  0.938235256367424  0.4843643888809251  0.9752516895574033  1.0000
  C   C387      1.0  0.9640847760414526  0.5254879001993673  0.942630321057719  1.0000
  C   C388      1.0  0.9121609086121568  0.4860837781292292  0.9341247724573715  1.0000
  H   H481      1.0  0.9009431489687134  0.5075352380798825  0.9811327089714  1.0000
  H   H482      1.0  0.9201416307461934  0.5379232368094592  0.9565294984585102  1.0000
  H   H483      1.0  0.9397012054828414  0.5371437110373802  0.9869574777948812  1.0000
  H   H484      1.0  0.9549817295457455  0.49768473600177016  0.9917371503613761  1.0000
  H   H485      1.0  0.916300679103153  0.46823605506321375  0.9855305473883813  1.0000
  H   H486      1.0  0.946676379171014  0.4705988883543195  0.9643531902500295  1.0000
  H   H487      1.0  0.9737540392579797  0.512890602245868  0.9317691377687407  1.0000
  H   H488      1.0  0.9811214254387486  0.5406531598817327  0.9581984051407006  1.0000
  H   H489      1.0  0.9619175990008993  0.5405706584884309  0.9272132233250583  1.0000
  H   H490      1.0  0.9093263396855766  0.500698716926727  0.918573212805668  1.0000
  H   H491      1.0  0.8893009605960891  0.4705273217725654  0.9431304484138667  1.0000
  H   H492      1.0  0.9195328401709428  0.4717736551775699  0.9227142696651165  1.0000
  N   N26       1.0  0.5585334093136338  0.9823137322579473  0.21317542369244993  1.0000
  C   C389      1.0  0.5425252227675489  0.9873939850702431  0.2364348449430135  1.0000
  C   C390      1.0  0.5573624030740972  0.9528842835138442  0.21705433504076402  1.0000
  C   C391      1.0  0.5906928260736912  0.007071568066910727  0.21247435728255762  1.0000
  C   C392      1.0  0.5434824705602797  0.981830658394375  0.18682486291681172  1.0000
  H   H493      1.0  0.5182223799316378  0.9689925552743152  0.23757971643363998  1.0000
  H   H494      1.0  0.5428544380089564  0.009363453189059146  0.23411462465513025  1.0000
  H   H495      1.0  0.5533421965323209  0.9879715458412455  0.25665932047952394  1.0000
  H   H496      1.0  0.567384871934289  0.9519500748719643  0.2372212078718432  1.0000
  H   H497      1.0  0.5335118350799359  0.9334916139059416  0.21638993021756292  1.0000
  H   H498      1.0  0.5702018184596346  0.9488249651197609  0.20039756919838045  1.0000
  H   H499      1.0  0.6025057912661723  0.00846745712309245  0.23229924790073905  1.0000
  H   H500      1.0  0.5926028915973582  0.029579566544328643  0.20886119702410977  1.0000
  H   H501      1.0  0.603761669610983  0.003484731716375582  0.19570848376353633  1.0000
  H   H502      1.0  0.5439797939506821  0.003668399868976115  0.18305120165154348  1.0000
  H   H503      1.0  0.5192039289073194  0.9632927610009606  0.18663942443539144  1.0000
  H   H504      1.0  0.5546482381047652  0.9776112049058041  0.16883749452264227  1.0000
  N   N27       1.0  0.5840764312169451  0.05827882468926915  0.8020164172575279  1.0000
  C   C393      1.0  0.5568196493049021  0.046144725641307005  0.7841767988393608  1.0000
  C   C394      1.0  0.5813801124481413  0.033921107483181556  0.82057272713569  1.0000
  C   C395      1.0  0.586443819843324  0.08374931938021479  0.8187964410474216  1.0000
  C   C396      1.0  0.6116903130416842  0.06923710890895474  0.7845966921601956  1.0000
  H   H505      1.0  0.5580084487896535  0.0638701170709417  0.7698606178187232  1.0000
  H   H506      1.0  0.5356074618049383  0.037683224615288946  0.7967961453806479  1.0000
  H   H507      1.0  0.5543449977304372  0.026794293002646352  0.7713376416373232  1.0000
  H   H508      1.0  0.6014838126107869  0.042382510217243485  0.8344258257108735  1.0000
  H   H509      1.0  0.560650587164437  0.024800659798070113  0.8338625504227185  1.0000
  H   H510      1.0  0.5802673569165635  0.014596601074394089  0.8086294188181522  1.0000
  H   H511      1.0  0.6065199292478497  0.09307980054154275  0.8328829702552504  1.0000
  H   H512      1.0  0.5658047230923229  0.07641105830059436  0.8319513757459033  1.0000
  H   H513      1.0  0.5889731656453938  0.10276752600356764  0.8055242432639189  1.0000
  H   H514      1.0  0.6326249751690467  0.07836336662372556  0.7975555024906429  1.0000
  H   H515      1.0  0.6145683242153471  0.08759624106875807  0.7702357548590003  1.0000
  H   H516      1.0  0.6109061849403621  0.050503949042113305  0.7719097071224743  1.0000
  N   N28       1.0  0.0827926213656689  0.5958762075683558  0.5427011913694934  1.0000
  C   C397      1.0  0.07827032648443466  0.5728571077145447  0.5216344765440931  1.0000
  C   C398      1.0  0.08694541248336396  0.6236313900379911  0.5287953528770484  1.0000
  C   C399      1.0  0.11009189851517864  0.603395642896188  0.5593665584764963  1.0000
  C   C400      1.0  0.05578407387837814  0.5835945932766732  0.5610584566341248  1.0000
  H   H517      1.0  0.07519517079882876  0.5516805956061326  0.5315039224913874  1.0000
  H   H518      1.0  0.09818286727908743  0.5814102483539882  0.507341663082231  1.0000
  H   H519      1.0  0.057708470719718186  0.5666287583317923  0.5088396632250836  1.0000
  H   H520      1.0  0.09012122807049594  0.6413515490370737  0.5441599734225809  1.0000
  H   H521      1.0  0.10715818763709817  0.6336868233924604  0.5148320952830681  1.0000
  H   H522      1.0  0.06662697450175004  0.6188400373843711  0.5162123394006017  1.0000
  H   H523      1.0  0.11392920914550464  0.6204953717656095  0.5756696966003244  1.0000
  H   H524      1.0  0.13105117135319055  0.6130067307513895  0.5463718949752827  1.0000
  H   H525      1.0  0.10780383095151302  0.5829858864531476  0.5701766081103088  1.0000
  H   H526      1.0  0.05882165410061124  0.6001160528843706  0.577621400202452  1.0000
  H   H527      1.0  0.051448157123050064  0.5622496102573852  0.5714388770268483  1.0000
  H   H528      1.0  0.034890312550843516  0.5788281120981557  0.5494465065542512  1.0000
  N   N29       1.0  0.07345681704968997  0.4974049123277268  0.05791282511414823  1.0000
  C   C401      1.0  0.06760762896253793  0.49132270593411087  0.02793765819091997  1.0000
  C   C402      1.0  0.044580934048172156  0.47975219564887195  0.0734372845857971  1.0000
  C   C403      1.0  0.08612679004557537  0.5302016269962349  0.06337936426077279  1.0000
  C   C404      1.0  0.09551738044352023  0.48822156484883755  0.06693545110603787  1.0000
  H   H529      1.0  0.05115536352975713  0.49808314904984563  0.020332034866547225  1.0000
  H   H530      1.0  0.05789337054052433  0.4666397355280861  0.023316355774906865  1.0000
  H   H531      1.0  0.08896973073199334  0.5039679326180113  0.015602543107073265  1.0000
  H   H532      1.0  0.04820813981850409  0.4833146233459472  0.09613095018181969  1.0000
  H   H533      1.0  0.0275331287301969  0.4863859848133749  0.06748275011099446  1.0000
  H   H534      1.0  0.03429471910004965  0.4549121596144601  0.0697023578176047  1.0000
  H   H535      1.0  0.06979948452340436  0.5379105090492566  0.05771158202665456  1.0000
  H   H536      1.0  0.10765807129897165  0.5443230359818758  0.051655921825917765  1.0000
  H   H537      1.0  0.09150644163432833  0.5354995524129867  0.0857267020539727  1.0000
  H   H538      1.0  0.09957567928862772  0.49130565140456084  0.08962496066689014  1.0000
  H   H539      1.0  0.11797185380514416  0.5017842390249997  0.05646122055848205  1.0000
  H   H540      1.0  0.08713891840082358  0.46386124477670637  0.06233008940982671  1.0000
  N   N30       1.0  0.5099656444047156  0.3149743686447602  0.41063799342725965  1.0000
  C   C405      1.0  0.5371834674495564  0.32904020089974484  0.4285794042169635  1.0000
  C   C406      1.0  0.5130888023519249  0.29532581601482977  0.38978323377225915  1.0000
  C   C407      1.0  0.5070360201478422  0.33913181752984123  0.3963894475435541  1.0000
  C   C408      1.0  0.482528107688552  0.2964365239310362  0.42778932157791355  1.0000
  H   H541      1.0  0.5583089393414773  0.3431660381762837  0.4162791624729185  1.0000
  H   H542      1.0  0.5400294642582438  0.31149353390229445  0.4398123822834443  1.0000
  H   H543      1.0  0.5355308424480022  0.3442114277074404  0.444358307294937  1.0000
  H   H544      1.0  0.4929880622395821  0.2846554788975784  0.37576391382868723  1.0000
  H   H545      1.0  0.5335916205294249  0.3084712137152948  0.376493908669839  1.0000
  H   H546      1.0  0.5148328494414915  0.27649033595587685  0.39972110559622653  1.0000
  H   H547      1.0  0.4869000943039862  0.32925905961069  0.38244992017510815  1.0000
  H   H548      1.0  0.5274256291479495  0.35375700227600726  0.3834316188028955  1.0000
  H   H549      1.0  0.5042585784114032  0.35424637000637677  0.4114440233124826  1.0000
  H   H550      1.0  0.48355942760729154  0.277501592439709  0.43834079225065387  1.0000
  H   H551      1.0  0.46149877811715984  0.2859722597538893  0.41495815380574996  1.0000
  H   H552      1.0  0.4796008969398354  0.3104073125653028  0.44399300102339173  1.0000
  N   N31       1.0  0.393699240826113  0.13036463823601524  0.8051999435045326  1.0000
  C   C409      1.0  0.3661075263079622  0.10933429762383758  0.8211423888568644  1.0000
  C   C410      1.0  0.4204587802291824  0.13020798255707755  0.8170482647579598  1.0000
  C   C411      1.0  0.3983290797829234  0.1614855976432637  0.8066494755123282  1.0000
  C   C412      1.0  0.38992790171317876  0.1203033960933921  0.7759805492927367  1.0000
  H   H553      1.0  0.34538665401120566  0.10863321839008079  0.8126596505279863  1.0000
  H   H554      1.0  0.36811407173361305  0.1161707159848798  0.843277386327752  1.0000
  H   H555      1.0  0.3621099827004447  0.08566769088681174  0.82061898259918  1.0000
  H   H556      1.0  0.4418528209483823  0.1462321510065988  0.8059626579874372  1.0000
  H   H557      1.0  0.4236143861911522  0.13687680004924313  0.8392901656083879  1.0000
  H   H558      1.0  0.4179452456402754  0.10720375763955865  0.8156404606775727  1.0000
  H   H559      1.0  0.4188209244304791  0.1778959651781368  0.7946430056904678  1.0000
  H   H560      1.0  0.4017658271037917  0.16991615980254166  0.8284011830518219  1.0000
  H   H561      1.0  0.3783716026428642  0.16243388996709013  0.7983187536096191  1.0000
  H   H562      1.0  0.3699470349724114  0.12011512169207146  0.7662995644277303  1.0000
  H   H563      1.0  0.3862492285088374  0.09678339514930862  0.7742941558572889  1.0000
  H   H564      1.0  0.41046559024043544  0.135366799266858  0.7633693873673458  1.0000
  N   N32       1.0  0.16013845092016496  0.41098373245501996  0.7041153612539167  1.0000
  C   C413      1.0  0.19235909249979194  0.4193894256904024  0.7000716891622303  1.0000
  C   C414      1.0  0.1572328759029447  0.43839362527027564  0.7012534507625724  1.0000
  C   C415      1.0  0.14965841435332133  0.39774491259315176  0.7320207331078189  1.0000
  C   C416      1.0  0.1411645339519558  0.3883925913736884  0.68298441120882  1.0000
  H   H565      1.0  0.19539177930995433  0.3991795060198655  0.7014023225050825  1.0000
  H   H566      1.0  0.20736353440852623  0.43615267173690425  0.7158414188157445  1.0000
  H   H567      1.0  0.20086493925148227  0.42985442131978785  0.6792981944646078  1.0000
  H   H568      1.0  0.17136430881206885  0.4560640510222599  0.7167377374569694  1.0000
  H   H569      1.0  0.1645712708470112  0.44875224025743027  0.6802520248728274  1.0000
  H   H570      1.0  0.13319075575126607  0.43286432494944715  0.7043263042649004  1.0000
  H   H571      1.0  0.12534621177341476  0.3912752515796498  0.7355137094406398  1.0000
  H   H572      1.0  0.1633479582019806  0.41415846008542156  0.7485642201022  1.0000
  H   H573      1.0  0.15128127718368198  0.3768594216187772  0.7348197794307086  1.0000
  H   H574      1.0  0.11656180354303204  0.3804739920269798  0.6861851216540943  1.0000
  H   H575      1.0  0.14391753188867565  0.3680065572822066  0.6834789371128228  1.0000
  H   H576      1.0  0.1472206004133436  0.398215696027948  0.6617935881547354  1.0000
  N   N33       1.0  0.08618449083689472  0.3261066745163362  0.19241922011036772  1.0000
  C   C417      1.0  0.07939422248814676  0.29548270013956796  0.20119428401553463  1.0000
  C   C418      1.0  0.1157174354028383  0.3415053785377902  0.17755082739240952  1.0000
  C   C419      1.0  0.08766246866527583  0.3441907630840136  0.21701310604574509  1.0000
  C   C420      1.0  0.061846835653706744  0.32332532604414527  0.17382166722172568  1.0000
  H   H577      1.0  0.05722841156234515  0.28334778540745087  0.21248829589592796  1.0000
  H   H578      1.0  0.09735883334576134  0.2966993874070406  0.2152074741120283  1.0000
  H   H579      1.0  0.0779372587618472  0.2812920449606466  0.18299973834865718  1.0000
  H   H580      1.0  0.12149914962381003  0.36469158043797145  0.1706157836367098  1.0000
  H   H581      1.0  0.13477333831565064  0.34405758940207326  0.1907798166009601  1.0000
  H   H582      1.0  0.11533501785272349  0.32882194350717836  0.15853934204370188  1.0000
  H   H583      1.0  0.09325722124258484  0.36758741585600113  0.21097845338474971  1.0000
  H   H584      1.0  0.10537725058626113  0.3463949456075233  0.23187317328258736  1.0000
  H   H585      1.0  0.06541002698771115  0.33372967953589855  0.22824287603633078  1.0000
  H   H586      1.0  0.06593130030039096  0.3460715597389428  0.16756811850299183  1.0000
  H   H587      1.0  0.03906420292117474  0.311547485146042  0.18411025298225728  1.0000
  H   H588      1.0  0.06051579348029312  0.31071058305691235  0.1545016007219987  1.0000
  N   N34       1.0  0.28541110840390255  0.8805510329816553  0.21498595866521497  1.0000
  C   C421      1.0  0.2757079049835489  0.8524642642840355  0.19874725967183388  1.0000
  C   C422      1.0  0.3161533722784461  0.8913092293793602  0.22648829255311853  1.0000
  C   C423      1.0  0.26355752073711464  0.8742662968248993  0.23785002820244888  1.0000
  C   C424      1.0  0.2861861694717463  0.9042748473167861  0.19677086961356935  1.0000
  H   H589      1.0  0.2525971541286371  0.8438030283743118  0.18971959714239475  1.0000
  H   H590      1.0  0.2750525319199018  0.8339901244764638  0.21159951352845752  1.0000
  H   H591      1.0  0.29137606329690247  0.8565114530021308  0.18095782803571694  1.0000
  H   H592      1.0  0.3245091532140648  0.9129052071765019  0.23830540655593963  1.0000
  H   H593      1.0  0.316537420671238  0.8741788552650878  0.24054287681296854  1.0000
  H   H594      1.0  0.3332000084683933  0.8961612817549945  0.20978023922548428  1.0000
  H   H595      1.0  0.24019052811211258  0.8662361828848926  0.2297437522329099  1.0000
  H   H596      1.0  0.2702440639940241  0.8950534120369483  0.25043973001275577  1.0000
  H   H597      1.0  0.26229888719864136  0.856354909629652  0.2519620395177323  1.0000
  H   H598      1.0  0.2940167762391395  0.9260939689654534  0.2080007640003799  1.0000
  H   H599      1.0  0.26342607040982474  0.8970400879335143  0.18757020928440635  1.0000
  H   H600      1.0  0.30205738069972105  0.9090291442602335  0.17915561284515175  1.0000
  N   N35       1.0  0.05543254739648455  0.67421502641715  0.34850293013014677  1.0000
  C   C425      1.0  0.07678092613433668  0.700742980781617  0.3652436498752363  1.0000
  C   C426      1.0  0.02523515157527811  0.6719879254713721  0.34858797994669716  1.0000
  C   C427      1.0  0.05270915504477095  0.6462581836965903  0.36064762726763905  1.0000
  C   C428      1.0  0.0668095520094555  0.6777417567788773  0.319683398191535  1.0000
  H   H601      1.0  0.0997857088988136  0.7030426726773248  0.3659055925838006  1.0000
  H   H602      1.0  0.06848714013050726  0.698595650197717  0.3870641805931558  1.0000
  H   H603      1.0  0.07933893942552997  0.7222329089545069  0.3566603210130235  1.0000
  H   H604      1.0  0.02621592058397642  0.692527999336191  0.33938840433604983  1.0000
  H   H605      1.0  0.008465046636770163  0.6520664634378396  0.3363517391001367  1.0000
  H   H606      1.0  0.01606175179714478  0.6693649776614511  0.37007980068698204  1.0000
  H   H607      1.0  0.044091760676680136  0.6428804278146746  0.3824126521542899  1.0000
  H   H608      1.0  0.07500577029162803  0.6469939683461859  0.36086341501057784  1.0000
  H   H609      1.0  0.036570331313888926  0.625751563079542  0.3485551803266578  1.0000
  H   H610      1.0  0.08987902407790199  0.6802071854761226  0.3188200586997586  1.0000
  H   H611      1.0  0.06804641797083992  0.6979347490361881  0.30939206120765195  1.0000
  H   H612      1.0  0.05153981800621276  0.6575487401438593  0.30687066035125  1.0000
  N   N36       1.0  0.5813671589164418  0.7239350497897338  0.048942494783736745  1.0000
  C   C429      1.0  0.6119246778722836  0.7324716200089348  0.05958318362217553  1.0000
  C   C430      1.0  0.5842234268945423  0.7462825979150836  0.02783062425815405  1.0000
  C   C431      1.0  0.5619700796681395  0.7237064896266174  0.07204969034910942  1.0000
  C   C432      1.0  0.5674686094408166  0.6933622502689549  0.036268479188510554  1.0000
  H   H613      1.0  0.6233925602937879  0.755604884063101  0.06884703363238365  1.0000
  H   H614      1.0  0.6269517975546355  0.7319985082551724  0.042885618780133375  1.0000
  H   H615      1.0  0.6105053055530244  0.7163121853630237  0.07582025827964142  1.0000
  H   H616      1.0  0.5988740257712363  0.7471090401197639  0.010186514758121823  1.0000
  H   H617      1.0  0.5615795436275522  0.7404763137071285  0.0192610583422044  1.0000
  H   H618      1.0  0.5945673114096577  0.7695864856641278  0.036757922489613896  1.0000
  H   H619      1.0  0.5386810257099128  0.7173104714330021  0.0648817656183348  1.0000
  H   H620      1.0  0.5718800654951537  0.7463878484183226  0.08220798506920118  1.0000
  H   H621      1.0  0.5594123673074194  0.7072069412570646  0.08847459240136461  1.0000
  H   H622      1.0  0.5444051279164874  0.6860687473876375  0.027894834191116963  1.0000
  H   H623      1.0  0.5650904282725268  0.6759186637716815  0.05156307582240527  1.0000
  H   H624      1.0  0.5818280012644873  0.6926166055344385  0.019056099568811817  1.0000
  N   N37       1.0  0.9462223600875456  0.2536234631282801  0.4531178529562588  1.0000
  C   C433      1.0  0.9395211431441923  0.23083594872828678  0.47508829659627966  1.0000
  C   C434      1.0  0.92592963558874  0.2665249342274974  0.45652568580984926  1.0000
  C   C435      1.0  0.9409670562858538  0.238813053834616  0.4256937592073199  1.0000
  C   C436      1.0  0.9783660643806249  0.2782123648780397  0.4551972043619678  1.0000
  H   H625      1.0  0.9154178610476917  0.21198460539136263  0.4740310454647352  1.0000
  H   H626      1.0  0.943151257720996  0.2411871200163002  0.49610139525611097  1.0000
  H   H627      1.0  0.9544411568567507  0.22064231673963242  0.47317650674147216  1.0000
  H   H628      1.0  0.9307648431486286  0.2842887662158961  0.4406179831356728  1.0000
  H   H629      1.0  0.9015180231869775  0.24877093363724326  0.454080262820683  1.0000
  H   H630      1.0  0.9285310839361862  0.2770643201428659  0.4772789815588126  1.0000
  H   H631      1.0  0.9557051562189267  0.22863907049374796  0.4223324330775027  1.0000
  H   H632      1.0  0.9456923509007086  0.2552730042658323  0.40859241609375613  1.0000
  H   H633      1.0  0.9167879685915282  0.22044842142616747  0.4232437015543798  1.0000
  H   H634      1.0  0.9837918498656192  0.29672288144174297  0.4399379765066568  1.0000
  H   H635      1.0  0.9943854132323046  0.2696284652214771  0.4512811474883952  1.0000
  H   H636      1.0  0.9835552630022057  0.28879179381995423  0.4761401822237717  1.0000
  N   N38       1.0  0.5414161210886463  0.993168276856381  0.5903683168163593  1.0000
  C   C437      1.0  0.5322178251406298  0.9739688644845115  0.5652313912009124  1.0000
  C   C438      1.0  0.5480729145564311  0.9776567325882093  0.6128465564556265  1.0000
  C   C439      1.0  0.5163767347341212  0.9983447798141755  0.5991477806927009  1.0000
  C   C440      1.0  0.5690808556246149  0.022571332501997117  0.5842498412506791  1.0000
  H   H637      1.0  0.5112952084923171  0.9517279586618121  0.5690479344489425  1.0000
  H   H638      1.0  0.5504118928263836  0.9691447955897422  0.5583478755040884  1.0000
  H   H639      1.0  0.5273944355229983  0.9851069472572203  0.5477099036038332  1.0000
  H   H640      1.0  0.5273938841534571  0.956285898665623  0.6191556016067143  1.0000
  H   H641      1.0  0.5653981200743622  0.9715905360112886  0.6061952390881608  1.0000
  H   H642      1.0  0.5568924798462161  0.9920930001287266  0.6316882571503497  1.0000
  H   H643      1.0  0.5223062939465417  0.012273560992907733  0.6183721502132165  1.0000
  H   H644      1.0  0.495087077754409  0.9764483838762278  0.6035827766903339  1.0000
  H   H645      1.0  0.510821825026494  0.010208223354059241  0.5827910260815237  1.0000
  H   H646      1.0  0.5767460159455915  0.037651765107663875  0.6027576388424314  1.0000
  H   H647      1.0  0.5651190661282584  0.03485740675485343  0.5671663898259924  1.0000
  H   H648      1.0  0.5883746246339436  0.019226176374499485  0.5778099310907765  1.0000
  N   N39       1.0  0.28390127596756953  0.3904893810133352  0.5445587655762628  1.0000
  C   C441      1.0  0.2642067489271093  0.37873522764133954  0.5198594999212652  1.0000
  C   C442      1.0  0.2775448669172338  0.41230872702706545  0.5592680907412116  1.0000
  C   C443      1.0  0.31626641873876055  0.40584741146880704  0.5358698888862556  1.0000
  C   C444      1.0  0.27748581522109805  0.36493455667970565  0.5632676242548903  1.0000
  H   H649      1.0  0.2684589068286854  0.3974352075547129  0.5052724720249182  1.0000
  H   H650      1.0  0.23963246684320247  0.3669889805881273  0.5257373605523258  1.0000
  H   H651      1.0  0.26835570863901137  0.3621183962796501  0.5083272655984724  1.0000
  H   H652      1.0  0.2917413786753042  0.4213879757762692  0.5782145866693287  1.0000
  H   H653      1.0  0.28216095549603437  0.4320238030097498  0.5459400777046769  1.0000
  H   H654      1.0  0.25334877323979593  0.4013490506715769  0.5663049642033023  1.0000
  H   H655      1.0  0.33184294957472393  0.4142159376862868  0.5540111970312734  1.0000
  H   H656      1.0  0.32224302710017516  0.42576838152995744  0.5223028574704921  1.0000
  H   H657      1.0  0.3217004023057948  0.39019000841170043  0.5242263934884395  1.0000
  H   H658      1.0  0.2918864203059968  0.3731130854051028  0.5821218759613128  1.0000
  H   H659      1.0  0.28201088391261325  0.3479439879002932  0.5530048262777006  1.0000
  H   H660      1.0  0.25337492707987647  0.35304767942824977  0.5706230066399016  1.0000
  N   N40       1.0  0.08680863767086501  0.7487450037218203  0.708585432971534  1.0000
  C   C445      1.0  0.10947857923048954  0.7812897107126019  0.7122357740974697  1.0000
  C   C446      1.0  0.0637827247969351  0.7384617163768215  0.7310279647786043  1.0000
  C   C447      1.0  0.10244414277663207  0.7308267714266169  0.709424810098692  1.0000
  C   C448      1.0  0.07160612627534511  0.7442722736042611  0.6814984456738403  1.0000
  H   H661      1.0  0.1215499482079295  0.7854342584745969  0.7323945084319359  1.0000
  H   H662      1.0  0.09855357876975833  0.7955950953853056  0.7116669492280046  1.0000
  H   H663      1.0  0.12707646012555038  0.7894951801697314  0.695465833445355  1.0000
  H   H664      1.0  0.07428862791176212  0.7407712353701503  0.7517707618754249  1.0000
  H   H665      1.0  0.05169095208484941  0.7516716697795859  0.7312569171038389  1.0000
  H   H666      1.0  0.046176475374191533  0.7140396585637051  0.7284644760001913  1.0000
  H   H667      1.0  0.12025001146217378  0.7382697561695905  0.6929308760596311  1.0000
  H   H668      1.0  0.08602520677936175  0.7062307600378056  0.7062268285946406  1.0000
  H   H669      1.0  0.11376285646385052  0.7331090784762964  0.7297121460712158  1.0000
  H   H670      1.0  0.054141118972644044  0.7199384057175583  0.6782103882464366  1.0000
  H   H671      1.0  0.08828385217547732  0.7512687486943387  0.6640435679527117  1.0000
  H   H672      1.0  0.05980778884563935  0.7576887013431399  0.6798973508969743  1.0000
  N   N41       1.0  0.40427332718803216  0.1199441402318338  0.9696071329837664  1.0000
  C   C449      1.0  0.38721995724519004  0.10435104174183182  0.9950326747580738  1.0000
  C   C450      1.0  0.38901730502656945  0.10061643167385673  0.9453153528070515  1.0000
  C   C451      1.0  0.4357533884533854  0.12542747461838907  0.9713825130096925  1.0000
  C   C452      1.0  0.4051438492812437  0.14933291682541555  0.9664966152982027  1.0000
  H   H673      1.0  0.3982572385708791  0.11801670737036699  0.01391410257034309  1.0000
  H   H674      1.0  0.38578350853259824  0.08185908157835127  0.9976576339912371  1.0000
  H   H675      1.0  0.36340454563361557  0.10000029397525104  0.9944010632195813  1.0000
  H   H676      1.0  0.3881362451011961  0.07831800696871884  0.946826252533938  1.0000
  H   H677      1.0  0.36511585334721003  0.09573189321293121  0.9432894396729834  1.0000
  H   H678      1.0  0.40128759134091424  0.1118126087193138  0.9258362835438816  1.0000
  H   H679      1.0  0.43597420374677265  0.10375306047332962  0.9737975018708059  1.0000
  H   H680      1.0  0.44813110290082936  0.1401994382454068  0.9893239199194175  1.0000
  H   H681      1.0  0.44910079934237834  0.1368189774963843  0.9522923007430053  1.0000
  H   H682      1.0  0.4183510141653221  0.1617957099352244  0.9476883242583889  1.0000
  H   H683      1.0  0.41611476277432563  0.16441668792819875  0.9846368150728585  1.0000
  H   H684      1.0  0.38183138759597224  0.1460898797779196  0.9643503520172926  1.0000
  N   N42       1.0  0.5679346408662  0.5674362968434236  0.8039398409993295  1.0000
  C   C453      1.0  0.5769094904307694  0.570368382684485  0.7744167086785242  1.0000
  C   C454      1.0  0.5496240484558369  0.5348816093467632  0.8113654131386372  1.0000
  C   C455      1.0  0.5496923165085893  0.5823975640105137  0.8086203806801691  1.0000
  C   C456      1.0  0.5955257699069073  0.5821498829686966  0.8214060080492257  1.0000
  H   H685      1.0  0.5907745062197626  0.5946736603532414  0.7681038856178775  1.0000
  H   H686      1.0  0.5567074981071066  0.5595741844913281  0.7605548046880877  1.0000
  H   H687      1.0  0.5907637331015316  0.5593663824538693  0.7701466489353488  1.0000
  H   H688      1.0  0.5630997729014081  0.5231263710591261  0.8090221387204838  1.0000
  H   H689      1.0  0.5419629008759567  0.5318653947266645  0.8333949136708809  1.0000
  H   H690      1.0  0.5289840392044343  0.5227609773799056  0.7981792388953931  1.0000
  H   H691      1.0  0.5629277218747714  0.6069999236577218  0.803156136829237  1.0000
  H   H692      1.0  0.5426838055377988  0.5807232562132802  0.8307576973857285  1.0000
  H   H693      1.0  0.5286343925262083  0.5718233337685431  0.7958185010556803  1.0000
  H   H694      1.0  0.5895392618327697  0.5802251532566199  0.843836264440188  1.0000
  H   H695      1.0  0.6100030759450165  0.6067754598485057  0.8164671408814197  1.0000
  H   H696      1.0  0.6097891803669794  0.5713485034848693  0.8185462858714593  1.0000
  N   N43       1.0  0.36504314826921186  0.8249337801620893  0.6280762173532579  1.0000
  C   C457      1.0  0.39300580301182675  0.8430659380807062  0.6445149488929153  1.0000
  C   C458      1.0  0.3629502510736014  0.7958902704166081  0.6199594247595387  1.0000
  C   C459      1.0  0.36617559822602674  0.8420288257932406  0.6028760659539667  1.0000
  C   C460      1.0  0.3380475749538199  0.8186808460695943  0.6449042378877293  1.0000
  H   H697      1.0  0.39538752261576016  0.8652001016691192  0.650921491692061  1.0000
  H   H698      1.0  0.41385609065051915  0.8482643868624199  0.6324437670096047  1.0000
  H   H699      1.0  0.39299975670748843  0.8309882358479158  0.663746074087864  1.0000
  H   H700      1.0  0.38299720963349587  0.7998300008854494  0.6072300288418335  1.0000
  H   H701      1.0  0.3620878961726598  0.7824119857502183  0.6384801431373315  1.0000
  H   H702      1.0  0.3420728686879974  0.781641330433359  0.6075344989049545  1.0000
  H   H703      1.0  0.3678754084826573  0.8641027913473437  0.6081621946588027  1.0000
  H   H704      1.0  0.34528076369969585  0.8292240764998714  0.5901054807819098  1.0000
  H   H705      1.0  0.3863915146790193  0.8473984482180918  0.589738599702895  1.0000
  H   H706      1.0  0.31650771995158267  0.805300197522161  0.6330623312287604  1.0000
  H   H707      1.0  0.3387936303154477  0.840080298142397  0.6513825606073905  1.0000
  H   H708      1.0  0.3363674381786133  0.8057907351090166  0.6640891845999796  1.0000
  N   N44       1.0  0.8348137559149074  0.480946878738941  0.3951878336264198  1.0000
  C   C461      1.0  0.8243270286420178  0.49250455488844574  0.37209018183151304  1.0000
  C   C462      1.0  0.8536372680298807  0.46859533494391387  0.38407547356361366  1.0000
  C   C463      1.0  0.8082123488988111  0.4567486527185899  0.41009152911903135  1.0000
  C   C464      1.0  0.8532209544410115  0.5060621664788018  0.4145404820711153  1.0000
  H   H709      1.0  0.8102253396188288  0.47424098431455275  0.35706639973803933  1.0000
  H   H710      1.0  0.8439476716608681  0.5108317112356041  0.36042348529205454  1.0000
  H   H711      1.0  0.810596840516608  0.5026382560431392  0.3797627323632045  1.0000
  H   H712      1.0  0.840716905909687  0.44962444605865726  0.36929675633467535  1.0000
  H   H713      1.0  0.8740042460094262  0.4864464611437744  0.3729077377025863  1.0000
  H   H714      1.0  0.862269029060603  0.45996905699137147  0.4009561422006343  1.0000
  H   H715      1.0  0.8155098817368315  0.4477232082404776  0.4276920807068205  1.0000
  H   H716      1.0  0.7938622074963306  0.43736620346523764  0.39611952164783165  1.0000
  H   H717      1.0  0.7936062806110332  0.46544762664070827  0.4187171796461806  1.0000
  H   H718      1.0  0.8622495923628878  0.4985220149042776  0.4319550846859211  1.0000
  H   H719      1.0  0.8399657728015022  0.5162218746052588  0.4233050987759523  1.0000
  H   H720      1.0  0.8732012402126438  0.524693819359415  0.4037967174553775  1.0000
  N   N45       1.0  0.41734030905432645  0.35663608366947047  0.6216818625729053  1.0000
  C   C465      1.0  0.43036745097371343  0.36915266358030546  0.6492134052786432  1.0000
  C   C466      1.0  0.4309943447214527  0.3810466964461002  0.6006161103883982  1.0000
  C   C467      1.0  0.38403642463696314  0.34413591925738746  0.6225546868645242  1.0000
  C   C468      1.0  0.4237902854267983  0.3321530443414371  0.6143612624271542  1.0000
  H   H721      1.0  0.45545248712344616  0.37864640159722107  0.6495665061230085  1.0000
  H   H722      1.0  0.42000844921925085  0.35148159170019677  0.6657325677389992  1.0000
  H   H723      1.0  0.42585151947494926  0.38769747476716165  0.6553753154788665  1.0000
  H   H724      1.0  0.45608955048280025  0.39089864644238276  0.5991009644227391  1.0000
  H   H725      1.0  0.42114078139169536  0.3726041926288835  0.5796690639410782  1.0000
  H   H726      1.0  0.4266997645632567  0.39998810088596576  0.6056292947111855  1.0000
  H   H727      1.0  0.37331506009285786  0.33506487016759745  0.602042013333024  1.0000
  H   H728      1.0  0.37860732073937853  0.3619595998934768  0.6285708716654206  1.0000
  H   H729      1.0  0.37283087905193046  0.32565665418637085  0.6382553056303507  1.0000
  H   H730      1.0  0.41415212113996086  0.32223266125210737  0.593710422045212  1.0000
  H   H731      1.0  0.41365049802391757  0.31336626421326  0.6298554716865707  1.0000
  H   H732      1.0  0.44874251920535  0.3407475250756715  0.6135484101615493  1.0000
  N   N46       1.0  0.9839065501729022  0.6709156951776726  0.12646036263300667  1.0000
  C   C469      1.0  0.9778903781425246  0.6506810133820353  0.10234583742754688  1.0000
  C   C470      1.0  0.9639878020340698  0.6843776739920582  0.12519502807231786  1.0000
  C   C471      1.0  0.016081186503431155  0.6954744318646  0.12587270551274748  1.0000
  C   C472      1.0  0.9778520834954254  0.6532790215000858  0.15241245001132947  1.0000
  H   H733      1.0  0.9927809231381719  0.6403449247132356  0.10255888425821151  1.0000
  H   H734      1.0  0.9827729885229758  0.6634124914992692  0.08241651425893295  1.0000
  H   H735      1.0  0.9538543773473587  0.6318159925722723  0.10194569982276541  1.0000
  H   H736      1.0  0.9682140958178838  0.6999225730383853  0.14303456079192517  1.0000
  H   H737      1.0  0.9681183987570152  0.6978434013678921  0.10582685412078918  1.0000
  H   H738      1.0  0.9394960836372536  0.6664987144967417  0.12566565663705764  1.0000
  H   H739      1.0  0.021674719672185594  0.7094679020153873  0.10667138703240397  1.0000
  H   H740      1.0  0.031463195408746314  0.6858965178454297  0.1261189263329172  1.0000
  H   H741      1.0  0.02199987541873938  0.7107394241324793  0.14419089294885742  1.0000
  H   H742      1.0  0.9826331410229321  0.6679597205006251  0.17104451685371097  1.0000
  H   H743      1.0  0.9927245212434322  0.6430247892940377  0.1541429488899013  1.0000
  H   H744      1.0  0.9538233798752921  0.6344631352346556  0.15370734584580245  1.0000
  N   N47       1.0  0.35235934336390334  0.11373966338517649  0.3262135451508521  1.0000
  C   C473      1.0  0.3846669523426318  0.12391360096872656  0.3202743031324172  1.0000
  C   C474      1.0  0.3410951570506484  0.09030944225098658  0.34818135052521965  1.0000
  C   C475      1.0  0.33426882050508844  0.10068142863278312  0.30077650260627  1.0000
  C   C476      1.0  0.34958795519973584  0.13995674193067786  0.3356887918458544  1.0000
  H   H745      1.0  0.39427069400743403  0.14210481077473297  0.3042469074744042  1.0000
  H   H746      1.0  0.3874750006771483  0.10476032692603031  0.3125327230308516  1.0000
  H   H747      1.0  0.39880751878482196  0.13313253973194453  0.33924183145853065  1.0000
  H   H748      1.0  0.34320663275486857  0.07033046687553553  0.3418041152200052  1.0000
  H   H749      1.0  0.3542435303820222  0.09945517485921944  0.3677233637937394  1.0000
  H   H750      1.0  0.3167127803598109  0.08187699889329841  0.35315445448984434  1.0000
  H   H751      1.0  0.309697889220009  0.09262992398776271  0.3044327218584939  1.0000
  H   H752      1.0  0.3360865940101359  0.08080689893404588  0.2933351303733119  1.0000
  H   H753      1.0  0.34232889666382377  0.11765905327081978  0.28366068601813094  1.0000
  H   H754      1.0  0.3254833453733214  0.13320545869689515  0.3402667338535278  1.0000
  H   H755      1.0  0.35839497749703614  0.1583778185330903  0.3198552046319577  1.0000
  H   H756      1.0  0.3628819940536406  0.14997128419590905  0.3550332059640149  1.0000
  N   N48       1.0  0.7629431848341718  0.6548058881604676  0.4547898363574933  1.0000
  C   C477      1.0  0.7457139360156065  0.6642190408457519  0.43659797375365794  1.0000
  C   C478      1.0  0.7949807947232478  0.6693296703853058  0.445248945199037  1.0000
  C   C479      1.0  0.7491329109869415  0.6213716113966816  0.4536939769961214  1.0000
  C   C480      1.0  0.7619780299157654  0.6643287751721838  0.483574502354723  1.0000
  H   H757      1.0  0.7469366845420587  0.6582991622996749  0.41459765539885624  1.0000
  H   H758      1.0  0.7549215669416365  0.6892035931710631  0.4373879252023566  1.0000
  H   H759      1.0  0.7211366773665528  0.6528902657689168  0.4424989039008691  1.0000
  H   H760      1.0  0.8060752598236217  0.6945604547520607  0.4455102267324761  1.0000
  H   H761      1.0  0.8086678729249365  0.662661022692717  0.45841375537807355  1.0000
  H   H762      1.0  0.7965636768717007  0.6625655490271328  0.42359871342785255  1.0000
  H   H763      1.0  0.7614929440746352  0.6133874220660325  0.4671659919289673  1.0000
  H   H764      1.0  0.7496948921118257  0.6134940763348656  0.43225781545906933  1.0000
  H   H765      1.0  0.7248363053819731  0.6095967002814348  0.4603653502728687  1.0000
  H   H766      1.0  0.7744677663796509  0.6573166383211173  0.49796178911409  1.0000
  H   H767      1.0  0.738147664784461  0.6541290539894964  0.49130838822045847  1.0000
  H   H768      1.0  0.772398018938929  0.6894606881795126  0.48514129123346705  1.0000
