data_image0
_chemical_formula_structural       FeS2FeS2FeSFeS3FeS2FeS2FeSFeS3FeS2FeS2FeSFeS3FeS2FeS2FeSFeS3FeS2FeS2FeSFeS3FeS2FeS2FeSFeS3FeS2FeS2FeSFeS3FeS2FeS2FeSFeS3FeS2FeS2FeSFeS3FeS2FeS2FeSFeS3FeS2FeS2FeSFeS3FeS2FeS2FeSFeS3FeS2FeS2FeSFeS3FeS2FeS2FeSFeS3FeS2FeS2FeSFeS3FeS2FeS2FeSFeS3C6H4C6H4C6H4C6H4C6H4C6H4C6H4C6H4C6H4C6H4C6H4C6H4C6H4C6H4C6H4C6H4C6H4C6H4C6H4C6H4C6H4C6H4C6H4C6H4C6H4C6H4C6H4C6H4C6H4C6H4C6H4C6H4FeS2FeS2FeSFeS3FeS2FeS2FeSFeS3FeS2FeS2FeSFeS3FeS2FeS2FeSFeS3FeS2FeS2FeSFeS3FeS2FeS2FeSFeS3FeS2FeS2FeSFeS3FeS2FeS2FeSFeS3FeS2FeS2FeSFeS3FeS2FeS2FeSFeS3FeS2FeS2FeSFeS3FeS2FeS2FeSFeS3FeS2FeS2FeSFeS3FeS2FeS2FeSFeS3FeS2FeS2FeSFeS3FeS2FeS2FeSFeS3C6H4C6H4C6H4C6H4C6H4C6H4C6H4C6H4C6H4C6H4C6H4C6H4C6H4C6H4C6H4C6H4C6H4C6H4C6H4C6H4C6H4C6H4C6H4C6H4C6H4C6H4C6H4C6H4C6H4C6H4C6H4C6H4NC4H12NC4H12NC4H12NC4H12NC4H12NC4H12NC4H12NC4H12NC4H12NC4H12NC4H12NC4H12NC4H12NC4H12NC4H12NC4H12NC4H12NC4H12NC4H12NC4H12NC4H12NC4H12NC4H12NC4H12NC4H12NC4H12NC4H12NC4H12NC4H12NC4H12NC4H12NC4H12NC4H12NC4H12NC4H12NC4H12NC4H12NC4H12NC4H12NC4H12NC4H12NC4H12NC4H12NC4H12NC4H12NC4H12NC4H12NC4H12NC4H12NC4H12NC4H12NC4H12NC4H12NC4H12NC4H12NC4H12NC4H12NC4H12NC4H12NC4H12NC4H12NC4H12NC4H12NC4H12
_chemical_formula_sum              "Fe128 S256 C640 H1024 N64"
_cell_length_a       74.91900630160187
_cell_length_b       41.391255526455836
_cell_length_c       32.864545860253266
_cell_angle_alpha    89.38854052963454
_cell_angle_beta     94.811317645473
_cell_angle_gamma    88.10852679492716

_space_group_name_H-M_alt    "P 1"
_space_group_IT_number       1

loop_
  _space_group_symop_operation_xyz
  'x, y, z'

loop_
  _atom_site_type_symbol
  _atom_site_label
  _atom_site_symmetry_multiplicity
  _atom_site_fract_x
  _atom_site_fract_y
  _atom_site_fract_z
  _atom_site_occupancy
  Fe  Fe1       1.0  0.25888727965872343  0.35650913113856536  0.6261972867292755  1.0000
  S   S1        1.0  0.27242391034750435  0.3082329131273752  0.6423839280063592  1.0000
  S   S2        1.0  0.2776916437035423  0.39787600233579407  0.6213787003715955  1.0000
  Fe  Fe2       1.0  0.2217570508711736  0.3276598944803146  0.6168515326961846  1.0000
  S   S3        1.0  0.23250591010367885  0.27739151142509316  0.6315817789731965  1.0000
  S   S4        1.0  0.1926855705670666  0.3361518614863099  0.5943126633908994  1.0000
  Fe  Fe3       1.0  0.24959959324634906  0.3013219128315425  0.6812779152177307  1.0000
  S   S5        1.0  0.2513525750607211  0.2783699594358955  0.7439550161261616  1.0000
  Fe  Fe4       1.0  0.2541947100641928  0.28909587479249194  0.5913723780127016  1.0000
  S   S6        1.0  0.2640140236669324  0.26140276140210367  0.538276305665676  1.0000
  S   S7        1.0  0.23729914420832396  0.35118562531147196  0.6693530901553019  1.0000
  S   S8        1.0  0.24215445556976642  0.3377960151179978  0.5726554746464056  1.0000
  Fe  Fe5       1.0  0.32410620786381744  0.5456052624845248  0.4423007765452971  1.0000
  S   S9        1.0  0.2991834191467029  0.5314579684943663  0.40478411818483284  1.0000
  S   S10       1.0  0.35072075316918344  0.5182890683360158  0.44176886069772564  1.0000
  Fe  Fe6       1.0  0.2802441758450091  0.07998851302882586  0.4957513032282712  1.0000
  S   S11       1.0  0.27093300456861014  0.030109330901533008  0.4807605675421528  1.0000
  S   S12       1.0  0.26410144479785985  0.10820155938982706  0.5394194091905544  1.0000
  Fe  Fe7       1.0  0.28572431538590415  0.5358489048269377  0.4631772841613569  1.0000
  S   S13       1.0  0.2637359339691529  0.5033107741213458  0.4800147894677308  1.0000
  Fe  Fe8       1.0  0.2816697118467943  0.038063686097702616  0.42001025743740283  1.0000
  S   S14       1.0  0.26930562270604425  0.01647971459530506  0.3621409380527973  1.0000
  S   S15       1.0  0.31113407112565883  0.5452363118592934  0.5014442698277078  1.0000
  S   S16       1.0  0.28823013948305454  0.08982501699446227  0.432356214454441  1.0000
  Fe  Fe9       1.0  0.7927025237483406  0.2551506284541223  0.3974411816633286  1.0000
  S   S17       1.0  0.8028835954466598  0.21651498170214206  0.44281507539029547  1.0000
  S   S18       1.0  0.7886716738978654  0.23635347258163683  0.33346803865978086  1.0000
  Fe  Fe10      1.0  0.7951610219752085  0.3079570377777244  0.4614557669009663  1.0000
  S   S19       1.0  0.8050249943439775  0.27308906576325875  0.5115657092936617  1.0000
  S   S20       1.0  0.7960675957222284  0.3613238964591663  0.4739695895460702  1.0000
  Fe  Fe11      1.0  0.8228272477662765  0.25279303304653705  0.4656083199763281  1.0000
  S   S21       1.0  0.8522238770555851  0.24205911914136663  0.4843301209295967  1.0000
  Fe  Fe12      1.0  0.7841108317733742  0.2405231813160446  0.4836320834370493  1.0000
  S   S22       1.0  0.7640439385626149  0.214038162046648  0.5180550606968185  1.0000
  S   S23       1.0  0.8141007901897953  0.28951993794116465  0.41704253573590455  1.0000
  S   S24       1.0  0.7726059033526302  0.2773336353647665  0.43678215959747574  1.0000
  Fe  Fe13      1.0  0.7592740177242459  0.03685376350541336  0.5928273485545782  1.0000
  S   S25       1.0  0.7713510103616792  0.5012341715246443  0.6057165664803758  1.0000
  S   S26       1.0  0.7770103401607078  0.06428717758671516  0.5535426454383008  1.0000
  Fe  Fe14      1.0  0.7262814495789923  0.5305745011647778  0.6454723703445981  1.0000
  S   S27       1.0  0.7432440355310552  0.49025112303167806  0.6760495911361533  1.0000
  S   S28       1.0  0.7031934599716771  0.5494804338731002  0.6795193050596804  1.0000
  Fe  Fe15      1.0  0.766258995453231  0.5219083101393992  0.6665463201963744  1.0000
  S   S29       1.0  0.7513559739802493  0.050026152308980894  0.7415101205164575  1.0000
  Fe  Fe16      1.0  0.7467487142055894  0.4728891060988001  0.6126433684968629  1.0000
  S   S30       1.0  0.7432786346556682  0.42061867796150254  0.5955497303253013  1.0000
  S   S31       1.0  0.7362479065188472  0.05563645271859758  0.6263117674028081  1.0000
  S   S32       1.0  0.7275207432882229  0.5103884874334166  0.5824327810594636  1.0000
  Fe  Fe17      1.0  0.9645218884457806  0.24316006877226676  0.3797399263139991  1.0000
  S   S33       1.0  0.9507355988241194  0.2631568786315294  0.43265943052568034  1.0000
  S   S34       1.0  0.9633499985357985  0.18906018633093208  0.3739623541688516  1.0000
  Fe  Fe18      1.0  0.9711456548539078  0.3103618158301824  0.3460353582423711  1.0000
  S   S35       1.0  0.9574297662475069  0.3351534536221343  0.39561244121576783  1.0000
  S   S36       1.0  0.9824303220579629  0.33699203744494394  0.29398991618656506  1.0000
  Fe  Fe19      1.0  0.9728332624458149  0.2986359036925611  0.4371906283069592  1.0000
  S   S37       1.0  0.984720405482873  0.31751587781105317  0.4974805261952103  1.0000
  Fe  Fe20      1.0  0.9368194271972743  0.2972684291408823  0.3862383897916681  1.0000
  S   S38       1.0  0.9070532573785836  0.3074029272687764  0.37512869165831686  1.0000
  S   S39       1.0  0.9879529680748151  0.27577205547236144  0.38804795251391266  1.0000
  S   S40       1.0  0.949293321259935  0.2753333820933695  0.3329837185740248  1.0000
  Fe  Fe21      1.0  0.10671282296560418  0.2912429663785614  0.6945327207004025  1.0000
  S   S41       1.0  0.09026717203852905  0.30323672956220993  0.7468821440677824  1.0000
  S   S42       1.0  0.13647607180606555  0.28464222046915566  0.7111809091313586  1.0000
  Fe  Fe22      1.0  0.0737923991893456  0.29325910600287824  0.6322782798619535  1.0000
  S   S43       1.0  0.05519138920175794  0.30717057642459494  0.6795702882088743  1.0000
  S   S44       1.0  0.0644956996439668  0.2811539654607986  0.5669608047546617  1.0000
  Fe  Fe23      1.0  0.076744768973986  0.3402932829303584  0.70343718162001  1.0000
  S   S45       1.0  0.07372654340682179  0.3936430516346941  0.7161489145796534  1.0000
  Fe  Fe24      1.0  0.07059133500581444  0.2686987487314062  0.7181504366595011  1.0000
  S   S46       1.0  0.05510241878480019  0.23023802234858295  0.7478455275875638  1.0000
  S   S47       1.0  0.09410135741283776  0.3297999902110775  0.6522406797738712  1.0000
  S   S48       1.0  0.08827233170332899  0.2532484122111889  0.6698217592786957  1.0000
  Fe  Fe25      1.0  0.23887767346998257  0.08050389430716423  0.15193360723557392  1.0000
  S   S49       1.0  0.2625299182762071  0.05372533195621343  0.1295880813237625  1.0000
  S   S50       1.0  0.24207666586425575  0.10682797731279664  0.2116107026889691  1.0000
  Fe  Fe26      1.0  0.21517270536656685  0.06879340505672246  0.0731294395908799  1.0000
  S   S51       1.0  0.23704271560396295  0.04065209663012915  0.04517487422856736  1.0000
  S   S52       1.0  0.19082857388161184  0.08728128399678432  0.03350218554339679  1.0000
  Fe  Fe27      1.0  0.2350640990555713  0.5117809857791745  0.06005230335606885  1.0000
  S   S53       1.0  0.23899154481860707  0.47063151042477597  0.017091857407440347  1.0000
  Fe  Fe28      1.0  0.25495874456231593  0.0793054961796378  0.07002418096077358  1.0000
  S   S54       1.0  0.27473823594211694  0.09912080846352389  0.029074225572299994  1.0000
  S   S55       1.0  0.21609882054826704  0.5119670517190362  0.10891181926288353  1.0000
  S   S56       1.0  0.23286514173711428  0.10912638432103874  0.09393675296421224  1.0000
  Fe  Fe29      1.0  0.31351206935660997  0.30589990987113524  0.9325539898738839  1.0000
  S   S57       1.0  0.2905787035975471  0.32371418492983145  0.9670567338953352  1.0000
  S   S58       1.0  0.3174654768282435  0.31374421474929975  0.8662116462854663  1.0000
  Fe  Fe30      1.0  0.33523285629484095  0.279627545830586  0.007559082810885576  1.0000
  S   S59       1.0  0.31458023689556824  0.29474638711213735  0.049451010965553384  1.0000
  S   S60       1.0  0.36095640020573216  0.252018827739593  0.026842651911744175  1.0000
  Fe  Fe31      1.0  0.2946526934525041  0.27642322819374304  0.0013093639003161073  1.0000
  S   S61       1.0  0.2713574823350114  0.25148830923639515  0.025094292633371706  1.0000
  Fe  Fe32      1.0  0.3119502316720506  0.34091873214774826  0.012949995494216937  1.0000
  S   S62       1.0  0.31078241211113083  0.38672653076369773  0.049132980792016445  1.0000
  S   S63       1.0  0.31551881840675056  0.2567289839130578  0.9623265271224752  1.0000
  S   S64       1.0  0.33458036313680317  0.32760152603780096  0.975421886944815  1.0000
  Fe  Fe33      1.0  0.9693316688436837  0.5170874325179712  0.22132564209788752  1.0000
  S   S65       1.0  0.9874928586138362  0.5493931574319335  0.18911148187032872  1.0000
  S   S66       1.0  0.9749958962873927  0.4897055080262103  0.2810424523481589  1.0000
  Fe  Fe34      1.0  0.9361888233038905  0.5375934904082843  0.16680192824457146  1.0000
  S   S67       1.0  0.9729208346998174  0.07418559644730756  0.128606578306384  1.0000
  S   S68       1.0  0.9200905099191117  0.07329911284258851  0.11087016719908352  1.0000
  Fe  Fe35      1.0  0.9724788789854713  0.5322172055725671  0.13153112339137504  1.0000
  S   S69       1.0  0.9831536758739262  0.5205168276668315  0.07065189299678559  1.0000
  Fe  Fe36      1.0  0.9780653959082225  0.07755565875819338  0.1965864119552715  1.0000
  S   S70       1.0  0.9921314621008774  0.12233566268362188  0.21847562081881464  1.0000
  S   S71       1.0  0.95627259691071  0.49650666166385515  0.16384222917180974  1.0000
  S   S72       1.0  0.9481681996132348  0.5561056952455358  0.22629441170254527  1.0000
  Fe  Fe37      1.0  0.07553160502839167  0.5044113968804937  0.9012339525451988  1.0000
  S   S73       1.0  0.051713772965750124  0.5386175802222636  0.9040706857668364  1.0000
  S   S74       1.0  0.07293341465934798  0.4502994615293355  0.8947208867908941  1.0000
  Fe  Fe38      1.0  0.1024096950316969  0.5576018399401235  0.9178963235735322  1.0000
  S   S75       1.0  0.09433834248136172  0.0786191263847435  0.9432438031236329  1.0000
  S   S76       1.0  0.12564890389005973  0.9998124269261188  0.9763947550449831  1.0000
  Fe  Fe39      1.0  0.0673805745019666  0.5591338996543735  0.958586378446699  1.0000
  S   S77       1.0  0.057307815314593176  0.5705164420037232  0.020110627350811594  1.0000
  Fe  Fe40      1.0  0.0905168058018224  0.07771031403786982  0.8747031748561397  1.0000
  S   S78       1.0  0.10237580725766562  0.11883832983120039  0.8413417198411375  1.0000
  S   S79       1.0  0.09018478472649867  0.5224502524430042  0.9585841677293482  1.0000
  S   S80       1.0  0.08975901362063314  0.5365225561069101  0.8604247982942828  1.0000
  Fe  Fe41      1.0  0.7313521110648196  0.27810069395022263  0.14095682770538417  1.0000
  S   S81       1.0  0.7556891351143854  0.25386339433406807  0.11733079768769268  1.0000
  S   S82       1.0  0.7250868571729092  0.2854521070457437  0.20634467370495602  1.0000
  Fe  Fe42      1.0  0.7145358267163711  0.29616741273972164  0.05601165530624017  1.0000
  S   S83       1.0  0.7372862751352027  0.2738262586809398  0.025062164760114358  1.0000
  S   S84       1.0  0.6916171830485862  0.325049131806978  0.023158307974361136  1.0000
  Fe  Fe43      1.0  0.7360429191915993  0.2330936255908439  0.07015019465830265  1.0000
  S   S85       1.0  0.735826690365046  0.18246571435860606  0.046051153187253835  1.0000
  Fe  Fe44      1.0  0.7549777923247147  0.2965453458088371  0.07441564801562493  1.0000
  S   S86       1.0  0.7800940785469631  0.31869284592695735  0.05550310264027266  1.0000
  S   S87       1.0  0.7116745902998971  0.25360223526462655  0.09729409383884874  1.0000
  S   S88       1.0  0.7323086388911392  0.3225594352346965  0.101647910158925  1.0000
  Fe  Fe45      1.0  0.8167593681343048  0.025439143660972215  0.9309477842742436  1.0000
  S   S89       1.0  0.7927100869309485  0.04439139387366065  0.9604432577759948  1.0000
  S   S90       1.0  0.8202602512900123  0.02179330707771987  0.8636664708287252  1.0000
  Fe  Fe46      1.0  0.8364239945121991  0.0035551992957743015  0.011901877215756418  1.0000
  S   S91       1.0  0.8139463808056996  0.01986155736754092  0.04856660247819058  1.0000
  S   S92       1.0  0.8620649431245627  0.977968960984602  0.03703952372592312  1.0000
  Fe  Fe47      1.0  0.7975223868030601  0.4951729478543623  0.03658506417972873  1.0000
  S   S93       1.0  0.785136771060084  0.4682727861177557  0.08657059999732697  1.0000
  Fe  Fe48      1.0  0.8125649362076595  0.06406612499530619  0.008064284931903476  1.0000
  S   S94       1.0  0.8115553492586571  0.11321899840560652  0.036641307136697776  1.0000
  S   S95       1.0  0.8132567552281812  0.4708638999958089  0.9897483058540408  1.0000
  S   S96       1.0  0.8365337680142869  0.04930470472822158  0.9749630686094827  1.0000
  Fe  Fe49      1.0  0.6012441079485114  0.2739154410362513  0.9285719304525758  1.0000
  S   S97       1.0  0.5837975840999623  0.3165128725074441  0.9442357048989586  1.0000
  S   S98       1.0  0.6228836764654676  0.24670916074975002  0.9681270704571393  1.0000
  Fe  Fe50      1.0  0.5821479146404408  0.26659655409360095  0.8442257303662207  1.0000
  S   S99       1.0  0.5632597102872303  0.30874432863790646  0.8519054232415771  1.0000
  S   S100      1.0  0.5817791221760987  0.2392183236232311  0.7851826934911678  1.0000
  Fe  Fe51      1.0  0.5873516581671475  0.33348463336463113  0.8800074728808277  1.0000
  S   S101      1.0  0.5936711267573109  0.38534317185577366  0.8665783085630817  1.0000
  Fe  Fe52      1.0  0.5610854265168561  0.2884029684123584  0.9148719113418895  1.0000
  S   S102      1.0  0.5328585192890676  0.2825102539626709  0.9325297094533609  1.0000
  S   S103      1.0  0.6066046586697034  0.29300952524210705  0.8668705541562017  1.0000
  S   S104      1.0  0.5782166017196426  0.24423768453875888  0.90483326429794  1.0000
  Fe  Fe53      1.0  0.4493309130206923  0.30780117183260036  0.12421204369805469  1.0000
  S   S105      1.0  0.47286181849415465  0.3364179645781855  0.1473379044905722  1.0000
  S   S106      1.0  0.42691266272239686  0.3352085541271194  0.08759858244178884  1.0000
  Fe  Fe54      1.0  0.4627880293899632  0.24724368209795775  0.17072933482595934  1.0000
  S   S107      1.0  0.48729138023925994  0.27067271717228214  0.1988369310982157  1.0000
  S   S108      1.0  0.45603335527878397  0.1952298545713553  0.18128514029677892  1.0000
  Fe  Fe55      1.0  0.46901985683099817  0.3136740167567991  0.20773924100290594  1.0000
  S   S109      1.0  0.47179327540724875  0.3426472631924186  0.26557939525333674  1.0000
  Fe  Fe56      1.0  0.48944315386090725  0.29183010831359635  0.136253564682683  1.0000
  S   S110      1.0  0.5176402525777931  0.29808941845741566  0.11852118587635006  1.0000
  S   S111      1.0  0.44419771120850865  0.2881550580888119  0.18580019394019978  1.0000
  S   S112      1.0  0.4662100422117305  0.26502732467632695  0.10680397908333535  1.0000
  Fe  Fe57      1.0  0.5826460355453212  0.5579161624554112  0.7062500817351787  1.0000
  S   S113      1.0  0.5882217787768795  0.0776191236589592  0.6801647150185206  1.0000
  S   S114      1.0  0.5640904395678052  0.09053950550978944  0.7825788012864529  1.0000
  Fe  Fe58      1.0  0.5772638879306904  0.4907006954262033  0.6728402305427958  1.0000
  S   S115      1.0  0.5779037087777938  0.5074073423655658  0.6078923872023421  1.0000
  S   S116      1.0  0.5740946730276395  0.43785204958987617  0.6861817492293661  1.0000
  Fe  Fe59      1.0  0.6013542700454604  0.5358470673196183  0.6323627876859143  1.0000
  S   S117      1.0  0.6251844925134689  0.5305342468890056  0.5951791119475017  1.0000
  Fe  Fe60      1.0  0.5610383781578423  0.5499640860811953  0.6249210891967033  1.0000
  S   S118      1.0  0.5369285826869404  0.5729615046796421  0.5883477784885001  1.0000
  S   S119      1.0  0.6017458801035344  0.5163012656280394  0.6962709097352379  1.0000
  S   S120      1.0  0.5580253544455973  0.5304547881104438  0.6877983199537956  1.0000
  Fe  Fe61      1.0  0.44307674607266034  0.5645441017284515  0.3742484324513449  1.0000
  S   S121      1.0  0.4500904380519019  0.5745330793183181  0.3104143683616085  1.0000
  S   S122      1.0  0.4184041172063992  0.592071156035201  0.39172629466228126  1.0000
  Fe  Fe62      1.0  0.47836873596200247  0.5276652639070133  0.39692207345148073  1.0000
  S   S123      1.0  0.48824486499583464  0.5353847509957629  0.33494794485614127  1.0000
  S   S124      1.0  0.4972255838784743  0.4987981702521134  0.44179927827516624  1.0000
  Fe  Fe63      1.0  0.47713819913591365  0.5860611486979764  0.33943517223433556  1.0000
  S   S125      1.0  0.46140157059840753  0.14236424917495566  0.363315553610916  1.0000
  Fe  Fe64      1.0  0.460355585623293  0.5228898646383918  0.3115710152708559  1.0000
  S   S126      1.0  0.45501972694980003  0.4936881412219622  0.25449236595382024  1.0000
  S   S127      1.0  0.44888023469117905  0.07071811817230221  0.43247476348400943  1.0000
  S   S128      1.0  0.4509828764433001  0.5115935486572073  0.3732091643262684  1.0000
  C   C1        1.0  0.5249332646195324  0.5500019817860731  0.5512092140956456  1.0000
  C   C2        1.0  0.5318769171319938  0.5204946722135115  0.5380997509028873  1.0000
  C   C3        1.0  0.5229436273420122  0.5044493802433379  0.5052801360845032  1.0000
  C   C4        1.0  0.5070867001829182  0.5178577527935571  0.48533655984289853  1.0000
  C   C5        1.0  0.4998230329839372  0.5467995859497192  0.4993202093466277  1.0000
  C   C6        1.0  0.508740904100323  0.5628491941452419  0.5321570461223388  1.0000
  H   H1        1.0  0.5443130563155716  0.5103633628839159  0.5525956765358723  1.0000
  H   H2        1.0  0.5285337684296262  0.48189842467440497  0.49477875738676613  1.0000
  H   H3        1.0  0.48736868711673476  0.5568474044460785  0.48477164533567224  1.0000
  H   H4        1.0  0.5032352800889549  0.5855294351650637  0.5424641128412518  1.0000
  C   C7        1.0  0.4665970900468002  0.3844647057590539  0.262539596221142  1.0000
  C   C8        1.0  0.46067195221234364  0.3994439014701908  0.22530544565147967  1.0000
  C   C9        1.0  0.45720490746333026  0.4329779518295459  0.2232316993857729  1.0000
  C   C10       1.0  0.4595554121065619  0.45175189754985  0.25839958635685445  1.0000
  C   C11       1.0  0.46545959536108916  0.43682208086959967  0.295710611657466  1.0000
  C   C12       1.0  0.46895642911088  0.4032228493241858  0.2977427270742954  1.0000
  H   H5        1.0  0.4589263747027415  0.3852944015589114  0.1980195463960998  1.0000
  H   H6        1.0  0.45278912776122354  0.4445261191925697  0.1942667708080672  1.0000
  H   H7        1.0  0.46731937539885154  0.45114378612374834  0.3230100363814977  1.0000
  H   H8        1.0  0.47355303643633284  0.3917994883924823  0.32669138098801104  1.0000
  C   C13       1.0  0.45593441483924646  0.18230719666689243  0.23243616474624906  1.0000
  C   C14       1.0  0.4633728192753003  0.2008789966712803  0.2644331255129901  1.0000
  C   C15       1.0  0.46442853971678755  0.18880834496283092  0.30473261447983063  1.0000
  C   C16       1.0  0.4581051910901026  0.15813580881313236  0.3132014603307899  1.0000
  C   C17       1.0  0.4501290203761688  0.14003036795421447  0.28136571184955  1.0000
  C   C18       1.0  0.44905105723497907  0.15212550241379022  0.24106699185967775  1.0000
  H   H9        1.0  0.4685942957625991  0.22428597520034274  0.2580879747302288  1.0000
  H   H10       1.0  0.47049914372712626  0.20301047472384903  0.32931669944845504  1.0000
  H   H11       1.0  0.4449031014642295  0.11667218135796809  0.28773846158292177  1.0000
  H   H12       1.0  0.4429946319581658  0.13798298462994382  0.2164224434500585  1.0000
  C   C19       1.0  0.5891096015589942  0.39883388016486687  0.8157024913969152  1.0000
  C   C20       1.0  0.5798283149309214  0.3798608056266341  0.7866296315709174  1.0000
  C   C21       1.0  0.57545454755012  0.39196736817714445  0.7468327284178371  1.0000
  C   C22       1.0  0.5802594121954407  0.4231214067419889  0.7359558402211099  1.0000
  C   C23       1.0  0.589934789477457  0.44183003387919234  0.7647156866909174  1.0000
  C   C24       1.0  0.5944324693495224  0.42959483782462043  0.8044322552509272  1.0000
  H   H13       1.0  0.5758945621196129  0.35594881931914535  0.7948178618205801  1.0000
  H   H14       1.0  0.5681246805741771  0.37725673570282986  0.7245726234307743  1.0000
  H   H15       1.0  0.5939302380512168  0.4656748072216948  0.7564483048574706  1.0000
  H   H16       1.0  0.6020337314354046  0.44393445302544016  0.8266161063193961  1.0000
  C   C25       1.0  0.5769186246270352  0.19791689143387856  0.7850527660363413  1.0000
  C   C26       1.0  0.5792778764856644  0.17987548570183032  0.7499907093517109  1.0000
  C   C27       1.0  0.5754361454584278  0.14690446016245154  0.7489432119550856  1.0000
  C   C28       1.0  0.5691210755821612  0.13180231186088123  0.7829102259028445  1.0000
  C   C29       1.0  0.5666223991973189  0.14995366034173807  0.81792384447814  1.0000
  C   C30       1.0  0.5705695487825863  0.18289563448155138  0.8190368745454112  1.0000
  H   H17       1.0  0.5840274842947848  0.19144338482562723  0.7234438500612064  1.0000
  H   H18       1.0  0.5770571488071417  0.1333880545599629  0.721571003976482  1.0000
  H   H19       1.0  0.5616287864866452  0.13841359991748048  0.8442070603045249  1.0000
  H   H20       1.0  0.5685178528325182  0.19665357042306497  0.8459781254481624  1.0000
  C   C31       1.0  0.5288360366333861  0.2869493625703416  0.9843294944108865  1.0000
  C   C32       1.0  0.5113550253629293  0.2840072020018435  0.9959731352510919  1.0000
  C   C33       1.0  0.507759470500871  0.28734765657099276  0.03706361147659232  1.0000
  C   C34       1.0  0.5216580198084158  0.2936219459416183  0.06673182694892683  1.0000
  C   C35       1.0  0.539137292263779  0.2965982364384082  0.05507949303860668  1.0000
  C   C36       1.0  0.5427347980469007  0.29324751113838576  0.013991973535477875  1.0000
  H   H21       1.0  0.500543401632432  0.2791585697405987  0.9731870756707711  1.0000
  H   H22       1.0  0.4942465163137502  0.28507978496179287  0.0457467870355015  1.0000
  H   H23       1.0  0.5499441857806245  0.30138922813857427  0.07790138976373595  1.0000
  H   H24       1.0  0.5562500783058314  0.2954638147071236  0.00533173118183683  1.0000
  C   C37       1.0  0.6730551904509963  0.3027800872491646  0.005188830843702474  1.0000
  C   C38       1.0  0.6731093611077269  0.26922190336858143  0.01063188796347836  1.0000
  C   C39       1.0  0.6576322343311419  0.2521850363679618  0.9991395482511164  1.0000
  C   C40       1.0  0.6421931089116711  0.26852550249642265  0.9813152946196939  1.0000
  C   C41       1.0  0.6422796068407512  0.30195874499582864  0.9748481431414507  1.0000
  C   C42       1.0  0.6576634826949898  0.3190806884091253  0.98704022590424  1.0000
  H   H25       1.0  0.68500207489093  0.25639390932849065  0.024057682045141027  1.0000
  H   H26       1.0  0.6576463978030658  0.22629202998249243  0.004011657960928394  1.0000
  H   H27       1.0  0.6304136510818347  0.3147027292523437  0.9609945610774205  1.0000
  H   H28       1.0  0.6575747357489663  0.34503189372294374  0.9826222528651831  1.0000
  C   C43       1.0  0.7830283653484187  0.3592158284335352  0.06919968789541033  1.0000
  C   C44       1.0  0.772009992348726  0.37470639341137746  0.0958227950824984  1.0000
  C   C45       1.0  0.7733890289312821  0.40799338265694574  0.10278138473865374  1.0000
  C   C46       1.0  0.785686348419969  0.4258961572522761  0.08285833534434284  1.0000
  C   C47       1.0  0.7974444890743321  0.4099386512778764  0.05834554010901294  1.0000
  C   C48       1.0  0.7961480448816545  0.37667342474189786  0.05157416299801665  1.0000
  H   H29       1.0  0.7623717760001366  0.3612044015239746  0.1109175120848115  1.0000
  H   H30       1.0  0.764524261392341  0.42006206889597547  0.12256725607060688  1.0000
  H   H31       1.0  0.8076053881462899  0.4231063758891978  0.04471430262604437  1.0000
  H   H32       1.0  0.8050593994530487  0.36467411709566117  0.03184350899075694  1.0000
  C   C49       1.0  0.7564462248820132  0.16085644011568034  0.0476861117034996  1.0000
  C   C50       1.0  0.7712895949796056  0.1705435817187674  0.07267627620753869  1.0000
  C   C51       1.0  0.7880392366596543  0.15463436609865475  0.07057467796446848  1.0000
  C   C52       1.0  0.7900067030620266  0.12920266882443948  0.043337234411305436  1.0000
  C   C53       1.0  0.775000715635752  0.1186752767336764  0.019626486086543604  1.0000
  C   C54       1.0  0.7582439445649918  0.13443570274467292  0.021882631526707108  1.0000
  H   H33       1.0  0.7699131101797253  0.1903989269692316  0.09334691476416171  1.0000
  H   H34       1.0  0.7995683877996445  0.16236084859330147  0.08958832691393148  1.0000
  H   H35       1.0  0.776360723549772  0.09905318509954633  0.9986562934095601  1.0000
  H   H36       1.0  0.7467518369003765  0.12670432895857517  0.002742277822696426  1.0000
  C   C55       1.0  0.0038357359678509173  0.5343973377011071  0.05714887841332546  1.0000
  C   C56       1.0  0.006542383236430638  0.5384701008696408  0.015671094678845865  1.0000
  C   C57       1.0  0.022932347440922207  0.5494494293979731  0.003882983656186001  1.0000
  C   C58       1.0  0.03671548033675805  0.5562397292123672  0.033553611516421444  1.0000
  C   C59       1.0  0.03401599557244743  0.5521222940844936  0.07499119570846013  1.0000
  C   C60       1.0  0.01769708816467097  0.5408916891398015  0.08677507233903356  1.0000
  H   H37       1.0  0.998215645880406  0.06669348569241404  0.06775651205509803  1.0000
  H   H38       1.0  0.014646267906880173  0.09933637914830823  0.020357180234922945  1.0000
  H   H39       1.0  0.044688682393895576  0.5572632770405785  0.09805341250921251  1.0000
  H   H40       1.0  0.015870805993369208  0.5371157374520301  0.11877643766712087  1.0000
  C   C61       1.0  0.9041888350423378  0.04612169375491337  0.09112471374798516  1.0000
  C   C62       1.0  0.8759823071127543  0.5185511827809897  0.11799194774831628  1.0000
  C   C63       1.0  0.8658008546422579  0.514136263055188  0.08077213726972941  1.0000
  C   C64       1.0  0.8780377911133186  0.004044008629823015  0.05908483074835185  1.0000
  C   C65       1.0  0.8957989942336757  0.9927678738702225  0.06809764057785601  1.0000
  C   C66       1.0  0.9088643139087077  0.013762277184667937  0.08426816637904137  1.0000
  H   H41       1.0  0.8695696284313341  0.5177199521177507  0.1462710249435568  1.0000
  H   H42       1.0  0.8516781412173283  0.5096228916601784  0.08057448801495352  1.0000
  H   H43       1.0  0.8994920193367589  0.9678300341015089  0.06238393623658012  1.0000
  H   H44       1.0  0.9225765900658626  0.005065345491030549  0.09080819091372  1.0000
  C   C67       1.0  0.37872459387605956  0.27523871396034194  0.047109572086510634  1.0000
  C   C68       1.0  0.3951115756024376  0.2598166414633207  0.06066962343473454  1.0000
  C   C69       1.0  0.40988814846204186  0.2780667136904067  0.07410681878653035  1.0000
  C   C70       1.0  0.4084007490798711  0.3118182408366563  0.07306133639460968  1.0000
  C   C71       1.0  0.3919685575899579  0.3272579072910876  0.059966937882597084  1.0000
  C   C72       1.0  0.3770719656165015  0.3089883870368083  0.04761895530922566  1.0000
  H   H45       1.0  0.3964317500998282  0.233699669691134  0.06054858626740822  1.0000
  H   H46       1.0  0.4225214408025813  0.2659988878918767  0.08442361163325361  1.0000
  H   H47       1.0  0.3907519527480381  0.35338095475859066  0.05935807438056992  1.0000
  H   H48       1.0  0.36442311909491026  0.32106959800539764  0.03784099556256604  1.0000
  C   C73       1.0  0.1730921371971212  0.06208674465077514  0.017913654761519737  1.0000
  C   C74       1.0  0.17313150962110435  0.5718373402012772  0.0040338535459247815  1.0000
  C   C75       1.0  0.16278970821972177  0.570620876568881  0.9665049997792863  1.0000
  C   C76       1.0  0.14395129944868337  0.023823742122366157  0.9919811867189003  1.0000
  C   C77       1.0  0.144381802935489  0.05592573862929605  0.978589691727913  1.0000
  C   C78       1.0  0.15887185905539147  0.07498566766100512  0.9915982967421008  1.0000
  H   H49       1.0  0.1875096799608793  0.572569749832513  0.0045685393708778665  1.0000
  H   H50       1.0  0.16932823849372314  0.5701339332620359  0.9383891745345037  1.0000
  H   H51       1.0  0.13357376131598842  0.0661055799996386  0.9581009884766365  1.0000
  H   H52       1.0  0.15902234649175573  0.09985842945065117  0.9812522318784591  1.0000
  C   C79       1.0  0.25892154663296857  0.4473486487639095  0.02648653526237066  1.0000
  C   C80       1.0  0.2701908347135652  0.45131799616361845  0.06205640064866014  1.0000
  C   C81       1.0  0.28643887682165947  0.43343939493235145  0.06808324911245789  1.0000
  C   C82       1.0  0.2912752637008066  0.4110400988412735  0.03898593540997464  1.0000
  C   C83       1.0  0.28008044797118636  0.40728017291337415  0.003268643803250759  1.0000
  C   C84       1.0  0.2638788695210642  0.42527906239366475  0.9971372336094956  1.0000
  H   H53       1.0  0.2663344283746737  0.4678502456021479  0.08517829428129309  1.0000
  H   H54       1.0  0.2950686734929879  0.4363969644524531  0.09580719932506554  1.0000
  H   H55       1.0  0.2839146855522784  0.39063171238125655  0.9802436190612627  1.0000
  H   H56       1.0  0.25523836586262083  0.4222534237618246  0.9694396504455024  1.0000
  C   C85       1.0  0.27438420264273317  0.20932781960568836  0.02855235886023566  1.0000
  C   C86       1.0  0.2829905672827891  0.19215157157979906  0.9989399126156856  1.0000
  C   C87       1.0  0.2836204631113437  0.15818175466366294  0.9999697832663494  1.0000
  C   C88       1.0  0.27582852303689964  0.14142094803931468  0.030855743479638372  1.0000
  C   C89       1.0  0.2680900321796147  0.1586801373050075  0.06158471708848722  1.0000
  C   C90       1.0  0.2670954695909435  0.1925526789826963  0.06006741508612566  1.0000
  H   H57       1.0  0.2885584371775315  0.20499123868024766  0.9743963093651847  1.0000
  H   H58       1.0  0.2897540085238005  0.14496776571340794  0.9762597954380764  1.0000
  H   H59       1.0  0.262790416637735  0.14602545724900198  0.08651518978830111  1.0000
  H   H60       1.0  0.26063406177827986  0.20573780081995363  0.0833407488468572  1.0000
  C   C91       1.0  0.06843056695814816  0.1981148461721546  0.7707371209837123  1.0000
  C   C92       1.0  0.06034272078582307  0.16986941476844306  0.7828448598064478  1.0000
  C   C93       1.0  0.07073930006096148  0.144542258830665  0.8027346482644481  1.0000
  C   C94       1.0  0.08918409878565872  0.14776724288085757  0.8115154995625137  1.0000
  C   C95       1.0  0.0972827761618234  0.17569815551999574  0.7984946350994329  1.0000
  C   C96       1.0  0.08696255975711947  0.20075481893764327  0.7780079085319602  1.0000
  H   H61       1.0  0.046021972524808455  0.16758853965660286  0.7768987518295332  1.0000
  H   H62       1.0  0.06446337200210846  0.12272974506748688  0.8117350596044653  1.0000
  H   H63       1.0  0.11157625089158424  0.17822635448677893  0.8048905780050417  1.0000
  H   H64       1.0  0.09333237743804876  0.2223728635939978  0.7685727275991301  1.0000
  C   C97       1.0  0.07351842448043909  0.4086080965857722  0.7661398983191571  1.0000
  C   C98       1.0  0.0732240452957942  0.44216381641811836  0.7717109346031108  1.0000
  C   C99       1.0  0.07316730255700567  0.45513252087813855  0.81102315286637  1.0000
  C   C100      1.0  0.07338129946057902  0.4345913486871247  0.8450966263681005  1.0000
  C   C101      1.0  0.07375148011489364  0.4009714416413843  0.8396016957436828  1.0000
  C   C102      1.0  0.0738592669248175  0.38796947217110617  0.8002080113113974  1.0000
  H   H65       1.0  0.07287997908387482  0.4582529301902767  0.7454616647410603  1.0000
  H   H66       1.0  0.07268863410084671  0.4810430393032813  0.8148315061830884  1.0000
  H   H67       1.0  0.07387675614610914  0.3849544750150541  0.8658453340957147  1.0000
  H   H68       1.0  0.07398667046877319  0.362069687280399  0.796185751160306  1.0000
  C   C103      1.0  0.9711769544295282  0.17122101319505614  0.33014802043219094  1.0000
  C   C104      1.0  0.9674289097182717  0.1388599407525807  0.32185485870466635  1.0000
  C   C105      1.0  0.9734685481438892  0.12391882738492602  0.2871322223030829  1.0000
  C   C106      1.0  0.9836030944417026  0.1411131603334702  0.26096465763388293  1.0000
  C   C107      1.0  0.9873701737386877  0.1734920352860495  0.2692698190246904  1.0000
  C   C108      1.0  0.9809829842091018  0.18867100186694644  0.3035477593762724  1.0000
  H   H69       1.0  0.9599244662904212  0.1252169344719444  0.34245969350757166  1.0000
  H   H70       1.0  0.9706613350185117  0.09886579974993245  0.28116960978053746  1.0000
  H   H71       1.0  0.9951927384530629  0.18690205707137156  0.24909402550255322  1.0000
  H   H72       1.0  0.983912855426759  0.21365306723672253  0.30974077602980943  1.0000
  C   C109      1.0  0.9793945254308393  0.37933605536872816  0.2895070486656736  1.0000
  C   C110      1.0  0.9840175924104064  0.3952969475981122  0.2541676758673629  1.0000
  C   C111      1.0  0.9822965535401585  0.42919886172734356  0.2505919555652419  1.0000
  C   C112      1.0  0.9763178720121112  0.4472534123359747  0.28281490427777833  1.0000
  C   C113      1.0  0.9716643045733416  0.43129865189806427  0.3180455271754463  1.0000
  C   C114      1.0  0.9729072044275495  0.39745242445536205  0.3210727870979483  1.0000
  H   H73       1.0  0.9890612771064411  0.3814082018741317  0.2296078852666709  1.0000
  H   H74       1.0  0.9860374105270865  0.44138320733056896  0.22343322859485684  1.0000
  H   H75       1.0  0.9669903068363608  0.44521061104717874  0.34299787700895557  1.0000
  H   H76       1.0  0.9690954082630835  0.3854866370118175  0.3480689468824245  1.0000
  C   C115      1.0  0.006909278410988096  0.30704171476843256  0.5161680717731179  1.0000
  C   C116      1.0  0.01379231445324236  0.3200638684799974  0.5532379587330167  1.0000
  C   C117      1.0  0.031533371679971944  0.3127932589842893  0.5687399686824839  1.0000
  C   C118      1.0  0.04251238511279588  0.2923655266942386  0.5472627577415738  1.0000
  C   C119      1.0  0.035707371755769164  0.27967767020258605  0.5098876935510425  1.0000
  C   C120      1.0  0.017930498429953312  0.2868752754722811  0.4944235617398625  1.0000
  H   H77       1.0  0.005371606436102905  0.33589842917185386  0.570053521305733  1.0000
  H   H78       1.0  0.036700796230708654  0.3230821841286121  0.5972634865951482  1.0000
  H   H79       1.0  0.044150575250979915  0.26387442932464117  0.49309531622177877  1.0000
  H   H80       1.0  0.012762686247209887  0.27665660680215615  0.4658631558112052  1.0000
  C   C121      1.0  0.6815192995845556  0.5442201764442236  0.6559727292135026  1.0000
  C   C122      1.0  0.6665164469552683  0.5517261654046661  0.6774097418447624  1.0000
  C   C123      1.0  0.6490989671311542  0.5478468975362838  0.6590117539261723  1.0000
  C   C124      1.0  0.6466736727884594  0.5366963797037807  0.618971022791275  1.0000
  C   C125      1.0  0.661660710056075  0.5292148732316175  0.5976022284130748  1.0000
  C   C126      1.0  0.6790385095830317  0.5328292982351077  0.6160971294050073  1.0000
  H   H81       1.0  0.6683729169356265  0.5605563189305721  0.7082758415714978  1.0000
  H   H82       1.0  0.6375808992164302  0.5536845528089156  0.6756465103331867  1.0000
  H   H83       1.0  0.6598298350135917  0.5205578443718523  0.5666331005762753  1.0000
  H   H84       1.0  0.6972680183964653  0.03104886698243248  0.6626564310892648  1.0000
  C   C127      1.0  0.7706204649781556  0.04200710723888169  0.7749909716152135  1.0000
  C   C128      1.0  0.7717242622968636  0.05574827339693196  0.813898062161381  1.0000
  C   C129      1.0  0.7869078788943484  0.049709899030219155  0.8413262182267854  1.0000
  C   C130      1.0  0.8011311378637778  0.03007578330723582  0.8298433623711969  1.0000
  C   C131      1.0  0.774700260605523  0.47843897253630263  0.8088932171542096  1.0000
  C   C132      1.0  0.7763583737110188  0.4904151649642348  0.7693228088928141  1.0000
  H   H85       1.0  0.7607951012011562  0.0710939142795597  0.822901236572552  1.0000
  H   H86       1.0  0.7877006952176729  0.06062948427207653  0.8711283907024016  1.0000
  H   H87       1.0  0.7663997597862741  0.45799700773941177  0.8132390427451835  1.0000
  H   H88       1.0  0.7694667507554407  0.4790380174270978  0.7434207087404927  1.0000
  C   C133      1.0  0.8678389991671549  0.25700650321258833  0.45212972420975783  1.0000
  C   C134      1.0  0.8622511706876078  0.2695783181385153  0.4133408610967674  1.0000
  C   C135      1.0  0.874421309489586  0.28503522813567217  0.39016404469376026  1.0000
  C   C136      1.0  0.892438730940977  0.2869783654035341  0.4048833597019358  1.0000
  C   C137      1.0  0.8982986974503907  0.2730362377167507  0.4428318943787912  1.0000
  C   C138      1.0  0.8859899685749164  0.2581396164278581  0.46645308574035377  1.0000
  H   H89       1.0  0.8484884593843652  0.2678173015077947  0.4013017613989133  1.0000
  H   H90       1.0  0.8698348772893859  0.2955119427459654  0.36065359306441835  1.0000
  H   H91       1.0  0.9121834393703175  0.2744544252301987  0.45445910972058806  1.0000
  H   H92       1.0  0.8904566786809313  0.24820106266217373  0.49631300208200857  1.0000
  C   C139      1.0  0.7823941112692454  0.3755238349280952  0.5112143827825748  1.0000
  C   C140      1.0  0.7674565062099005  0.35865785199569816  0.5211598557028377  1.0000
  C   C141      1.0  0.7558246324624811  0.3721622053779635  0.5483148495619299  1.0000
  C   C142      1.0  0.7591941367248833  0.40235471877910506  0.5658210656725979  1.0000
  C   C143      1.0  0.7745739869338489  0.4184255691743118  0.557126022222048  1.0000
  C   C144      1.0  0.7860787833465883  0.4051490250146433  0.5296967250520065  1.0000
  H   H93       1.0  0.7645815243627201  0.33567204165414916  0.5071021793088002  1.0000
  H   H94       1.0  0.743990095885712  0.3595112618257634  0.5550879360640592  1.0000
  H   H95       1.0  0.7775193511572004  0.4412508728463627  0.5710998038505662  1.0000
  H   H96       1.0  0.7977748483907752  0.41802639694978816  0.5225341005778146  1.0000
  C   C145      1.0  0.768162602635573  0.17283010789733552  0.5299513670335089  1.0000
  C   C146      1.0  0.7545828653826433  0.15491936746820045  0.5453605810980958  1.0000
  C   C147      1.0  0.7571616243475114  0.1215507805913115  0.5529767009453682  1.0000
  C   C148      1.0  0.7733602922531233  0.1060454859450818  0.5452368818757866  1.0000
  C   C149      1.0  0.7869910512676213  0.12402436310915307  0.5302705151603286  1.0000
  C   C150      1.0  0.7844614200137506  0.15738985155850352  0.522918033081104  1.0000
  H   H97       1.0  0.7419173755215879  0.16680006243075202  0.5506720895808894  1.0000
  H   H98       1.0  0.7464969288587125  0.10772845179592273  0.563921539859833  1.0000
  H   H99       1.0  0.7995737012246029  0.11209513364567934  0.5243634221386351  1.0000
  H   H100      1.0  0.795075226129529  0.17107195637234174  0.5114908616438057  1.0000
  C   C151      1.0  0.7708727396822683  0.25081633548102283  0.2991440542980537  1.0000
  C   C152      1.0  0.7580338557058468  0.27355587451876257  0.3105306358453751  1.0000
  C   C153      1.0  0.7438297857812727  0.28390985539965424  0.2820973465760483  1.0000
  C   C154      1.0  0.7425936775826135  0.27183602695767095  0.24221971110615037  1.0000
  C   C155      1.0  0.7552931127028415  0.24875719416380945  0.231319743983465  1.0000
  C   C156      1.0  0.7693513458355387  0.23826267194305162  0.2596748473120495  1.0000
  H   H101      1.0  0.7591150495987369  0.28330975975355477  0.34099684315183126  1.0000
  H   H102      1.0  0.7340066048555438  0.3017252866842595  0.29073299856985707  1.0000
  H   H103      1.0  0.7542057340063785  0.23864813279717162  0.20114871881329563  1.0000
  H   H104      1.0  0.7791647551200883  0.2204870499252683  0.25082039606101686  1.0000
  C   C157      1.0  0.36907869724971837  0.537978366447887  0.4236631779109236  1.0000
  C   C158      1.0  0.38586065116669743  0.5217067859148217  0.4252655876166291  1.0000
  C   C159      1.0  0.40104438023788846  0.5377349489852457  0.4142780840786042  1.0000
  C   C160      1.0  0.39952708766667133  0.570292921106463  0.4023276960509073  1.0000
  C   C161      1.0  0.382733914866462  0.5864660710744456  0.40038482645795626  1.0000
  C   C162      1.0  0.36751014845264324  0.5702180007859103  0.410371113244938  1.0000
  H   H105      1.0  0.3871687744469262  0.49671785784325123  0.43541586507848995  1.0000
  H   H106      1.0  0.41396754039057937  0.5251039594098255  0.4159372599991302  1.0000
  H   H107      1.0  0.3749220263891407  0.9931203153011182  0.4280107519529012  1.0000
  H   H108      1.0  0.3477019032246055  0.025323726376107247  0.4417666905312936  1.0000
  C   C163      1.0  0.2617406512658052  0.042127729868257635  0.3208848846646186  1.0000
  C   C164      1.0  0.2688237810576883  0.5965040327924319  0.2626645263900079  1.0000
  C   C165      1.0  0.25227626931461195  0.04853703309063962  0.24848012551815235  1.0000
  C   C166      1.0  0.24969495572534123  0.08180999407407867  0.25345301473780774  1.0000
  C   C167      1.0  0.25329261477939224  0.0952771868802516  0.2921651058821519  1.0000
  C   C168      1.0  0.25933129298786856  0.07545934441342504  0.32587880630274085  1.0000
  H   H109      1.0  0.2737555965497732  0.6194094242572629  0.253149775501179  1.0000
  H   H110      1.0  0.2571000169687336  0.5848548488709849  0.20247755892502733  1.0000
  H   H111      1.0  0.2511800945249431  0.12099636915711391  0.2961158833758444  1.0000
  H   H112      1.0  0.26172634885536494  0.08583619504211701  0.3557981612087763  1.0000
  C   C169      1.0  0.17711748509209554  0.32199593404953264  0.6269760768458486  1.0000
  C   C170      1.0  0.1587377378359918  0.3243884963626774  0.614553150468383  1.0000
  C   C171      1.0  0.1461155419178241  0.3126445335252654  0.6398761504411185  1.0000
  C   C172      1.0  0.15184833065677975  0.29859716270091496  0.6778336349195324  1.0000
  C   C173      1.0  0.1702318832816507  0.2961624595689471  0.6901466217910575  1.0000
  C   C174      1.0  0.1828501319689195  0.30776014414950137  0.6647762941992704  1.0000
  H   H113      1.0  0.15424933863430454  0.3352735228919585  0.5852367163030164  1.0000
  H   H114      1.0  0.13198785935197488  0.31437185529459927  0.6299524494219295  1.0000
  H   H115      1.0  0.1747537091039784  0.28526883185577656  0.7194571707814864  1.0000
  H   H116      1.0  0.19700513585105364  0.3057758374855474  0.6746082754317582  1.0000
  C   C175      1.0  0.27349594837983326  0.42721666340733216  0.5822550111884564  1.0000
  C   C176      1.0  0.25735732271270173  0.42865787147634576  0.557567709443718  1.0000
  C   C177      1.0  0.2545972723172886  0.45196078422525515  0.5260555284667574  1.0000
  C   C178      1.0  0.268002539396454  0.47367718737397596  0.5187818118647739  1.0000
  C   C179      1.0  0.2841604110382796  0.4721703213502197  0.5434080221374908  1.0000
  C   C180      1.0  0.2868392561185921  0.4491269434943969  0.5752229359516118  1.0000
  H   H117      1.0  0.2469374187214436  0.41203983574237013  0.5629725574683089  1.0000
  H   H118      1.0  0.24201881101172118  0.45315549665090477  0.5072348561806439  1.0000
  H   H119      1.0  0.29457311256475993  0.48874858293618345  0.5380742576852551  1.0000
  H   H120      1.0  0.29934987477298786  0.44809234943957854  0.5942888849437542  1.0000
  C   C181      1.0  0.26474345713826125  0.2187992390353491  0.5400274071320217  1.0000
  C   C182      1.0  0.27133502508355123  0.20167924313929486  0.5075144757993348  1.0000
  C   C183      1.0  0.27155202976761295  0.16769869586518033  0.5073868784175396  1.0000
  C   C184      1.0  0.2648774612611345  0.1507080812145681  0.5394931952860452  1.0000
  C   C185      1.0  0.2583051052409358  0.1678379465012988  0.5720506694951495  1.0000
  C   C186      1.0  0.2584413442302232  0.20178986777532107  0.5725935045925609  1.0000
  H   H121      1.0  0.27625785828871435  0.21469814237276635  0.48226174839683045  1.0000
  H   H122      1.0  0.27661915521001995  0.15468085121328426  0.4821656816873426  1.0000
  H   H123      1.0  0.25320463150425027  0.15479900360914153  0.5970668760728027  1.0000
  H   H124      1.0  0.253617694013184  0.21474925519273547  0.5981201650657468  1.0000
  C   C187      1.0  0.2695964706398159  0.2890703169459899  0.7777981426845608  1.0000
  C   C188      1.0  0.2701922131144445  0.27937771965250424  0.8189333025226931  1.0000
  C   C189      1.0  0.2847252871174297  0.28728881514995397  0.8464265719690515  1.0000
  C   C190      1.0  0.2988492575333298  0.30451447775131574  0.8326712176380595  1.0000
  C   C191      1.0  0.29829192835905727  0.31414790313865393  0.7915471730189733  1.0000
  C   C192      1.0  0.2836169620988622  0.3066867223958428  0.7642125353564511  1.0000
  H   H125      1.0  0.25935701208605627  0.26579630128927856  0.829538814958786  1.0000
  H   H126      1.0  0.2850755993298124  0.27976726918631545  0.878107988009147  1.0000
  H   H127      1.0  0.30915666681934784  0.3275843740797798  0.7808375306018384  1.0000
  H   H128      1.0  0.2832176714048275  0.31436890408852336  0.7326239494419733  1.0000
  Fe  Fe65      1.0  0.24850131383545115  0.8392685797275554  0.6260145140873868  1.0000
  S   S129      1.0  0.27181560320706954  0.8039190562864215  0.6279339740677755  1.0000
  S   S130      1.0  0.24335250662802219  0.8772965487009531  0.5765821643804648  1.0000
  Fe  Fe66      1.0  0.23124783964886697  0.8044949189766638  0.6947332469020768  1.0000
  S   S131      1.0  0.25297333976283193  0.7654939341523254  0.7015243846525366  1.0000
  S   S132      1.0  0.20892919864520354  0.8099540917672112  0.7365991876160288  1.0000
  Fe  Fe67      1.0  0.27150327738914515  0.8067833327601334  0.6960976519556601  1.0000
  S   S133      1.0  0.296040630605324  0.8176886360936401  0.7371395888920841  1.0000
  Fe  Fe68      1.0  0.2512305771179707  0.7662081332503431  0.6326022227421831  1.0000
  S   S134      1.0  0.24759113406767239  0.7263032321620169  0.5865151176186448  1.0000
  S   S135      1.0  0.24987693670323866  0.8457154638699526  0.6936531315707277  1.0000
  S   S136      1.0  0.22775754529710984  0.8016380247499041  0.6267751508447593  1.0000
  Fe  Fe69      1.0  0.3152858729245616  0.06875594645763594  0.4560151044655749  1.0000
  S   S137      1.0  0.30915493062618715  0.017560653860642095  0.44008539207321407  1.0000
  S   S138      1.0  0.33968183900620147  0.09452257708562439  0.43794379146604767  1.0000
  Fe  Fe70      1.0  0.30451651740341773  0.5976445023252693  0.4878176578446903  1.0000
  S   S139      1.0  0.2779855922691881  0.5884936729225323  0.4538141604525582  1.0000
  S   S140      1.0  0.3107352892528565  0.6316354497215373  0.5401318584213285  1.0000
  Fe  Fe71      1.0  0.29898040070032283  0.013872857073793154  0.5021242881044643  1.0000
  S   S141      1.0  0.30547475971916355  0.9730529473637055  0.5477709398205368  1.0000
  Fe  Fe72      1.0  0.2933904212892296  0.5849524457587051  0.3982450419256229  1.0000
  S   S142      1.0  0.2841419035316691  0.6105894789402597  0.3389038238575888  1.0000
  S   S143      1.0  0.307855106742318  0.0633210277551568  0.5203836842482825  1.0000
  S   S144      1.0  0.31938815991753994  0.5989037074940818  0.4314379503723416  1.0000
  Fe  Fe73      1.0  0.7923297888585059  0.749836634364259  0.3972569532612785  1.0000
  S   S145      1.0  0.8052300737930439  0.7172811716078425  0.4473047130589111  1.0000
  S   S146      1.0  0.7862112738118884  0.7274952268708517  0.3357896811680352  1.0000
  Fe  Fe74      1.0  0.7901909426797777  0.8077113425031487  0.4530530005372618  1.0000
  S   S147      1.0  0.802519945938662  0.7795223006421123  0.5071987435528332  1.0000
  S   S148      1.0  0.7835454635636913  0.8611166758479678  0.4563734749062663  1.0000
  Fe  Fe75      1.0  0.821831904628266  0.7600825426883369  0.464176313810756  1.0000
  S   S149      1.0  0.8510416716266073  0.75757658354366  0.4879339344595149  1.0000
  Fe  Fe76      1.0  0.7846955991671815  0.73984741090596  0.48498319570763754  1.0000
  S   S150      1.0  0.7672690092116126  0.7151457480365103  0.5276108782169953  1.0000
  S   S151      1.0  0.8105851800993077  0.7908416825285738  0.41088518624171777  1.0000
  S   S152      1.0  0.7706587581224535  0.7697613479721596  0.43388105386712106  1.0000
  Fe  Fe77      1.0  0.7519886875113037  0.5399912492001689  0.5793620597640247  1.0000
  S   S153      1.0  0.7736235304217534  0.011163133035890782  0.6471435054707656  1.0000
  S   S154      1.0  0.7583206388579631  0.563684389817733  0.5202420062787475  1.0000
  Fe  Fe78      1.0  0.7231895268014412  0.009016881811268584  0.6087272690279946  1.0000
  S   S155      1.0  0.7346798409240431  0.981744176842656  0.6646806338477672  1.0000
  S   S156      1.0  0.6946226222553004  0.0012819653311775259  0.5833879523995942  1.0000
  Fe  Fe79      1.0  0.7496967766544724  0.0267824663489169  0.6794699691200176  1.0000
  S   S157      1.0  0.7879798638986533  0.5344094803709525  0.7147934644603724  1.0000
  Fe  Fe80      1.0  0.757541340053285  0.9686953754762886  0.6272768687619255  1.0000
  S   S158      1.0  0.7686345219588414  0.9174057291211614  0.6290753758500871  1.0000
  S   S159      1.0  0.7491565746423339  0.5635201742448758  0.6396153331638745  1.0000
  S   S160      1.0  0.7450923959000241  0.992909850038289  0.570137608818688  1.0000
  Fe  Fe81      1.0  0.9666532159239895  0.749414001343723  0.387627449441416  1.0000
  S   S161      1.0  0.9493241471071893  0.7635988902119022  0.43756775984963914  1.0000
  S   S162      1.0  0.9689271514865736  0.6956486031605834  0.37680596496947794  1.0000
  Fe  Fe82      1.0  0.9744776216390303  0.819556619357262  0.36822393636645046  1.0000
  S   S163      1.0  0.9572651498166616  0.8389801947008205  0.4156002190301841  1.0000
  S   S164      1.0  0.9908797686775738  0.8517960685668299  0.3310140268684468  1.0000
  Fe  Fe83      1.0  0.9704917328121005  0.7990963122562078  0.45572845158694963  1.0000
  S   S165      1.0  0.9795726315372982  0.8108408388142714  0.5214103539757767  1.0000
  Fe  Fe84      1.0  0.9378505754706497  0.801639298141073  0.39305559437278037  1.0000
  S   S166      1.0  0.9083284570452143  0.8098053773820142  0.3746411324637101  1.0000
  S   S167      1.0  0.9889064619916863  0.78169773216093  0.4095759740228634  1.0000
  S   S168      1.0  0.9540159205655084  0.7855643999779737  0.3419419564565461  1.0000
  Fe  Fe85      1.0  0.11114918069949543  0.7689950948234175  0.691759756552416  1.0000
  S   S169      1.0  0.10561995140085152  0.7936443178823173  0.7498389156662705  1.0000
  S   S170      1.0  0.1367896837226082  0.7428563687156058  0.6784287789830262  1.0000
  Fe  Fe86      1.0  0.07401029425703104  0.7867773060143354  0.6500511535288596  1.0000
  S   S171      1.0  0.06524061313895294  0.813441497145347  0.7047452226063038  1.0000
  S   S172      1.0  0.059840279350262836  0.7759592059696099  0.5883793484501788  1.0000
  Fe  Fe87      1.0  0.09292843986366396  0.8334608596661179  0.7093287443035374  1.0000
  S   S173      1.0  0.10185730692625113  0.8844683101871591  0.7204735705771385  1.0000
  Fe  Fe88      1.0  0.07865054644432196  0.7713736827176009  0.7409015836034384  1.0000
  S   S174      1.0  0.06700987550768514  0.7500920594543987  0.7959180435781842  1.0000
  S   S175      1.0  0.10057109288412867  0.8103110198982865  0.6514918939571522  1.0000
  S   S176      1.0  0.08525362303837283  0.7432202242264817  0.6860590359838477  1.0000
  Fe  Fe89      1.0  0.2372374142646488  0.5385615549831949  0.1460692173504476  1.0000
  S   S177      1.0  0.2572456351835245  0.5337566976721463  0.09927794119976961  1.0000
  S   S178      1.0  0.24082584095091186  0.5226427575694983  0.21187468611764892  1.0000
  Fe  Fe90      1.0  0.206989422779749  0.5613007279687232  0.08551140100751954  1.0000
  S   S179      1.0  0.22390289915772138  0.5586868858891287  0.032514412798653414  1.0000
  S   S180      1.0  0.17768178600461693  0.5746766705491207  0.08786342657079049  1.0000
  Fe  Fe91      1.0  0.24233135505549175  0.017747903300660894  0.10737758855598564  1.0000
  S   S181      1.0  0.24995999678546793  0.9653930850467167  0.12024576584025175  1.0000
  Fe  Fe92      1.0  0.24509263973895107  0.5808900676902533  0.07434852845725204  1.0000
  S   S182      1.0  0.2633112825745035  0.6134723440330161  0.04329027372152705  1.0000
  S   S183      1.0  0.2188904022877399  0.0427389657694115  0.13398365541588805  1.0000
  S   S184      1.0  0.22720692278442925  0.5881958846918828  0.1253243201672205  1.0000
  Fe  Fe93      1.0  0.303143602303836  0.7773221826133925  0.9636464787400455  1.0000
  S   S185      1.0  0.2789117044781504  0.8059399964552038  0.9798730621436152  1.0000
  S   S186      1.0  0.300703611368983  0.7457716992792439  0.9082699004704672  1.0000
  Fe  Fe94      1.0  0.32445898676432017  0.7919508294855616  0.04454461674702448  1.0000
  S   S187      1.0  0.3018139881461627  0.8218618488732844  0.06692195753239095  1.0000
  S   S188      1.0  0.34772221576202217  0.7753662708179686  0.08872700843374148  1.0000
  Fe  Fe95      1.0  0.284213836139901  0.782958274506589  0.04167768626816537  1.0000
  S   S189      1.0  0.26272664902915144  0.7626717136034383  0.07748720886984839  1.0000
  Fe  Fe96      1.0  0.2987919137127463  0.8422371238613876  0.002987123452587115  1.0000
  S   S190      1.0  0.29152075142070544  0.8942150195676657  0.9863704231605418  1.0000
  S   S191      1.0  0.30695856590587917  0.7514619551259243  0.023964652280929366  1.0000
  S   S192      1.0  0.322945451243487  0.8153016878601407  0.981990280559284  1.0000
  Fe  Fe97      1.0  0.962395028539417  0.011526291391380505  0.21124691430436418  1.0000
  S   S193      1.0  0.9904359135023274  0.027545112403368766  0.2057589887097768  1.0000
  S   S194      1.0  0.9506911371686048  0.9794948577857822  0.2576058011012805  1.0000
  Fe  Fe98      1.0  0.9464837827476629  0.0540412475537968  0.14108694204945946  1.0000
  S   S195      1.0  0.9510542675612753  0.5716693742801449  0.12970353449482852  1.0000
  S   S196      1.0  0.9065576199218038  0.5298631391400428  0.16602902507947623  1.0000
  Fe  Fe99      1.0  0.9838144616642844  0.0233936106964443  0.13794808687151608  1.0000
  S   S197      1.0  0.005078182244527163  0.0011895486639896813  0.10089201939564592  1.0000
  Fe  Fe100     1.0  0.9649253943711691  0.5867060317145649  0.18940643647597474  1.0000
  S   S198      1.0  0.9686707997157438  0.6403948134400952  0.19733712976656298  1.0000
  S   S199      1.0  0.9567504743536194  0.0024856146465555007  0.1442003637441419  1.0000
  S   S200      1.0  0.9506131920583971  0.062248648615800484  0.2083834481853329  1.0000
  Fe  Fe101     1.0  0.07308299632557863  0.012486552443644383  0.8741703907104806  1.0000
  S   S201      1.0  0.06175639746015517  0.06359141240337607  0.8724408823435443  1.0000
  S   S202      1.0  0.059742216811437564  0.9705528605865992  0.8418033246670024  1.0000
  Fe  Fe102     1.0  0.10299112514393213  0.026510926897479692  0.938986597972186  1.0000
  S   S203      1.0  0.08100437147369206  0.5962134532552201  0.9223441252654877  1.0000
  S   S204      1.0  0.1316223801417384  0.5685625850767742  0.9175233737030083  1.0000
  Fe  Fe103     1.0  0.06627562905491884  0.06098647976633531  0.9410163959336753  1.0000
  S   S205      1.0  0.046530526332569454  0.0862140168107366  0.9797747715664784  1.0000
  Fe  Fe104     1.0  0.06731573729194312  0.5726691002877737  0.8676412071687255  1.0000
  S   S206      1.0  0.05719773925487237  0.5990701770503429  0.8093210502765406  1.0000
  S   S207      1.0  0.07518607599150383  0.008809387752992004  0.9426389729309923  1.0000
  S   S208      1.0  0.10156198018666446  0.02676082292840376  0.8705583480656052  1.0000
  Fe  Fe105     1.0  0.7410062172699378  0.7978677209638547  0.13829538424681573  1.0000
  S   S209      1.0  0.7604872608888738  0.7679871374089237  0.1050832044215643  1.0000
  S   S210      1.0  0.7470783965885459  0.8202821270600293  0.19987501339511232  1.0000
  Fe  Fe106     1.0  0.7121864804559329  0.7978244397641129  0.066820280685173  1.0000
  S   S211      1.0  0.729254372614143  0.7682158299932808  0.02726398676031061  1.0000
  S   S212      1.0  0.684018312941415  0.8172968013353087  0.05122514162434255  1.0000
  Fe  Fe107     1.0  0.736623572812797  0.7390324107657518  0.08461293209102372  1.0000
  S   S213      1.0  0.7354557884581563  0.6847446939252485  0.08645001701906734  1.0000
  Fe  Fe108     1.0  0.7514514883528028  0.8000150202692992  0.05102447689513511  1.0000
  S   S214      1.0  0.772293714672031  0.8203009136535845  0.01302527512495022  1.0000
  S   S215      1.0  0.7178222490930172  0.7663721344342848  0.1225707778264001  1.0000
  S   S216      1.0  0.7337319775940351  0.8320837147253654  0.08591080261376804  1.0000
  Fe  Fe109     1.0  0.7959679717520174  0.5019050451664898  0.9449788551320951  1.0000
  S   S217      1.0  0.7791751071340315  0.5241381287098196  0.9913551930278355  1.0000
  S   S218      1.0  0.7809042424571587  0.4778374191801408  0.8919419660470652  1.0000
  Fe  Fe110     1.0  0.8310405949630406  0.5133387782501068  0.9972227824709091  1.0000
  S   S219      1.0  0.8166764439241754  0.5353064783837654  0.04788290138163554  1.0000
  S   S220      1.0  0.8612147408051974  0.5124001821252784  0.9967810749971534  1.0000
  Fe  Fe111     1.0  0.7960079943060565  0.9987385739014158  0.9982817357233978  1.0000
  S   S221      1.0  0.7707611277892045  0.9729374556894332  0.008684523272279865  1.0000
  Fe  Fe112     1.0  0.8000195225635731  0.5618610076162055  0.9976038038371017  1.0000
  S   S222      1.0  0.7975436590969666  0.6162723174632183  0.9964477343933704  1.0000
  S   S223      1.0  0.8186273097447219  0.9782225274510485  0.9651703549779508  1.0000
  S   S224      1.0  0.8153430763768622  0.5419841604821835  0.94718341831406  1.0000
  Fe  Fe113     1.0  0.6049235444307239  0.7586344964871257  0.9154911239386385  1.0000
  S   S225      1.0  0.5874178521079515  0.7924782186306546  0.9492605752369992  1.0000
  S   S226      1.0  0.6327880966844566  0.737260749583224  0.9312031720396143  1.0000
  Fe  Fe114     1.0  0.5777154019635473  0.7539255073796896  0.8423644327905256  1.0000
  S   S227      1.0  0.5578932287623829  0.7880375377868414  0.8683986348562934  1.0000
  S   S228      1.0  0.5742004457888977  0.7326441122373006  0.7793189600950254  1.0000
  Fe  Fe115     1.0  0.5815949416948305  0.8174375042670363  0.8881438569939872  1.0000
  S   S229      1.0  0.580144733719868  0.871946916284043  0.8863488566400599  1.0000
  Fe  Fe116     1.0  0.5648903911489448  0.7608461804157899  0.9273085223147529  1.0000
  S   S230      1.0  0.5416571431783427  0.744617522635915  0.9609587978150111  1.0000
  S   S231      1.0  0.6008636595564338  0.7862285549999953  0.856253843956523  1.0000
  S   S232      1.0  0.582939405956127  0.7243188114543586  0.8997259802088607  1.0000
  Fe  Fe117     1.0  0.44562906852102546  0.821464013075928  0.12254642856141339  1.0000
  S   S233      1.0  0.46726990410615327  0.8541648500158298  0.14653583904934436  1.0000
  S   S234      1.0  0.42154782942272584  0.8457411571851632  0.08750823086126837  1.0000
  Fe  Fe118     1.0  0.4650911158394163  0.7615523664830887  0.1613008451659358  1.0000
  S   S235      1.0  0.4879055979231577  0.7895857561837673  0.18962096112210577  1.0000
  S   S236      1.0  0.4635458236945747  0.707219702054459  0.16554553053282642  1.0000
  Fe  Fe119     1.0  0.46666061575187673  0.8260766493800441  0.20483140441426997  1.0000
  S   S237      1.0  0.4631027647799269  0.8489203089283432  0.2657066528206985  1.0000
  Fe  Fe120     1.0  0.4865020102122024  0.8151958279737712  0.1285724989489364  1.0000
  S   S238      1.0  0.5125312983435831  0.8277744214887748  0.10282202658074625  1.0000
  S   S239      1.0  0.443879053991303  0.7954362366628925  0.1820337393255648  1.0000
  S   S240      1.0  0.4648885857482008  0.7848826390367688  0.09896163245560037  1.0000
  Fe  Fe121     1.0  0.5728816864315779  0.0596357693606866  0.7309476277553327  1.0000
  S   S241      1.0  0.5846067225945971  0.5803483811319124  0.644233829325243  1.0000
  S   S242      1.0  0.5837481880409563  0.5808055724782261  0.7683882822446821  1.0000
  Fe  Fe122     1.0  0.5756653576667096  0.9898791614990144  0.7031499536400132  1.0000
  S   S243      1.0  0.5914127854010415  0.002464362076897597  0.6502120829171322  1.0000
  S   S244      1.0  0.5707791363982743  0.9367345467280318  0.7103079007876882  1.0000
  Fe  Fe123     1.0  0.606592352321694  0.034462212558268535  0.6941737370360613  1.0000
  S   S245      1.0  0.6364560451367927  0.04034292098737491  0.7050915552709337  1.0000
  Fe  Fe124     1.0  0.5714868786166536  0.044239963560871454  0.6402936802455297  1.0000
  S   S246      1.0  0.5621765447081325  0.06157537805958979  0.5760313859852926  1.0000
  S   S247      1.0  0.592493428267964  0.018595652719071376  0.7481154798917324  1.0000
  S   S248      1.0  0.554543869721423  0.029388688369261562  0.6901716406105585  1.0000
  Fe  Fe125     1.0  0.43540845833006125  0.033208794425368504  0.39328533124380627  1.0000
  S   S249      1.0  0.44315565835194026  0.054352536326491174  0.3342513535946156  1.0000
  S   S250      1.0  0.40937704185489937  0.010553551360951818  0.40602681783327293  1.0000
  Fe  Fe126     1.0  0.4730198521206945  0.03687202096390907  0.43621303731056094  1.0000
  S   S251      1.0  0.4842841038118309  0.05800275725102355  0.380951392048392  1.0000
  S   S252      1.0  0.48512577926859507  0.022064921063808196  0.49951412802684647  1.0000
  Fe  Fe127     1.0  0.4589275512815722  0.08887106276344814  0.3741771702547167  1.0000
  S   S253      1.0  0.4914005797890982  0.6322050715732486  0.3284996791165922  1.0000
  Fe  Fe128     1.0  0.46785470307002985  0.022016439071373295  0.34456268620675173  1.0000
  S   S254      1.0  0.47877345238863894  0.9975631116262138  0.2900923798102804  1.0000
  S   S255      1.0  0.4696355894308622  0.5794915883834366  0.4034274304760167  1.0000
  S   S256      1.0  0.45893731309847546  0.9980132871049234  0.4002363151122561  1.0000
  C   C193      1.0  0.540749328582708  0.050486054543893655  0.5548194812615175  1.0000
  C   C194      1.0  0.530033479112597  0.03050200932759961  0.5763283218685802  1.0000
  C   C195      1.0  0.5130634636610647  0.022025241484855185  0.5588848502744463  1.0000
  C   C196      1.0  0.5066383658852819  0.033346770335713316  0.5197685069426675  1.0000
  C   C197      1.0  0.5173489026070589  0.053302697279853595  0.4981272923646128  1.0000
  C   C198      1.0  0.5343526853692381  0.06182358577163849  0.515630922717948  1.0000
  H   H129      1.0  0.5348144280546502  0.02144049721535235  0.6063698682979801  1.0000
  H   H130      1.0  0.5049086195850134  0.006498409804594152  0.5757800847126802  1.0000
  H   H131      1.0  0.512516091688303  0.062216442384245285  0.46801657239047445  1.0000
  H   H132      1.0  0.542532341314757  0.07731103088721136  0.49877361304857026  1.0000
  C   C199      1.0  0.46793941001675016  0.8900304961302888  0.2722044414530838  1.0000
  C   C200      1.0  0.47709599686237225  0.9070174485883403  0.2438513100170507  1.0000
  C   C201      1.0  0.4803363087591654  0.9400236901581893  0.2495404491698981  1.0000
  C   C202      1.0  0.4744030577525852  0.9562130074830228  0.2834867762419744  1.0000
  C   C203      1.0  0.4651212608783216  0.9392208748868678  0.3115415886983352  1.0000
  C   C204      1.0  0.4620252287885001  0.906213801841596  0.30608063726952817  1.0000
  H   H133      1.0  0.4818937316420092  0.8946765681112437  0.21785799069558168  1.0000
  H   H134      1.0  0.4875835660720791  0.9529616572215284  0.22776363939766478  1.0000
  H   H135      1.0  0.46043356485670617  0.9513682067842295  0.3376754919578213  1.0000
  H   H136      1.0  0.45497171595015146  0.8932199910232178  0.3281826604707867  1.0000
  C   C205      1.0  0.47204198819098264  0.6867450541102159  0.21050816441842315  1.0000
  C   C206      1.0  0.480643149757442  0.703107216034844  0.24320598603057333  1.0000
  C   C207      1.0  0.4869081468131341  0.6860455915054311  0.27907832300989305  1.0000
  C   C208      1.0  0.4843113940874297  0.652752493389711  0.28260344144093824  1.0000
  C   C209      1.0  0.4758295667493422  0.6364036250023968  0.24981766481527276  1.0000
  C   C210      1.0  0.46984185440824117  0.6533378713940602  0.21373780086140076  1.0000
  H   H137      1.0  0.48232111818533346  0.7289040029211309  0.24104968574367683  1.0000
  H   H138      1.0  0.4934731352535804  0.6987995549485747  0.30440519467492566  1.0000
  H   H139      1.0  0.47392978819350595  0.6106615091630403  0.25214837489377845  1.0000
  H   H140      1.0  0.4632228188138692  0.6405630977996327  0.18847766341228855  1.0000
  C   C211      1.0  0.5769090849718463  0.8897998971399993  0.837415356217042  1.0000
  C   C212      1.0  0.5754867896792684  0.9235839719717267  0.8333606065120286  1.0000
  C   C213      1.0  0.5732179804487726  0.9383196789723723  0.7944475914656611  1.0000
  C   C214      1.0  0.5724405896236632  0.9192546339962674  0.7595118262550661  1.0000
  C   C215      1.0  0.5736114251247505  0.8854802111868115  0.7636483574967288  1.0000
  C   C216      1.0  0.5758556696396037  0.8707528096378276  0.8025064847191119  1.0000
  H   H141      1.0  0.5761955054710353  0.9384010242755392  0.8603385903625467  1.0000
  H   H142      1.0  0.572097970432562  0.9643803640927432  0.7914760812969218  1.0000
  H   H143      1.0  0.5728698131266097  0.870636655020686  0.7366746327556354  1.0000
  H   H144      1.0  0.5768063902009732  0.8446678352507128  0.8053744765328067  1.0000
  C   C217      1.0  0.5742994342851353  0.6901831002014722  0.7755231242675544  1.0000
  C   C218      1.0  0.5736127989413312  0.6704591167909786  0.8101153359356172  1.0000
  C   C219      1.0  0.5762117375648939  0.6368455661682682  0.8074174086096519  1.0000
  C   C220      1.0  0.5790700702151895  0.6226685474848538  0.7699022047265524  1.0000
  C   C221      1.0  0.5788718477420117  0.6421773949346171  0.734856803880521  1.0000
  C   C222      1.0  0.5765082453336792  0.6758868180078818  0.7376956486619011  1.0000
  H   H145      1.0  0.5712988993902456  0.6810666798151801  0.8390823729692866  1.0000
  H   H146      1.0  0.576115463145962  0.621846637245271  0.83454770022402  1.0000
  H   H147      1.0  0.580918819760269  0.631449060174506  0.7057213716174119  1.0000
  H   H148      1.0  0.5768283384459181  0.6909697720648472  0.7106787857733293  1.0000
  C   C223      1.0  0.5334733706274905  0.769829307362868  0.9982289770683842  1.0000
  C   C224      1.0  0.5153884090718968  0.7685588725644271  0.005932845194537295  1.0000
  C   C225      1.0  0.5085926428156701  0.7875437186059109  0.036614145916735286  1.0000
  C   C226      1.0  0.5200215068611835  0.8068844227143257  0.060818074753090576  1.0000
  C   C227      1.0  0.5380191671398337  0.8087499548696039  0.05245034358862014  1.0000
  C   C228      1.0  0.5447326351448757  0.7903721872036725  0.021056815378292848  1.0000
  H   H149      1.0  0.5065809186943538  0.7529871746974767  0.9879103796192604  1.0000
  H   H150      1.0  0.4945610831437661  0.7868356316827049  0.04190397535967483  1.0000
  H   H151      1.0  0.5468986515663395  0.8238657656896972  0.07097223447972459  1.0000
  H   H152      1.0  0.5587240444821753  0.7913500297768975  0.015381850980806577  1.0000
  C   C229      1.0  0.6702240626460387  0.7969712457538258  0.014784454254922474  1.0000
  C   C230      1.0  0.6771940873915941  0.7726313356698069  0.9908986781751067  1.0000
  C   C231      1.0  0.665615584939454  0.7548232812568427  0.9645843143727063  1.0000
  C   C232      1.0  0.6470934296334556  0.7615554446981115  0.9617918320424876  1.0000
  C   C233      1.0  0.640204186039092  0.786627362835133  0.9846020938697941  1.0000
  C   C234      1.0  0.651757270403242  0.8042491960432923  0.01112005029667995  1.0000
  H   H153      1.0  0.6914548203453623  0.7673484349255465  0.993014846722907  1.0000
  H   H154      1.0  0.6710072599021922  0.7357595743095359  0.9464694429925524  1.0000
  H   H155      1.0  0.6259470788278779  0.7920278081067297  0.9825588888411233  1.0000
  H   H156      1.0  0.6463292738826389  0.8231946431099548  0.02941413210539645  1.0000
  C   C235      1.0  0.7715606375983287  0.8626576157465642  0.008660412179571253  1.0000
  C   C236      1.0  0.7557437581791204  0.880435383538026  0.013726768194962213  1.0000
  C   C237      1.0  0.7556394432706068  0.9143016801943135  0.013159529546336923  1.0000
  C   C238      1.0  0.771335939204006  0.9305732279516699  0.007424352350485552  1.0000
  C   C239      1.0  0.7870803692909444  0.9128727091208304  0.0012155984728061675  1.0000
  C   C240      1.0  0.7871616534392151  0.8789179147886201  0.001676354998159102  1.0000
  H   H157      1.0  0.7435196946154818  0.8681060624298526  0.017728239328406392  1.0000
  H   H158      1.0  0.7433728554121853  0.92790792968406  0.017544111301011522  1.0000
  H   H159      1.0  0.7992774179670933  0.925199589495548  0.9970019273640439  1.0000
  H   H160      1.0  0.7994345154759869  0.865208816865971  0.9976961324012852  1.0000
  C   C241      1.0  0.7527143901776233  0.6656111555760066  0.061572991184482055  1.0000
  C   C242      1.0  0.7646572485208962  0.6839364777458112  0.04130664314098298  1.0000
  C   C243      1.0  0.7783463268957782  0.6684714142405531  0.021387085319106713  1.0000
  C   C244      1.0  0.7801704413244057  0.6346589823519152  0.02166271196527836  1.0000
  C   C245      1.0  0.7682216828640814  0.6162628393366594  0.041889139219950966  1.0000
  C   C246      1.0  0.7544749345622891  0.6317599065796744  0.06177759642617664  1.0000
  H   H161      1.0  0.7633628240935995  0.7100458045033697  0.040919643910753534  1.0000
  H   H162      1.0  0.7875419121141242  0.6827840570165276  0.005727308356539007  1.0000
  H   H163      1.0  0.7696143289585785  0.5901625103728684  0.04233638890091784  1.0000
  H   H164      1.0  0.7452974065192013  0.6175085105346589  0.07754921233828171  1.0000
  C   C247      1.0  0.015916867353297892  0.02482220338117025  0.0659411134502502  1.0000
  C   C248      1.0  0.010013447433425915  0.05647667251014865  0.05542466856771333  1.0000
  C   C249      1.0  0.019310213866609693  0.07490215870347927  0.02838858729968763  1.0000
  C   C250      1.0  0.03455421250371997  0.06182612873874338  0.011675351460997963  1.0000
  C   C251      1.0  0.04036773349846756  0.030116310094436605  0.02195033893725551  1.0000
  C   C252      1.0  0.03107083525094101  0.011705062379832043  0.048945111312612755  1.0000
  H   H165      1.0  0.9958596264027975  0.533392807140213  0.9926049179657228  1.0000
  H   H166      1.0  0.024809166142047756  0.5531550403046349  0.9719036488424507  1.0000
  H   H167      1.0  0.05215207102368693  0.01984498862848172  0.009553206768238454  1.0000
  H   H168      1.0  0.03570209404661256  0.987221836832828  0.05686978973421043  1.0000
  C   C253      1.0  0.8943629641602986  0.5240660281584731  0.1187630698960816  1.0000
  C   C254      1.0  0.8864310702177152  0.057308504617766376  0.08205276709059613  1.0000
  C   C255      1.0  0.873348041635294  0.036295165729834045  0.06630858464198469  1.0000
  C   C256      1.0  0.873931646895871  0.5154287293252016  0.044063443672469615  1.0000
  C   C257      1.0  0.8923860936663636  0.5205218439591658  0.04485558031904957  1.0000
  C   C258      1.0  0.9026059853957185  0.5248697976204107  0.08215409812796698  1.0000
  H   H169      1.0  0.8827673117867152  0.08235112265946709  0.0873109334625534  1.0000
  H   H170      1.0  0.8596600839379953  0.04518270480436426  0.0595145429906471  1.0000
  H   H171      1.0  0.8987670418836362  0.5213238820339954  0.01653246810896425  1.0000
  H   H172      1.0  0.9168155061597016  0.528913146231882  0.08255532835981923  1.0000
  C   C259      1.0  0.3681449954882275  0.7950518869060959  0.0873755874329265  1.0000
  C   C260      1.0  0.38341343087988805  0.7820887713159395  0.11021267483121235  1.0000
  C   C261      1.0  0.39989868262655537  0.7972396554790542  0.10995141872511965  1.0000
  C   C262      1.0  0.40115057016429434  0.8257140393681236  0.08726606447491367  1.0000
  C   C263      1.0  0.3858472974687922  0.838863700241478  0.06467558850248056  1.0000
  C   C264      1.0  0.36937992080000953  0.8234683228458559  0.06451546327869  1.0000
  H   H173      1.0  0.382542158248271  0.7600355249601631  0.127776577806469  1.0000
  H   H174      1.0  0.4116306989892178  0.786694765548571  0.12704001072049348  1.0000
  H   H175      1.0  0.38676207744234764  0.8608185121703761  0.04692583821077023  1.0000
  H   H176      1.0  0.35766308917378975  0.8335837147101411  0.046786261049939215  1.0000
  C   C265      1.0  0.1648281721476183  0.5726154945899299  0.040560110421426376  1.0000
  C   C266      1.0  0.17282885738775755  0.02984651702201968  0.031032425004800634  1.0000
  C   C267      1.0  0.15825215294432782  0.010751172978867185  0.018070998432727414  1.0000
  C   C268      1.0  0.14408286997414657  0.5697221588900582  0.9652513983156402  1.0000
  C   C269      1.0  0.13569523031935854  0.5704212623290101  0.0017225783505978587  1.0000
  C   C270      1.0  0.1460678475524217  0.5721213606587362  0.03932836862209399  1.0000
  H   H177      1.0  0.18374203294803174  0.01976682954916864  0.051394872517009915  1.0000
  H   H178      1.0  0.15798729880239842  0.9859325240909643  0.02854113839393757  1.0000
  H   H179      1.0  0.12124385128052192  0.5698919326859778  0.0009649270439238133  1.0000
  H   H180      1.0  0.13954857681436905  0.5727974083315034  0.06746126512617412  1.0000
  C   C271      1.0  0.26188255700055  0.9468828242253965  0.08280186769275932  1.0000
  C   C272      1.0  0.2572985272703194  0.9533972251235808  0.041352051461465145  1.0000
  C   C273      1.0  0.266408864030162  0.9369693860521213  0.01176802727140136  1.0000
  C   C274      1.0  0.2800991971875021  0.9141135626313689  0.023615055489616843  1.0000
  C   C275      1.0  0.28489649828440605  0.9080924100012635  0.06506422004878867  1.0000
  C   C276      1.0  0.2756877543130791  0.9242616618444256  0.09462467166988968  1.0000
  H   H181      1.0  0.24645842239719912  0.9705033683006175  0.032086887737691416  1.0000
  H   H182      1.0  0.2627045578167977  0.9416784943312622  0.9796559681696988  1.0000
  H   H183      1.0  0.2958285848742617  0.8912268671702899  0.07437976992869459  1.0000
  H   H184      1.0  0.2793447913854444  0.9193979539837737  0.12672792210182252  1.0000
  C   C277      1.0  0.26029617459990784  0.7217660770534121  0.06537954746507868  1.0000
  C   C278      1.0  0.2672068969299468  0.7096099135999512  0.03024459782010691  1.0000
  C   C279      1.0  0.26742373067147923  0.6763565541178056  0.02301461470594246  1.0000
  C   C280      1.0  0.2603793263121513  0.6551320564023242  0.05043396266179437  1.0000
  C   C281      1.0  0.2526145531877199  0.6673472239976622  0.08463675828412427  1.0000
  C   C282      1.0  0.252617522460254  0.7007345946208642  0.09216623379161316  1.0000
  H   H185      1.0  0.27254947069509966  0.7257640869264931  0.00863693015422573  1.0000
  H   H186      1.0  0.27333513287215105  0.6670469102224356  0.9963787288982414  1.0000
  H   H187      1.0  0.24722361017860536  0.6509985520833294  0.10599903654976524  1.0000
  H   H188      1.0  0.24717761791733908  0.7100700237239861  0.11932568157838572  1.0000
  C   C283      1.0  0.06477027416099701  0.7079866044035188  0.7994431526062095  1.0000
  C   C284      1.0  0.062313549445831035  0.6937479101535564  0.8374003466794312  1.0000
  C   C285      1.0  0.06028184208717336  0.6602232562240237  0.8409359829951064  1.0000
  C   C286      1.0  0.06026942022885484  0.6409255237939449  0.8062929368978903  1.0000
  C   C287      1.0  0.06266136760718302  0.6551654418538538  0.7683097283720264  1.0000
  C   C288      1.0  0.06517476015819387  0.6885356182748124  0.7650066659333599  1.0000
  H   H189      1.0  0.06192851707060343  0.7087061049459127  0.8641464421056777  1.0000
  H   H190      1.0  0.058251287846919866  0.6494466925609645  0.8702551706480414  1.0000
  H   H191      1.0  0.06275943382561137  0.6402331590317504  0.7414883284064614  1.0000
  H   H192      1.0  0.06728135470330113  0.6991884060239485  0.7358422622560186  1.0000
  C   C289      1.0  0.0900156068280592  0.9082282864560097  0.7540823593224172  1.0000
  C   C290      1.0  0.09641752924430343  0.9385295791624426  0.7657592455408246  1.0000
  C   C291      1.0  0.08718139719718235  0.9580140986934009  0.7924157124233794  1.0000
  C   C292      1.0  0.07141031104888511  0.947365578196252  0.807271170333793  1.0000
  C   C293      1.0  0.06498203671794185  0.9171218079894873  0.7954397400632989  1.0000
  C   C294      1.0  0.07433586426770615  0.8974585605396148  0.7692147068949663  1.0000
  H   H193      1.0  0.10848500139938856  0.9470800114291879  0.7539584149050671  1.0000
  H   H194      1.0  0.09212484471914502  0.9814402587032985  0.8009659727046217  1.0000
  H   H195      1.0  0.052754463726242116  0.9088000939168175  0.8067541506870158  1.0000
  H   H196      1.0  0.06927396109181642  0.8741798861036968  0.7603191559235266  1.0000
  C   C295      1.0  0.9690982212071578  0.6808398628862314  0.3267061965899378  1.0000
  C   C296      1.0  0.9694380167055509  0.7016772456212858  0.293013749021164  1.0000
  C   C297      1.0  0.9692642854399791  0.6890315082122268  0.2534241741803046  1.0000
  C   C298      1.0  0.9686728428865504  0.6555526330080435  0.24730395900790997  1.0000
  C   C299      1.0  0.9682341373786566  0.6347620462156143  0.28098611560352227  1.0000
  C   C300      1.0  0.9684863315990752  0.6473896176203369  0.32055281487576437  1.0000
  H   H197      1.0  0.9700409978733325  0.7274770890920904  0.2974404898418501  1.0000
  H   H198      1.0  0.9696642059264988  0.7052417817458096  0.2275044949641645  1.0000
  H   H199      1.0  0.967922632201459  0.6089193312297415  0.2766512335439851  1.0000
  H   H200      1.0  0.9682894881699311  0.6311328411313993  0.34650603791970835  1.0000
  C   C301      1.0  0.979584542017638  0.8869142748110378  0.3097918974681962  1.0000
  C   C302      1.0  0.9883854039446062  0.9075944373061451  0.28449898750253705  1.0000
  C   C303      1.0  0.9796444679240264  0.935977990592818  0.2678563533772471  1.0000
  C   C304      1.0  0.9621214029129599  0.9439024527839762  0.276844691676143  1.0000
  C   C305      1.0  0.953357920105039  0.9232132243701301  0.3021309358168283  1.0000
  C   C306      1.0  0.9620110755112455  0.8947372677789736  0.31837803538570114  1.0000
  H   H201      1.0  0.0019553798860165728  0.9015964090460552  0.27759105851245813  1.0000
  H   H202      1.0  0.9864825517506862  0.9517695097348762  0.24831585289042363  1.0000
  H   H203      1.0  0.9398164520337858  0.9291938067839137  0.3092289555120903  1.0000
  H   H204      1.0  0.9550661532362901  0.8788990474058822  0.3375901587422013  1.0000
  C   C307      1.0  0.0019448313425851627  0.8015090235824277  0.5399132935506007  1.0000
  C   C308      1.0  0.012921611029402591  0.7813859724102988  0.5181127367467815  1.0000
  C   C309      1.0  0.030717014417987132  0.7743309577432502  0.5332069116037153  1.0000
  C   C310      1.0  0.03768415136805629  0.7871540559656921  0.570320317720524  1.0000
  C   C311      1.0  0.026773656589896385  0.8074426435552584  0.5922064914918547  1.0000
  C   C312      1.0  0.008907565642620074  0.8144972989005479  0.5770346420528405  1.0000
  H   H205      1.0  0.0076170844155052375  0.7707002430354803  0.4899930966220021  1.0000
  H   H206      1.0  0.03905422984415674  0.7584002911898574  0.5163036789337435  1.0000
  H   H207      1.0  0.032059993540421924  0.817653330107893  0.6207168808408695  1.0000
  H   H208      1.0  0.00046178019803799764  0.8301626488090239  0.5940045061700618  1.0000
  C   C313      1.0  0.6783587005720857  0.01145487996784067  0.617294880909618  1.0000
  C   C314      1.0  0.660232845625697  0.00505272720438299  0.6070579493029485  1.0000
  C   C315      1.0  0.6471644673974479  0.013281892187781752  0.6339532935409073  1.0000
  C   C316      1.0  0.6522050485911103  0.028353959260027928  0.6708590191573005  1.0000
  C   C317      1.0  0.6703045907257208  0.034531017500055716  0.6810548684728492  1.0000
  C   C318      1.0  0.6833482586836115  0.026035972736806023  0.6544732745093023  1.0000
  H   H209      1.0  0.6563327800448899  0.9935934423267508  0.5783955309078319  1.0000
  H   H210      1.0  0.6332558395304853  0.008076281668911944  0.626155364687796  1.0000
  H   H211      1.0  0.6742822211630676  0.046134775362467684  0.7096033470617257  1.0000
  H   H212      1.0  0.6904922084682971  0.5271182355771463  0.5993174456766784  1.0000
  C   C319      1.0  0.7870056245849245  0.51690397998078  0.7634803260829878  1.0000
  C   C320      1.0  0.796347873100942  0.5308221372559307  0.7972642752011441  1.0000
  C   C321      1.0  0.7946589631664001  0.5188933774142832  0.8368589983971758  1.0000
  C   C322      1.0  0.7837678001054382  0.492756577060397  0.8427409096010802  1.0000
  C   C323      1.0  0.8000942715816937  0.01657676619278936  0.7908116895987416  1.0000
  C   C324      1.0  0.7848192663568367  0.022304623611047347  0.7635567412514989  1.0000
  H   H213      1.0  0.804752050996568  0.5511215899384967  0.7928561841043286  1.0000
  H   H214      1.0  0.8017941934397894  0.5299159414507737  0.8627336275684758  1.0000
  H   H215      1.0  0.8110616891546955  0.0013518967399190895  0.7817562180822606  1.0000
  H   H216      1.0  0.7840660006704623  0.011342668604433559  0.7338372400220033  1.0000
  C   C325      1.0  0.8669913472778423  0.7709101082412493  0.455686960348523  1.0000
  C   C326      1.0  0.8850074387174488  0.7722338534843873  0.47092411874824675  1.0000
  C   C327      1.0  0.8978620047215874  0.7841463541820013  0.4463703457323754  1.0000
  C   C328      1.0  0.8927005229966685  0.7948774732823342  0.40650030405200066  1.0000
  C   C329      1.0  0.8747101100106068  0.7934598087978028  0.3912558755492816  1.0000
  C   C330      1.0  0.8619131833742494  0.7812776705099845  0.41564995010317707  1.0000
  H   H217      1.0  0.8890160456101798  0.7642368035745664  0.5019092193774598  1.0000
  H   H218      1.0  0.9116969891700023  0.7853730635692593  0.4584647552722895  1.0000
  H   H219      1.0  0.8706743319428445  0.801620160225926  0.360351196434716  1.0000
  H   H220      1.0  0.8481512923488945  0.7798924607512787  0.4033669441925848  1.0000
  C   C331      1.0  0.7797528530161442  0.8763480368386631  0.5047399967963132  1.0000
  C   C332      1.0  0.7784078683800966  0.855688016807885  0.5382167513701376  1.0000
  C   C333      1.0  0.7754000739044956  0.8685118231230975  0.576539865660025  1.0000
  C   C334      1.0  0.773508356007009  0.9020013836543634  0.5814395932344395  1.0000
  C   C335      1.0  0.7748665542218343  0.9226559015179107  0.5479658279800138  1.0000
  C   C336      1.0  0.7779643148398845  0.9098464042115378  0.509709598197052  1.0000
  H   H221      1.0  0.7793979498959094  0.8298167706636627  0.5345812808218737  1.0000
  H   H222      1.0  0.7742714706030176  0.8524057707214728  0.6023002151031229  1.0000
  H   H223      1.0  0.7738284389596338  0.9485324697886015  0.5516463067005354  1.0000
  H   H224      1.0  0.7790665193943606  0.9259579021292137  0.4839476458227076  1.0000
  C   C337      1.0  0.7658770718294446  0.6727989942448768  0.5266886765992981  1.0000
  C   C338      1.0  0.7548500561993357  0.6576867853845143  0.5529994702997484  1.0000
  C   C339      1.0  0.7527691006561147  0.6241211739622881  0.5517259088059114  1.0000
  C   C340      1.0  0.7615109828717213  0.6055378007211863  0.52367946970233  1.0000
  C   C341      1.0  0.7724799457137566  0.6206361107436228  0.49715724404235534  1.0000
  C   C342      1.0  0.7748659275396411  0.6541583762031804  0.49905880385867396  1.0000
  H   H225      1.0  0.7478411542414427  0.6720138472290811  0.5743689080709076  1.0000
  H   H226      1.0  0.7440961026541123  0.6127650678521964  0.5718818652798254  1.0000
  H   H227      1.0  0.7794090739922563  0.6062948077368273  0.4756852556241234  1.0000
  H   H228      1.0  0.7836072222055551  0.6655586475829114  0.47916372744125607  1.0000
  C   C343      1.0  0.7753904514980028  0.7535184229058638  0.29826563816788826  1.0000
  C   C344      1.0  0.7711229558186693  0.7856805439533374  0.307128436130191  1.0000
  C   C345      1.0  0.7623559575163753  0.806014932913564  0.276737771083654  1.0000
  C   C346      1.0  0.7578034327884138  0.7942265342024694  0.23751860508799422  1.0000
  C   C347      1.0  0.7619649149918752  0.7620026915803019  0.22876768168695877  1.0000
  C   C348      1.0  0.7707463675871016  0.7416838474405425  0.2591348698898242  1.0000
  H   H229      1.0  0.7746543690384883  0.7949475234089355  0.3372900607820112  1.0000
  H   H230      1.0  0.7591117442442512  0.8309156719086614  0.28363560544387556  1.0000
  H   H231      1.0  0.7584686087985273  0.7527271526995148  0.19860211330277158  1.0000
  H   H232      1.0  0.7740438810703787  0.7168115052050159  0.2521705947103989  1.0000
  C   C349      1.0  0.3590921866747486  0.07110755310064021  0.4294926955004133  1.0000
  C   C350      1.0  0.3744513034838931  0.08647140278563681  0.41847967320536694  1.0000
  C   C351      1.0  0.39000904977632495  0.06823509664272565  0.4110390865667564  1.0000
  C   C352      1.0  0.3901773484768692  0.03451086725112584  0.4142696750326429  1.0000
  C   C353      1.0  0.3748313355457175  0.01920451650427024  0.425265699499959  1.0000
  C   C354      1.0  0.35936019200837577  0.037418369522972394  0.4329686883328425  1.0000
  H   H233      1.0  0.3743440469776599  0.11256054367710133  0.41581138783133004  1.0000
  H   H234      1.0  0.40181088640136625  0.08024826354294778  0.40267407664125576  1.0000
  H   H235      1.0  0.3814647547377452  0.6115903879219166  0.3908767079268775  1.0000
  H   H236      1.0  0.3546188031398773  0.5827840011871013  0.4081237216821513  1.0000
  C   C355      1.0  0.2720942115804558  0.5862081695995893  0.3035210560752157  1.0000
  C   C356      1.0  0.2582211662953864  0.028751208398534622  0.2821664674428098  1.0000
  C   C357      1.0  0.2594220124245136  0.5769893908165236  0.2340103438143116  1.0000
  C   C358      1.0  0.253138230132569  0.5472834863918609  0.24635140247804516  1.0000
  C   C359      1.0  0.25614065129097874  0.537304618483751  0.2872716419160055  1.0000
  C   C360      1.0  0.26563274219393335  0.5566617889883116  0.31577249415758524  1.0000
  H   H237      1.0  0.26001396458082227  0.002958150375430124  0.2782189255797744  1.0000
  H   H238      1.0  0.24945384122625722  0.03795870014377578  0.21876885534016696  1.0000
  H   H239      1.0  0.2512094958971264  0.5144314788625717  0.29698045239479853  1.0000
  H   H240      1.0  0.2678408475502509  0.548770612533186  0.34728846322632206  1.0000
  C   C361      1.0  0.18932412814004107  0.7894750409317943  0.721769554410714  1.0000
  C   C362      1.0  0.17411225208207506  0.7946157834423597  0.7432518052497186  1.0000
  C   C363      1.0  0.1578795449242484  0.7804472657381547  0.7301437670036973  1.0000
  C   C364      1.0  0.15699351109558257  0.7602457654846423  0.6962528089658001  1.0000
  C   C365      1.0  0.17240314946216348  0.7541071339815916  0.6757614477101559  1.0000
  C   C366      1.0  0.1885059704944424  0.768964040886753  0.6882111732680477  1.0000
  H   H241      1.0  0.17478334895210193  0.8100963391948662  0.7696104103389532  1.0000
  H   H242      1.0  0.14611226918150344  0.7848938407033369  0.7464334275999588  1.0000
  H   H243      1.0  0.17179335517653394  0.7383083119470065  0.6496799480024085  1.0000
  H   H244      1.0  0.20024388382731065  0.7645441408483841  0.6717732251372737  1.0000
  C   C367      1.0  0.2608082613173591  0.9035349446158921  0.5690582505975689  1.0000
  C   C368      1.0  0.2768330941354846  0.9020018083836588  0.5942162241400931  1.0000
  C   C369      1.0  0.2905792818713222  0.9231857774880863  0.5871531828195145  1.0000
  C   C370      1.0  0.2883762196751571  0.9458343917780832  0.5548859351724977  1.0000
  C   C371      1.0  0.2724390541659173  0.9469577320442131  0.529476768154285  1.0000
  C   C372      1.0  0.2586761226606743  0.9259660856876426  0.5366498862778867  1.0000
  H   H245      1.0  0.27861592900715587  0.8846389867412089  0.6192094691094759  1.0000
  H   H246      1.0  0.3029270334009124  0.9220551909153282  0.6068004656147186  1.0000
  H   H247      1.0  0.27073324518885283  0.963767740720329  0.5040237358289431  1.0000
  H   H248      1.0  0.2463615645967207  0.9270674513613456  0.5168823866830442  1.0000
  C   C373      1.0  0.2655842239892693  0.7010283629037021  0.5738781803217304  1.0000
  C   C374      1.0  0.26298031122930215  0.6808065201723758  0.5400924774062249  1.0000
  C   C375      1.0  0.2769035100170702  0.660061456097479  0.529042311299837  1.0000
  C   C376      1.0  0.29344530019762083  0.6589429778559687  0.5521372948967331  1.0000
  C   C377      1.0  0.2961223111045131  0.6793706599437934  0.5857801137442086  1.0000
  C   C378      1.0  0.28224733256131185  0.7005618802006308  0.5965180337422783  1.0000
  H   H249      1.0  0.2501570166980585  0.681331910920674  0.5222409656778679  1.0000
  H   H250      1.0  0.2748339189592129  0.645055577442205  0.5025575982629223  1.0000
  H   H251      1.0  0.30892080760809676  0.6787203668472804  0.6037251909580618  1.0000
  H   H252      1.0  0.2843665975543268  0.7161468699976561  0.6225999179559968  1.0000
  C   C379      1.0  0.29855778850520304  0.7969473438465157  0.7842199226731285  1.0000
  C   C380      1.0  0.2945199750420013  0.7643045093602567  0.7868845498557991  1.0000
  C   C381      1.0  0.29578644000127235  0.7485162371432639  0.8250805808967354  1.0000
  C   C382      1.0  0.3008787969422763  0.7654062062015663  0.8607044043808956  1.0000
  C   C383      1.0  0.3050558395073325  0.7979860377326495  0.8580253689943984  1.0000
  C   C384      1.0  0.3041009723244367  0.8136218367712184  0.8197342610325753  1.0000
  H   H253      1.0  0.29041985079178945  0.7512668515852398  0.7595016030491056  1.0000
  H   H254      1.0  0.292588394986685  0.7232795305098684  0.8270967297826525  1.0000
  H   H255      1.0  0.3090368798727185  0.8111167827701108  0.8854115652103468  1.0000
  H   H256      1.0  0.3073353396431027  0.8388456745030115  0.8176928260748288  1.0000
  N   N1        1.0  0.25591824062688706  0.5723743746506756  0.5704788511984086  1.0000
  C   C385      1.0  0.24851033617827828  0.5421217109691489  0.5851864866216813  1.0000
  C   C386      1.0  0.2750784775630716  0.5667307274667858  0.5643929356365999  1.0000
  C   C387      1.0  0.2540643637388309  0.5981007408330278  0.6008723456141862  1.0000
  C   C388      1.0  0.2460725559561374  0.5824813170170536  0.5312950691745124  1.0000
  H   H257      1.0  0.23412123534997195  0.5454807643952343  0.5907023942518197  1.0000
  H   H258      1.0  0.25590557027368177  0.5332043934607144  0.6141417232963464  1.0000
  H   H259      1.0  0.24945950375049364  0.5224834395173316  0.5624162458944701  1.0000
  H   H260      1.0  0.28107901196014  0.5888620434697154  0.5526858635316363  1.0000
  H   H261      1.0  0.2829958610912849  0.5593305904224031  0.593331048199335  1.0000
  H   H262      1.0  0.2769317556764716  0.547227807640811  0.541979215824694  1.0000
  H   H263      1.0  0.2397541550684986  0.6034205977439552  0.6058344569144357  1.0000
  H   H264      1.0  0.25978526448907086  0.6211008344023621  0.5908022698540637  1.0000
  H   H265      1.0  0.2612174695349155  0.5911722096469981  0.6309052065990626  1.0000
  H   H266      1.0  0.2512236483947264  0.6053288271208269  0.5193728170578175  1.0000
  H   H267      1.0  0.23151803249413885  0.5865660506742331  0.5345894849147604  1.0000
  H   H268      1.0  0.24740501574529  0.5637566805713728  0.5074862028163175  1.0000
  N   N2        1.0  0.021446938887626388  0.8633964073036855  0.4407859394380554  1.0000
  C   C389      1.0  0.0020357567837661072  0.8644012269711602  0.44586318805563346  1.0000
  C   C390      1.0  0.02559795843700763  0.8904959458337803  0.41385964279598375  1.0000
  C   C391      1.0  0.02654217790620872  0.8324479365157723  0.4221384087514536  1.0000
  C   C392      1.0  0.03151209327437687  0.8661572249495497  0.481202828351181  1.0000
  H   H269      1.0  0.9940134196183831  0.8636060186332093  0.41588655699500393  1.0000
  H   H270      1.0  0.9977588327018878  0.8867917648543249  0.4613114531670564  1.0000
  H   H271      1.0  0.9982520075863274  0.843530417363259  0.46441862370382025  1.0000
  H   H272      1.0  0.018183756749957647  0.8887546384286475  0.3830666291110853  1.0000
  H   H273      1.0  0.021671620949552883  0.9142285478700715  0.4266435941191221  1.0000
  H   H274      1.0  0.04013923718366286  0.8906702709180473  0.4093101978280636  1.0000
  H   H275      1.0  0.04105665676757808  0.8310258548174987  0.4172793337930662  1.0000
  H   H276      1.0  0.01895611448833412  0.8293002375097303  0.3918663641047828  1.0000
  H   H277      1.0  0.023734890951199628  0.8114634836718186  0.4418047750738515  1.0000
  H   H278      1.0  0.04624062411409646  0.865041010114397  0.4787312083189848  1.0000
  H   H279      1.0  0.028404734052923875  0.8461643233476325  0.502222708853592  1.0000
  H   H280      1.0  0.028062641652710996  0.8892749294072257  0.4961452514108737  1.0000
  N   N3        1.0  0.10126436370714065  0.9145802529141684  0.9158558407984422  1.0000
  C   C393      1.0  0.11776353142438646  0.8945834447857324  0.9260096387132056  1.0000
  C   C394      1.0  0.0879666565067584  0.8956475311865327  0.8913075224440187  1.0000
  C   C395      1.0  0.10564878652709453  0.9433161014744796  0.8921362851848711  1.0000
  C   C396      1.0  0.09368541920116379  0.9250120465005538  0.9538993810603649  1.0000
  H   H281      1.0  0.12384207978516841  0.8865754445547055  0.8978668318263378  1.0000
  H   H282      1.0  0.11499353994737951  0.8725950895644979  0.9438834883213755  1.0000
  H   H283      1.0  0.12797311622454013  0.9084362803275613  0.944570267573322  1.0000
  H   H284      1.0  0.07523542410818271  0.9100419819545866  0.8839784848962312  1.0000
  H   H285      1.0  0.09294571486476344  0.8883533708425569  0.8616227268280374  1.0000
  H   H286      1.0  0.0845623447965712  0.8733709281552915  0.9077878026653251  1.0000
  H   H287      1.0  0.09357790851516454  0.9592657221315898  0.884938811137335  1.0000
  H   H288      1.0  0.11093031122822361  0.9365794979581163  0.8626222749577541  1.0000
  H   H289      1.0  0.11585928937683863  0.9580141732905579  0.9093169651736928  1.0000
  H   H290      1.0  0.10297562045777993  0.9408963044564634  0.9721479187691354  1.0000
  H   H291      1.0  0.09088770265959843  0.9040222470707375  0.9734962402106375  1.0000
  H   H292      1.0  0.08081297347384946  0.9390247936018972  0.9471539506785264  1.0000
  N   N4        1.0  0.6142201577514655  0.09088484437988374  0.5695614779987644  1.0000
  C   C397      1.0  0.5984259826322306  0.11279667813470029  0.5729278673842058  1.0000
  C   C398      1.0  0.6268556259533645  0.0936259326094662  0.606351322518831  1.0000
  C   C399      1.0  0.6232217276380116  0.09979423226939785  0.5329268816069925  1.0000
  C   C400      1.0  0.6083524992740365  0.0572298311013621  0.5659193701225823  1.0000
  H   H293      1.0  0.602209621626857  0.138498493816168  0.5753385996599893  1.0000
  H   H294      1.0  0.5913129422570554  0.10681236495137227  0.60027893235168  1.0000
  H   H295      1.0  0.5883951486570068  0.11071303682974523  0.5461228154735673  1.0000
  H   H296      1.0  0.639144737019452  0.0780400125630764  0.6043606331908802  1.0000
  H   H297      1.0  0.6311456620955251  0.11889405412562978  0.6109120770797949  1.0000
  H   H298      1.0  0.6207227449610252  0.08596716477751493  0.6344757139438374  1.0000
  H   H299      1.0  0.6140115290974646  0.09792261832720772  0.5046833650106005  1.0000
  H   H300      1.0  0.6351651122439692  0.08362418355375618  0.5294145694219353  1.0000
  H   H301      1.0  0.6278443126985828  0.1250643006843252  0.5346475650919786  1.0000
  H   H302      1.0  0.6015321282138902  0.04982906538399257  0.5930916855132558  1.0000
  H   H303      1.0  0.6198370789549834  0.03991546683830972  0.5630413006886149  1.0000
  H   H304      1.0  0.5984815949284109  0.05433143284728918  0.5389924451761892  1.0000
  N   N5        1.0  0.9123562998352011  0.7044227710321516  0.34866890087699764  1.0000
  C   C401      1.0  0.9170204918683531  0.670502158991192  0.339166654419033  1.0000
  C   C402      1.0  0.9178066645756379  0.7104775551967886  0.39209122375930744  1.0000
  C   C403      1.0  0.8928189334510248  0.7106251280141642  0.34083548955011267  1.0000
  C   C404      1.0  0.9218699132212124  0.7262645139957546  0.3226899161255419  1.0000
  H   H305      1.0  0.9317240049797559  0.6652999419901944  0.3451069242883279  1.0000
  H   H306      1.0  0.9133498483141197  0.6651081277880847  0.30648048297775354  1.0000
  H   H307      1.0  0.9100900662524294  0.6532733086631033  0.35816779774923413  1.0000
  H   H308      1.0  0.9150575038746057  0.7361486543420948  0.39988793926381666  1.0000
  H   H309      1.0  0.9105154909286052  0.6951641744909441  0.41275397997454155  1.0000
  H   H310      1.0  0.9324110021673335  0.7052451136481513  0.39935605574890315  1.0000
  H   H311      1.0  0.8882045417552213  0.7063633238967802  0.3083293051538213  1.0000
  H   H312      1.0  0.8890428136959131  0.7361514227933995  0.3477809790560773  1.0000
  H   H313      1.0  0.8851749700119158  0.6947887686410673  0.36019029067456465  1.0000
  H   H314      1.0  0.9185424527585693  0.7521116239264598  0.328725755286005  1.0000
  H   H315      1.0  0.9183908461789746  0.7220396706463432  0.2896536210973131  1.0000
  H   H316      1.0  0.9366410832307716  0.7226187725249591  0.3284557528079031  1.0000
  N   N6        1.0  0.6702451137777236  0.3103984256455565  0.14220778368338294  1.0000
  C   C405      1.0  0.6560729391450894  0.33108785508286465  0.15825140200736043  1.0000
  C   C406      1.0  0.6842641598544054  0.3309618246497596  0.12786784530536865  1.0000
  C   C407      1.0  0.6624129787930687  0.29134865231885976  0.10775154830128508  1.0000
  C   C408      1.0  0.6782677566647731  0.28826499263807603  0.17487443039408265  1.0000
  H   H317      1.0  0.6452589497265454  0.3163477081518523  0.1693512734282276  1.0000
  H   H318      1.0  0.649777567394299  0.34800044010421255  0.13419155024794865  1.0000
  H   H319      1.0  0.661583648507313  0.345874902984967  0.18417791548293228  1.0000
  H   H320      1.0  0.6949333526760466  0.31610866165477597  0.11487826013142491  1.0000
  H   H321      1.0  0.678762731928566  0.34811308324035967  0.10324261836772504  1.0000
  H   H322      1.0  0.6908751283641604  0.3451158985701031  0.15314847688580416  1.0000
  H   H323      1.0  0.6727347069197614  0.2752282861279383  0.09524037777365153  1.0000
  H   H324      1.0  0.6566145253363213  0.307266863578713  0.08207988670170728  1.0000
  H   H325      1.0  0.651598645914289  0.27578800318366214  0.11708192002988735  1.0000
  H   H326      1.0  0.6890065119112736  0.2722560460247348  0.16372339111591092  1.0000
  H   H327      1.0  0.6681219085397334  0.2724163655291412  0.18669868989157914  1.0000
  H   H328      1.0  0.6846674413692935  0.3017832355935711  0.2010529536210452  1.0000
  N   N7        1.0  0.776763119072812  0.12484056743364758  0.6794737601829511  1.0000
  C   C409      1.0  0.7570353855064043  0.1271639164882533  0.6717423273624039  1.0000
  C   C410      1.0  0.7848561973716996  0.14933598463018427  0.6542815420707415  1.0000
  C   C411      1.0  0.7833110209898416  0.09226227140292705  0.6686510415521931  1.0000
  C   C412      1.0  0.7818055835197315  0.13038618039541355  0.7232424063094623  1.0000
  H   H329      1.0  0.7505015997949657  0.10879290554639612  0.6900197870666781  1.0000
  H   H330      1.0  0.7527565613583106  0.12309000198126406  0.6390191019837723  1.0000
  H   H331      1.0  0.7515886532306753  0.15138591933432127  0.6797471268740569  1.0000
  H   H332      1.0  0.7800156250846152  0.17425578211826281  0.661076629025591  1.0000
  H   H333      1.0  0.7997376953357699  0.14841943247616024  0.6594739493823941  1.0000
  H   H334      1.0  0.7814563601324754  0.1454080508631736  0.621072578783444  1.0000
  H   H335      1.0  0.7793357545962947  0.08680005244023158  0.6361323855083164  1.0000
  H   H336      1.0  0.7777893484939773  0.07331018224354886  0.6878140567675091  1.0000
  H   H337      1.0  0.7981789219570116  0.08973607736639572  0.6731222073675556  1.0000
  H   H338      1.0  0.7771632030795612  0.15480226560298982  0.7325882995887254  1.0000
  H   H339      1.0  0.7965931299798944  0.12831565722889332  0.7303528699209216  1.0000
  H   H340      1.0  0.7757405082591005  0.11225806509948495  0.7428638554126196  1.0000
  N   N8        1.0  0.06613597569088348  0.17452154328838487  0.9215717590779482  1.0000
  C   C413      1.0  0.059535253238621966  0.14648038474703906  0.8981526745284008  1.0000
  C   C414      1.0  0.07649304118843903  0.19485418089380846  0.895424557422467  1.0000
  C   C415      1.0  0.0778017799651527  0.1629344802755699  0.957644937079581  1.0000
  C   C416      1.0  0.050695484217606834  0.19352812427666466  0.9349472475751525  1.0000
  H   H341      1.0  0.05155557140435296  0.1306233747742651  0.9166643589579496  1.0000
  H   H342      1.0  0.07087823005117988  0.13143442256312254  0.8880985640624247  1.0000
  H   H343      1.0  0.05078915269926898  0.15414692896904691  0.8704850398239797  1.0000
  H   H344      1.0  0.08138620554565201  0.2166936530329271  0.911671618521721  1.0000
  H   H345      1.0  0.08845147964311462  0.1812443174024525  0.8856085108836148  1.0000
  H   H346      1.0  0.06831363097176579  0.2030519886386244  0.8670651839785443  1.0000
  H   H347      1.0  0.07064568474887922  0.1461566940408967  0.9769637677291195  1.0000
  H   H348      1.0  0.08256744910827885  0.18331635330750728  0.9769757644957163  1.0000
  H   H349      1.0  0.08988405696366297  0.1494406816371392  0.9483364924281222  1.0000
  H   H350      1.0  0.05512702922363033  0.2148940501494765  0.9528856392919534  1.0000
  H   H351      1.0  0.04260299546583313  0.178578327270547  0.9544751216857985  1.0000
  H   H352      1.0  0.041649466455171424  0.20249879357212275  0.9082968544322667  1.0000
  N   N9        1.0  0.011722365842725013  0.3826087080778928  0.4219768861274039  1.0000
  C   C417      1.0  0.02591734068659557  0.3785309640168135  0.45590031325557673  1.0000
  C   C418      1.0  0.017611779174201203  0.40487381755385327  0.3906515806558293  1.0000
  C   C419      1.0  0.9951884641019351  0.3960121112525365  0.4379272490899773  1.0000
  C   C420      1.0  0.00812687282344604  0.35086455268798106  0.4034770363112272  1.0000
  H   H353      1.0  0.029130838930129688  0.4020109672319531  0.47048151078926737  1.0000
  H   H354      1.0  0.0385045477391992  0.36782793732939995  0.44524473976759715  1.0000
  H   H355      1.0  0.021728537354692712  0.3621072129146091  0.4801924451817044  1.0000
  H   H356      1.0  0.007234512303878837  0.4081262724814728  0.36444490986287087  1.0000
  H   H357      1.0  0.020273257244629583  0.42923649946418235  0.40334089576235677  1.0000
  H   H358      1.0  0.030082844004361453  0.3955058681767111  0.37805506884039924  1.0000
  H   H359      1.0  0.9841635279760876  0.39933668185579335  0.4132509785487874  1.0000
  H   H360      1.0  0.9974095097984319  0.4199031590004722  0.4523425708389224  1.0000
  H   H361      1.0  0.9903123321269608  0.37964941776797495  0.4614475891919116  1.0000
  H   H362      1.0  0.0036386500847271908  0.333568558420711  0.4263227851930218  1.0000
  H   H363      1.0  0.02027060502586986  0.33987113783715583  0.39112180386198775  1.0000
  H   H364      1.0  0.9974743413805651  0.3528882391558193  0.37777092442879473  1.0000
  N   N10       1.0  0.04106973723800711  0.4540086055170504  0.9904101301357877  1.0000
  C   C421      1.0  0.04610420464524623  0.4198578488183637  0.983089711099603  1.0000
  C   C422      1.0  0.029764922768720448  0.4558862116395936  0.025142531647556865  1.0000
  C   C423      1.0  0.031014261627835715  0.46792216007191617  0.9533286404465295  1.0000
  C   C424      1.0  0.05745369710857995  0.4723593349177699  0.9999900793934395  1.0000
  H   H365      1.0  0.0540002617916  0.4087012173859456  0.010125160141467804  1.0000
  H   H366      1.0  0.054505794878382696  0.41769572302791047  0.9567248161465333  1.0000
  H   H367      1.0  0.0340634345421027  0.4052409803595217  0.9759953147705686  1.0000
  H   H368      1.0  0.026397479816192337  0.481397870599918  0.03248538726746464  1.0000
  H   H369      1.0  0.01688817448690494  0.4435507117667336  0.018436949504555766  1.0000
  H   H370      1.0  0.036716809054865074  0.4446513983216808  0.05330256587345361  1.0000
  H   H371      1.0  0.018585552442117237  0.45465643494600844  0.9450358653889893  1.0000
  H   H372      1.0  0.039222579892909115  0.46699420621131305  0.9265862451952965  1.0000
  H   H373      1.0  0.027036589048260673  0.493679239832898  0.9575914663523424  1.0000
  H   H374      1.0  0.06509362120701145  0.4633896590664042  0.028580687167200525  1.0000
  H   H375      1.0  0.05427513502498482  0.4985561676500878  0.0038981360007206423  1.0000
  H   H376      1.0  0.06659378284959883  0.47032136735663227  0.9751184799992163  1.0000
  N   N11       1.0  0.03872832143007362  0.09281289913790025  0.1612014163390877  1.0000
  C   C425      1.0  0.04273064931495857  0.09618420085259083  0.11811550593157535  1.0000
  C   C426      1.0  0.022947552457353464  0.07267940852043897  0.1635734040143339  1.0000
  C   C427      1.0  0.03483479829088491  0.12506706718660832  0.17795494375790594  1.0000
  C   C428      1.0  0.05426770110191338  0.07717815046508392  0.18524760296986234  1.0000
  H   H377      1.0  0.0548123321664314  0.11061868336379699  0.11504219064772833  1.0000
  H   H378      1.0  0.031344484200560935  0.10837947087345134  0.09935737559532669  1.0000
  H   H379      1.0  0.045171430362931426  0.0721406493476009  0.10422687932820109  1.0000
  H   H380      1.0  0.019303989880470326  0.07038721533373082  0.1955870252695695  1.0000
  H   H381      1.0  0.01103737775572422  0.08347552343576292  0.14526178667576492  1.0000
  H   H382      1.0  0.025341880107977444  0.047872047990443534  0.15191523086349643  1.0000
  H   H383      1.0  0.03181380997083097  0.12331052613046678  0.2105446393671006  1.0000
  H   H384      1.0  0.02278609672862886  0.13701269298988605  0.16121089465355903  1.0000
  H   H385      1.0  0.04628009246795945  0.14129955018076146  0.1761924317448131  1.0000
  H   H386      1.0  0.05155332085212983  0.07401017517195929  0.21784088347308353  1.0000
  H   H387      1.0  0.06644843900649412  0.09175496128755856  0.18435816847920156  1.0000
  H   H388      1.0  0.05745223325582323  0.052755870335711164  0.17325421323587595  1.0000
  N   N12       1.0  0.3131839792922305  0.689224993570456  0.12769995121461772  1.0000
  C   C429      1.0  0.30117102918521554  0.7175936358661416  0.1333549349681258  1.0000
  C   C430      1.0  0.3051427144690944  0.6690037016597365  0.09466954912832228  1.0000
  C   C431      1.0  0.3156351604428408  0.6700487902472496  0.16609069554634895  1.0000
  C   C432      1.0  0.3307496342790606  0.7002357353279632  0.11666536683752683  1.0000
  H   H389      1.0  0.28770320294323726  0.7102328699957813  0.14121296550967607  1.0000
  H   H390      1.0  0.2990405254510303  0.7326577279588886  0.10505864212165421  1.0000
  H   H391      1.0  0.3068038474936043  0.7335009685486548  0.15795604311149447  1.0000
  H   H392      1.0  0.31392114922114867  0.6475974031721009  0.08903987157508035  1.0000
  H   H393      1.0  0.2919852954062008  0.6598860501199757  0.10220968131399245  1.0000
  H   H394      1.0  0.3027960101632634  0.6828948569216644  0.06538744613397457  1.0000
  H   H395      1.0  0.302593090733879  0.6614796915242995  0.17531338041420094  1.0000
  H   H396      1.0  0.3217536765443736  0.6845379834886777  0.19164722141037974  1.0000
  H   H397      1.0  0.32451875846029626  0.6482877239396844  0.16286286925213297  1.0000
  H   H398      1.0  0.32945247216222573  0.7139552207483509  0.08718737848519635  1.0000
  H   H399      1.0  0.3403646671412385  0.6795954142086009  0.11319991685410748  1.0000
  H   H400      1.0  0.33695886913849576  0.7166934705407024  0.14000208652342802  1.0000
  N   N13       1.0  0.7502613284506587  0.4754129573878882  0.4627161650721025  1.0000
  C   C433      1.0  0.7667779538916261  0.4839116399339254  0.48748405975273146  1.0000
  C   C434      1.0  0.7423065855227435  0.44724627831446995  0.48144511569852105  1.0000
  C   C435      1.0  0.7546921483723001  0.4672912826361901  0.42096920750326816  1.0000
  C   C436      1.0  0.7373121053763226  0.5032196992764401  0.4610961108586872  1.0000
  H   H401      1.0  0.7727722923101069  0.5058990603368482  0.47526826966199637  1.0000
  H   H402      1.0  0.7770987059984751  0.46394980092442795  0.48847709796938954  1.0000
  H   H403      1.0  0.7639924123550521  0.4892324191884305  0.5194709232796904  1.0000
  H   H404      1.0  0.7515615368281787  0.42559455926617895  0.482363929100422  1.0000
  H   H405      1.0  0.7392675120166363  0.45219798257782023  0.5134687266385749  1.0000
  H   H406      1.0  0.7295795226045038  0.44057575332174703  0.4642277500489288  1.0000
  H   H407      1.0  0.7425445043462322  0.4607631481634134  0.40135562069255903  1.0000
  H   H408      1.0  0.7644274513152736  0.44628189845670124  0.42136869770006535  1.0000
  H   H409      1.0  0.7608441948818924  0.48797399690738535  0.40608014987599167  1.0000
  H   H410      1.0  0.7246526890744979  0.49786081467852905  0.44266789172835763  1.0000
  H   H411      1.0  0.7429848090580817  0.5250993064384339  0.4477735426668442  1.0000
  H   H412      1.0  0.7338101899513908  0.5098932247009037  0.49227420904534425  1.0000
  N   N14       1.0  0.26302765112038085  0.337789744504337  0.09566620730638603  1.0000
  C   C437      1.0  0.2440607989205055  0.3313922376957811  0.10086330974217737  1.0000
  C   C438      1.0  0.26553997771263305  0.340319250866824  0.05168492914840838  1.0000
  C   C439      1.0  0.2746070282700941  0.3110208378142378  0.11424516267598471  1.0000
  C   C440      1.0  0.2679586355651252  0.3684515395558637  0.11562668160071606  1.0000
  H   H413      1.0  0.24002487309575382  0.30837299260680706  0.08596394999541809  1.0000
  H   H414      1.0  0.235003545802395  0.35113859248725093  0.08692444455193994  1.0000
  H   H415      1.0  0.24162584415389643  0.3293546530670375  0.13371546035449  1.0000
  H   H416      1.0  0.279779625618515  0.3445054542369368  0.046766304143788684  1.0000
  H   H417      1.0  0.2617421086556655  0.31783738264106265  0.03533810043724217  1.0000
  H   H418      1.0  0.25730381177140693  0.3606731453957965  0.03669729157237622  1.0000
  H   H419      1.0  0.27146556763268404  0.287564489662922  0.09941191534987526  1.0000
  H   H420      1.0  0.2729832160303517  0.30815297677976683  0.14739754076140002  1.0000
  H   H421      1.0  0.28901839005480773  0.315237355781586  0.11088089670552814  1.0000
  H   H422      1.0  0.28228383376336275  0.3736814028263017  0.1124156422019298  1.0000
  H   H423      1.0  0.2660563122238679  0.36771705864981996  0.14881968153313263  1.0000
  H   H424      1.0  0.2597415339451483  0.38931081382336913  0.10173535279292507  1.0000
  N   N15       1.0  0.7460883258982332  0.681268226178077  0.38797463615778877  1.0000
  C   C441      1.0  0.7651649220969472  0.6705256733415863  0.3909098241277148  1.0000
  C   C442      1.0  0.7433933485600269  0.7099229700104321  0.36059822377639444  1.0000
  C   C443      1.0  0.7408556125993919  0.6896533046078601  0.429066806800621  1.0000
  C   C444      1.0  0.7349870227501025  0.6548708012485106  0.37128730266272725  1.0000
  H   H425      1.0  0.7676840178878942  0.6485054837889772  0.41050832021990574  1.0000
  H   H426      1.0  0.7738662458151477  0.6896246061625583  0.40424716426015384  1.0000
  H   H427      1.0  0.769822092838494  0.665112682417565  0.3603143892777902  1.0000
  H   H428      1.0  0.7291528430414376  0.7186792280654555  0.35726724768638546  1.0000
  H   H429      1.0  0.7515690657310108  0.7303135377555764  0.372301541550754  1.0000
  H   H430      1.0  0.7475902072611953  0.704654954816985  0.3295300144971003  1.0000
  H   H431      1.0  0.7423050292894046  0.6683762258504512  0.45026057468776415  1.0000
  H   H432      1.0  0.726708457631214  0.6988217996776762  0.4280579374503838  1.0000
  H   H433      1.0  0.7494139946219411  0.7087210148834847  0.4432139384331157  1.0000
  H   H434      1.0  0.7367587908912635  0.6328819039971014  0.39126140525777076  1.0000
  H   H435      1.0  0.7386862322132874  0.6479752015180313  0.3403361386725665  1.0000
  H   H436      1.0  0.7204961231093415  0.6621251703066106  0.3686590921985151  1.0000
  N   N16       1.0  0.4312306996662621  0.016285730387350483  0.5299841253355342  1.0000
  C   C445      1.0  0.42553670097852514  0.996300048272954  0.5637707695794052  1.0000
  C   C446      1.0  0.4156141471445672  0.03515927179177214  0.5106334020768442  1.0000
  C   C447      1.0  0.4387085929205998  0.9950261258298575  0.49936386334092386  1.0000
  C   C448      1.0  0.44509688820256843  0.03853930484062773  0.5460381745985529  1.0000
  H   H437      1.0  0.41978986476893104  0.01155150294314966  0.5874520246848762  1.0000
  H   H438      1.0  0.4370432669381409  0.9817262448630217  0.5788740321233414  1.0000
  H   H439      1.0  0.41512523317104866  0.9791825892294787  0.5525083877213627  1.0000
  H   H440      1.0  0.40492558037386356  0.01905863938190233  0.4980735979503424  1.0000
  H   H441      1.0  0.4096293781400234  0.0517349865705099  0.5325755391020963  1.0000
  H   H442      1.0  0.4193936350329403  0.05014245128984163  0.48454703217609546  1.0000
  H   H443      1.0  0.4506975644870337  0.980660899528887  0.5125027867696955  1.0000
  H   H444      1.0  0.4430973437565475  0.00943808741236607  0.47365143007078914  1.0000
  H   H445      1.0  0.4286213621207869  0.9781050574442924  0.48599675601958314  1.0000
  H   H446      1.0  0.44978338583369043  0.05382650383481824  0.521224967401681  1.0000
  H   H447      1.0  0.45720587768750104  0.025051879842654667  0.5602555893152272  1.0000
  H   H448      1.0  0.44002349571828653  0.05501213171270103  0.5692784340679814  1.0000
  N   N17       1.0  0.7644423464108019  0.9571300975127216  0.8770164586117  1.0000
  C   C449      1.0  0.7480180328188792  0.9627829770775809  0.898298312268616  1.0000
  C   C450      1.0  0.7700403878949856  0.9225543009954309  0.8806406820275052  1.0000
  C   C451      1.0  0.7788731191978574  0.9768331722467457  0.8959591186785367  1.0000
  C   C452      1.0  0.76092133769123  0.9664819876041081  0.8334483008609335  1.0000
  H   H449      1.0  0.7435829262502931  0.9887479040527613  0.89675271375607  1.0000
  H   H450      1.0  0.7502839737769551  0.9560079068080444  0.9312962759596389  1.0000
  H   H451      1.0  0.7367761831601585  0.9483648745398354  0.8848619279215395  1.0000
  H   H452      1.0  0.78253211487932  0.9175221878006448  0.8653511146995728  1.0000
  H   H453      1.0  0.7727362734337377  0.9148420068997274  0.9132702616367151  1.0000
  H   H454      1.0  0.7594968299455923  0.9068444619775414  0.866627291449319  1.0000
  H   H455      1.0  0.7820043949143034  0.9701004675365354  0.9286381415592878  1.0000
  H   H456      1.0  0.7749698589409323  0.002995897986992401  0.8946565083035243  1.0000
  H   H457      1.0  0.7914685519814281  0.9736869357502947  0.8804647687072664  1.0000
  H   H458      1.0  0.7731911153561651  0.9632846030753615  0.8167454250059776  1.0000
  H   H459      1.0  0.7564694355028638  0.9923798391178448  0.8298117731873063  1.0000
  H   H460      1.0  0.7502869253052485  0.951815982828321  0.8178059939879226  1.0000
  N   N18       1.0  0.5284323408210578  0.6034674099680598  0.42525879336268063  1.0000
  C   C453      1.0  0.5128413662590747  0.6203783041431573  0.4412182854496964  1.0000
  C   C454      1.0  0.5222907870490209  0.5754719205669333  0.4009719854902237  1.0000
  C   C455      1.0  0.5411437774146901  0.5920568472767923  0.45966274706428545  1.0000
  C   C456      1.0  0.5374030638733609  0.6259800313060256  0.39903762940382026  1.0000
  H   H461      1.0  0.5169584375528595  0.6414990885813242  0.46000013031533993  1.0000
  H   H462      1.0  0.5056393995872112  0.6041105396439139  0.4608274331986349  1.0000
  H   H463      1.0  0.502993244791903  0.6292747891875395  0.4159893516061701  1.0000
  H   H464      1.0  0.533698321399507  0.5614199525931954  0.38951790785922624  1.0000
  H   H465      1.0  0.5148787866998903  0.5585199868498044  0.41935237424250726  1.0000
  H   H466      1.0  0.5130966168740653  0.5832670657664742  0.3741032207009515  1.0000
  H   H467      1.0  0.5534400260784031  0.5804273878940215  0.44881229354469754  1.0000
  H   H468      1.0  0.5350594245273648  0.573703071429028  0.47861225714228234  1.0000
  H   H469      1.0  0.5452880317147424  0.6121329953008129  0.4802824688264746  1.0000
  H   H470      1.0  0.549090539119146  0.6139494802617544  0.3859794729365004  1.0000
  H   H471      1.0  0.5422883527402378  0.647303357210058  0.4164904872051016  1.0000
  H   H472      1.0  0.5280472947415035  0.6351548651354418  0.37296048994506104  1.0000
  N   N19       1.0  0.21889826098466672  0.15374683583247936  0.9685805037703589  1.0000
  C   C457      1.0  0.21733747761312694  0.16180410694715838  0.924480225110817  1.0000
  C   C458      1.0  0.23147425819677483  0.1756807934277606  0.9903975336392422  1.0000
  C   C459      1.0  0.22568944961072576  0.11995779763731025  0.9748415667669991  1.0000
  C   C460      1.0  0.20112266066193402  0.15751511085077047  0.984723312462209  1.0000
  H   H473      1.0  0.20785232421133926  0.14575929105430843  0.907183085014959  1.0000
  H   H474      1.0  0.23054641201876003  0.15909980042584548  0.9114200593109201  1.0000
  H   H475      1.0  0.21236185482929085  0.1872196227768485  0.9186472708386034  1.0000
  H   H476      1.0  0.23293077414994254  0.17017211048010134  0.023776676647539574  1.0000
  H   H477      1.0  0.24506643637494874  0.17339383024281552  0.9791917182840283  1.0000
  H   H478      1.0  0.2269022787440541  0.2014586983796948  0.9864120982301109  1.0000
  H   H479      1.0  0.21652734469284796  0.10263323769760524  0.9588871762867047  1.0000
  H   H480      1.0  0.2267376599812865  0.11298424481297643  0.0076797690538503716  1.0000
  H   H481      1.0  0.23929148645841844  0.11629356295061342  0.9639924927922509  1.0000
  H   H482      1.0  0.19536689449729247  0.18249042487947437  0.9797643611873821  1.0000
  H   H483      1.0  0.20195142781178266  0.15223146418605055  0.018183319223949113  1.0000
  H   H484      1.0  0.1914117686510256  0.1404630289112555  0.9700440967181523  1.0000
  N   N20       1.0  0.4163828961164216  0.897604550017146  0.19702454904548658  1.0000
  C   C461      1.0  0.4155000217610616  0.8623237024642093  0.20344151752121223  1.0000
  C   C462      1.0  0.43300126302292236  0.9048611761730502  0.17802663608499777  1.0000
  C   C463      1.0  0.41639794363983446  0.9139528756768474  0.23681802162911927  1.0000
  C   C464      1.0  0.40073839046996407  0.909119566416036  0.16970355473871193  1.0000
  H   H485      1.0  0.40310334990476093  0.8558731174684945  0.2175813429817797  1.0000
  H   H486      1.0  0.4271420070030683  0.8527748661653641  0.22386272117558753  1.0000
  H   H487      1.0  0.4155876332054029  0.8492371929124891  0.17402543569267967  1.0000
  H   H488      1.0  0.43448798199706706  0.9313200869502446  0.17395249998805454  1.0000
  H   H489      1.0  0.4450202080248201  0.8954340404088379  0.19717365659324604  1.0000
  H   H490      1.0  0.43325143138950944  0.8936405226917332  0.14742314655839708  1.0000
  H   H491      1.0  0.4173633738377801  0.9406091745969042  0.2333477243538932  1.0000
  H   H492      1.0  0.42805816213460457  0.905389833363544  0.2579574665687752  1.0000
  H   H493      1.0  0.40403910324167674  0.9091839022604626  0.2521235022931294  1.0000
  H   H494      1.0  0.40104341643799946  0.9356110518337365  0.1638424020049508  1.0000
  H   H495      1.0  0.3879291530248102  0.9040001419624553  0.18298040439605776  1.0000
  H   H496      1.0  0.40047705300136344  0.8968870821407968  0.13952760261487515  1.0000
  N   N21       1.0  0.4081613343135884  0.372292409856281  0.1955407128057618  1.0000
  C   C465      1.0  0.39322264276407753  0.39409977466787344  0.20581193596199657  1.0000
  C   C466      1.0  0.41963966727346214  0.36361651094686986  0.23316533946726364  1.0000
  C   C467      1.0  0.4189061412594391  0.38887193606198844  0.16645232834191792  1.0000
  C   C468      1.0  0.4008653344523168  0.3427006507664826  0.1766518761707148  1.0000
  H   H497      1.0  0.3847970803820332  0.3823152123348139  0.22762971362114115  1.0000
  H   H498      1.0  0.38436744084864166  0.40126394750967886  0.17804075990486967  1.0000
  H   H499      1.0  0.3982745328655005  0.41666846173747957  0.22020841557025264  1.0000
  H   H500      1.0  0.43130984976358444  0.34775771290857177  0.22652536811727225  1.0000
  H   H501      1.0  0.4251472680895899  0.3854611130387224  0.248518998566705  1.0000
  H   H502      1.0  0.4121281022066227  0.3504456480928981  0.25557541961322755  1.0000
  H   H503      1.0  0.43070202877282665  0.37355069059348256  0.1593196465460178  1.0000
  H   H504      1.0  0.42401173307620377  0.4120147175927929  0.17890179748616697  1.0000
  H   H505      1.0  0.41096317777195696  0.3942895487571698  0.13684609384169688  1.0000
  H   H506      1.0  0.41174216959316295  0.32606937702757316  0.16755864291518013  1.0000
  H   H507      1.0  0.3920513456867038  0.3483952804271607  0.14831795262595976  1.0000
  H   H508      1.0  0.39294995447645  0.32909928489388224  0.19785430140207175  1.0000
  N   N22       1.0  0.7445634085432881  0.5889285887845642  0.7642177627556302  1.0000
  C   C469      1.0  0.7421344130553277  0.5979727098426453  0.8068359985704832  1.0000
  C   C470      1.0  0.7430083055943224  0.5536012120695686  0.7600634105651884  1.0000
  C   C471      1.0  0.7624947071918079  0.5983757783896869  0.753698452343001  1.0000
  C   C472      1.0  0.7306450018512706  0.6056456208248437  0.7363052020165335  1.0000
  H   H509      1.0  0.7431042981046785  0.6245095538981784  0.8111214090832755  1.0000
  H   H510      1.0  0.7525962365407796  0.585886020428154  0.8285066998640415  1.0000
  H   H511      1.0  0.7288437688789008  0.5907169238856347  0.8159298408465301  1.0000
  H   H512      1.0  0.7463555842907901  0.5455776509018606  0.7293824567447466  1.0000
  H   H513      1.0  0.7523145721003336  0.5402032667861655  0.7829361553625901  1.0000
  H   H514      1.0  0.7291717996921857  0.5458083774571629  0.7640407819407936  1.0000
  H   H515      1.0  0.7647783836502471  0.5920721493309082  0.721624409491989  1.0000
  H   H516      1.0  0.7733378125140978  0.5856213636294849  0.7735443186616342  1.0000
  H   H517      1.0  0.7643004657957438  0.6248019301604039  0.7569333505110298  1.0000
  H   H518      1.0  0.7320020283927572  0.5988883720538453  0.7039840001870601  1.0000
  H   H519      1.0  0.7314736676099314  0.6323628312246687  0.7381949133275919  1.0000
  H   H520      1.0  0.7169259033591668  0.5989245246523758  0.7431520549535059  1.0000
  N   N23       1.0  0.7566371590562878  0.16930038699595149  0.3841904892313707  1.0000
  C   C473      1.0  0.7716393159351302  0.16245096814781246  0.3587011971341939  1.0000
  C   C474      1.0  0.7404365063164647  0.1533902681043811  0.36666528418346483  1.0000
  C   C475      1.0  0.7530196933550853  0.20457190523909213  0.38525200365309276  1.0000
  C   C476      1.0  0.7614824177018152  0.15695869727131678  0.4261705672668866  1.0000
  H   H521      1.0  0.7841926186151144  0.17355572197189145  0.37164571593087664  1.0000
  H   H522      1.0  0.7687612361847983  0.17268530268037585  0.3272185502557482  1.0000
  H   H523      1.0  0.7745107348934877  0.136049196590724  0.3562551467518952  1.0000
  H   H524      1.0  0.7426606375086108  0.12669822101579492  0.3656344364208248  1.0000
  H   H525      1.0  0.7288545386342652  0.1583555362316579  0.3850638245632792  1.0000
  H   H526      1.0  0.7365383201074098  0.162178534003799  0.3348838670232495  1.0000
  H   H527      1.0  0.7422604805902636  0.2109340270692555  0.40544460024613854  1.0000
  H   H528      1.0  0.7489939747835082  0.21475588480943592  0.35421038484876977  1.0000
  H   H529      1.0  0.7651835711756342  0.21724980191130244  0.39700217763243967  1.0000
  H   H530      1.0  0.7505942483921022  0.16208968803884907  0.4465257397321081  1.0000
  H   H531      1.0  0.7736368763702528  0.16865445317254907  0.4400965285042183  1.0000
  H   H532      1.0  0.7643691824750779  0.13040325867573924  0.42690384752907756  1.0000
  N   N24       1.0  0.19136819129336072  0.573850022933842  0.21892414522931847  1.0000
  C   C477      1.0  0.20882865297779066  0.582734414464305  0.2393897691010498  1.0000
  C   C478      1.0  0.18413850537374032  0.6005343352795455  0.191419558225141  1.0000
  C   C479      1.0  0.17868189050011518  0.5675571669349034  0.24992417181483195  1.0000
  C   C480      1.0  0.19385194444773185  0.5444097234035388  0.19477363919993929  1.0000
  H   H533      1.0  0.2147874293890622  0.5628901611485176  0.25993003178642615  1.0000
  H   H534      1.0  0.207593894240117  0.6048290567835594  0.2580256157227956  1.0000
  H   H535      1.0  0.21875868251922348  0.58739445742751  0.216803896650136  1.0000
  H   H536      1.0  0.1711047040982506  0.5943637011430389  0.17492577346108296  1.0000
  H   H537      1.0  0.1820300160287054  0.6232475008805864  0.2083819728424965  1.0000
  H   H538      1.0  0.19336045351227155  0.6056775698500348  0.1674413599885216  1.0000
  H   H539      1.0  0.16541582725918189  0.5606394912840863  0.2353595804040156  1.0000
  H   H540      1.0  0.17647794262615593  0.589288544189419  0.26875115754110235  1.0000
  H   H541      1.0  0.18379507746227228  0.547452404629405  0.27100796774879843  1.0000
  H   H542      1.0  0.18108279905403205  0.5371875494248919  0.1780365120527314  1.0000
  H   H543      1.0  0.19942412625376787  0.523648783346633  0.21421994053736437  1.0000
  H   H544      1.0  0.20344158442226343  0.5484981258450611  0.17152610717126526  1.0000
  N   N25       1.0  0.6303994018127222  0.43433538414817846  0.652038202581106  1.0000
  C   C481      1.0  0.6224789247360301  0.4254653444380852  0.6901625572164066  1.0000
  C   C482      1.0  0.6161134801943854  0.44718897004479286  0.6218891456333218  1.0000
  C   C483      1.0  0.6391414382531668  0.40543796595541065  0.6353615437819411  1.0000
  C   C484      1.0  0.6438048866406084  0.45933595613277417  0.6606564660832531  1.0000
  H   H545      1.0  0.6157966099975812  0.44678115129459595  0.703477826307213  1.0000
  H   H546      1.0  0.6327792399719896  0.41549481724490517  0.7137260361664322  1.0000
  H   H547      1.0  0.6120457312259838  0.4070518016325522  0.6846810765641081  1.0000
  H   H548      1.0  0.6054445824667603  0.4294093500296265  0.615259906597548  1.0000
  H   H549      1.0  0.6095107087435377  0.4692427234330363  0.6333707056088272  1.0000
  H   H550      1.0  0.6215113757737901  0.4542286678950637  0.5926182937362814  1.0000
  H   H551      1.0  0.6500115688835145  0.3951236871842572  0.6573573978383138  1.0000
  H   H552      1.0  0.6452335867934075  0.41138143829384355  0.6065443918357237  1.0000
  H   H553      1.0  0.629337908675708  0.3861789984820858  0.6284840322475659  1.0000
  H   H554      1.0  0.6499296695221475  0.46680093925842137  0.6324299306475427  1.0000
  H   H555      1.0  0.6548393172163475  0.45067947443789075  0.6833084553998029  1.0000
  H   H556      1.0  0.6375929182210479  0.4815703299840755  0.6730271981779777  1.0000
  N   N26       1.0  0.31542093337467575  0.08556188326822411  0.3188315896462031  1.0000
  C   C485      1.0  0.30704869223124825  0.1130921113835277  0.3393169277872828  1.0000
  C   C486      1.0  0.3344543960656317  0.09207449280468305  0.3144121931745952  1.0000
  C   C487      1.0  0.3058323305262134  0.08116799137389519  0.27817019810545474  1.0000
  C   C488      1.0  0.3143339567622372  0.05586632254950352  0.343697182686287  1.0000
  H   H557      1.0  0.29265511346401846  0.1090454085494299  0.34300741482652597  1.0000
  H   H558      1.0  0.307752966135101  0.13599374738946102  0.32160648369281913  1.0000
  H   H559      1.0  0.31382398561554065  0.11682979621789102  0.3703386686169769  1.0000
  H   H560      1.0  0.3413123409010413  0.071544873370881  0.29979410837132775  1.0000
  H   H561      1.0  0.335854581704389  0.11421362648099787  0.29560863922435826  1.0000
  H   H562      1.0  0.34191412201593174  0.09576937866754509  0.34477274115602236  1.0000
  H   H563      1.0  0.31183516452635657  0.06072371110201624  0.2616886254098734  1.0000
  H   H564      1.0  0.30604691586886257  0.1033030858886741  0.2587168252466727  1.0000
  H   H565      1.0  0.29149302796951043  0.0757183709564444  0.28074551455648167  1.0000
  H   H566      1.0  0.3199675007591032  0.03430995425439165  0.3286991191488264  1.0000
  H   H567      1.0  0.30022870532108714  0.05084348983395337  0.34901187040612497  1.0000
  H   H568      1.0  0.3218886745414102  0.057969480356739655  0.3740908289884288  1.0000
  N   N27       1.0  0.7784240980680965  0.8824816406285365  0.1415611302778579  1.0000
  C   C489      1.0  0.7897179553653416  0.9042721754186124  0.11968370845624263  1.0000
  C   C490      1.0  0.7594605805842051  0.8936860090384208  0.13453465619235055  1.0000
  C   C491      1.0  0.783966131053393  0.8826442910297031  0.18580018948013036  1.0000
  C   C492      1.0  0.7805173900360736  0.8492732722955597  0.12613810149851057  1.0000
  H   H569      1.0  0.7883420778421845  0.9296716745073039  0.130085043879228  1.0000
  H   H570      1.0  0.7858333176506369  0.9044069168852191  0.08626495476074349  1.0000
  H   H571      1.0  0.8041320547751145  0.8966173269826441  0.12413984098263765  1.0000
  H   H572      1.0  0.7505162424246036  0.877791019219919  0.15058628085379092  1.0000
  H   H573      1.0  0.7573808617513826  0.9186943170119638  0.1456816395046109  1.0000
  H   H574      1.0  0.7548103412368493  0.8937101361022798  0.10145682437306744  1.0000
  H   H575      1.0  0.775583756386467  0.8664348385879227  0.20303423378592084  1.0000
  H   H576      1.0  0.7825700484119147  0.9072948783844507  0.19855968982417826  1.0000
  H   H577      1.0  0.7981483234361126  0.8739819054369442  0.1922632749853622  1.0000
  H   H578      1.0  0.772512746984336  0.8320288085795607  0.1425926497456351  1.0000
  H   H579      1.0  0.7947143810021977  0.8402511356439821  0.12986161991694936  1.0000
  H   H580      1.0  0.7759560579067073  0.8479757833057271  0.0931660756121622  1.0000
  N   N28       1.0  0.026826631289307512  0.7190252818767796  0.6654213688792797  1.0000
  C   C493      1.0  0.012026037002093704  0.7278893216242963  0.6342481963612231  1.0000
  C   C494      1.0  0.03401399386822068  0.7486464721352029  0.6843979639679958  1.0000
  C   C495      1.0  0.04121173585297622  0.701375710821228  0.645766843739106  1.0000
  C   C496      1.0  0.020066397943659497  0.6982317195119268  0.6972065773771021  1.0000
  H   H581      1.0  0.016785704416983904  0.7428169320895103  0.6092305233012517  1.0000
  H   H582      1.0  0.0011418304999442075  0.7421840882984394  0.6475426873740358  1.0000
  H   H583      1.0  0.006011232116555076  0.7061128532973167  0.6198789272211557  1.0000
  H   H584      1.0  0.044883929209086126  0.7428797663946263  0.7088870602209066  1.0000
  H   H585      1.0  0.039689554731220156  0.764430031301627  0.6614547112999583  1.0000
  H   H586      1.0  0.023452227094340028  0.7631296204258351  0.6985545996402229  1.0000
  H   H587      1.0  0.05261670543325381  0.694246234454046  0.6682631365804648  1.0000
  H   H588      1.0  0.04668839868164554  0.7165283263581265  0.6217853504790664  1.0000
  H   H589      1.0  0.03626321307553093  0.6789878100995876  0.6308606129893566  1.0000
  H   H590      1.0  0.009164769980407828  0.7108309952490925  0.7125384250104937  1.0000
  H   H591      1.0  0.030860277639817912  0.6912868385008273  0.7213954795922414  1.0000
  H   H592      1.0  0.014681244942908123  0.6754759400182182  0.6841293299570633  1.0000
  N   N29       1.0  0.6294128454738108  0.9361689418316766  0.7591337143154625  1.0000
  C   C497      1.0  0.6187331970795621  0.9340821075691501  0.7948506970240711  1.0000
  C   C498      1.0  0.6394528821107185  0.9663532932653334  0.7609876595006211  1.0000
  C   C499      1.0  0.6173198534120762  0.9361897185660645  0.7212190223698398  1.0000
  C   C500      1.0  0.64208721416448  0.908038188787966  0.7594389765335924  1.0000
  H   H593      1.0  0.6273553947977704  0.933835971398092  0.8241169261348816  1.0000
  H   H594      1.0  0.6108138676062634  0.9117397817643021  0.7942542379003694  1.0000
  H   H595      1.0  0.6090384267816419  0.9550066383838599  0.7955501963017002  1.0000
  H   H596      1.0  0.6472332616308989  0.9693958657446387  0.7338349203706951  1.0000
  H   H597      1.0  0.6302485796668389  0.9879865355833536  0.7617075566153533  1.0000
  H   H598      1.0  0.6489893080679914  0.967018825475693  0.7887602530853463  1.0000
  H   H599      1.0  0.6248191334756102  0.9378685372399661  0.6935013657098614  1.0000
  H   H600      1.0  0.6075589660676833  0.9570330078806087  0.7200497909522219  1.0000
  H   H601      1.0  0.6092963260241987  0.9139750812243711  0.7189204682141029  1.0000
  H   H602      1.0  0.6503932715599492  0.9089416572167088  0.7329272354326866  1.0000
  H   H603      1.0  0.6348327334985308  0.8849471133816613  0.7578898056119173  1.0000
  H   H604      1.0  0.6513401377717092  0.9071205266982939  0.7877948218377352  1.0000
  N   N30       1.0  0.19930862681620928  0.24850519958468337  0.5317400460868983  1.0000
  C   C501      1.0  0.20737842999538225  0.27948490077697635  0.5220905954090544  1.0000
  C   C502      1.0  0.18836690133287828  0.2528229753323343  0.566862408732028  1.0000
  C   C503      1.0  0.21369596330024643  0.22371255168143603  0.5420094446440811  1.0000
  C   C504      1.0  0.18779359604486545  0.23807773415023328  0.4958955264950132  1.0000
  H   H605      1.0  0.21605001538864482  0.2880761125210109  0.5485480510715793  1.0000
  H   H606      1.0  0.19694634014609957  0.29893285040295725  0.514585414566733  1.0000
  H   H607      1.0  0.21588564620049766  0.2772077560598439  0.496013302750287  1.0000
  H   H608      1.0  0.18206976238634667  0.2299917535289964  0.5752455296498602  1.0000
  H   H609      1.0  0.19657104229029818  0.2609810003811227  0.5944311496751987  1.0000
  H   H610      1.0  0.17747184590287488  0.2715978078190859  0.5602624797401622  1.0000
  H   H611      1.0  0.2081835147297462  0.19981836505124825  0.5489118244971519  1.0000
  H   H612      1.0  0.2224647116645494  0.23062834554115993  0.5692501047280931  1.0000
  H   H613      1.0  0.22252837030581082  0.22039971682877044  0.5166085466088673  1.0000
  H   H614      1.0  0.18143991444438795  0.21479872463089014  0.5021567233426734  1.0000
  H   H615      1.0  0.19565105896751273  0.23454789620965427  0.4688860208829036  1.0000
  H   H616      1.0  0.1768406366714716  0.2563531209296388  0.48729644926959415  1.0000
  N   N31       1.0  0.5211746860252549  0.37084118592739956  0.21420480536771747  1.0000
  C   C505      1.0  0.5378034216579333  0.37840217928164444  0.23913812071008464  1.0000
  C   C506      1.0  0.52459269548099  0.3700959560114704  0.17054965498977057  1.0000
  C   C507      1.0  0.5071240009009397  0.3958060142070565  0.22031139324724447  1.0000
  C   C508      1.0  0.5150920379472977  0.33894768663069497  0.22683327223701297  1.0000
  H   H617      1.0  0.5485938811807523  0.3597860435889605  0.23540910853159622  1.0000
  H   H618      1.0  0.5355390484622308  0.3792477331371452  0.2722015487585871  1.0000
  H   H619      1.0  0.5428172350587229  0.4022788171451395  0.23032858424315786  1.0000
  H   H620      1.0  0.5350207643172791  0.35130193166127377  0.16464590316021135  1.0000
  H   H621      1.0  0.5122983290298601  0.3640527501387707  0.1509919769653032  1.0000
  H   H622      1.0  0.5290795421377273  0.39377288486956274  0.1596720162152747  1.0000
  H   H623      1.0  0.49456613327433124  0.3910691701101386  0.20109890927649712  1.0000
  H   H624      1.0  0.5113059579693165  0.420402888670165  0.21210588063208355  1.0000
  H   H625      1.0  0.5036933053513201  0.3962622884174824  0.25266144293137877  1.0000
  H   H626      1.0  0.50232121687402  0.3330888035669457  0.2094451606148674  1.0000
  H   H627      1.0  0.5125298066022317  0.3383014367026058  0.2597431841604408  1.0000
  H   H628      1.0  0.5249797248289766  0.3191559432964068  0.22121384879851874  1.0000
  N   N32       1.0  0.03435494410992379  0.20936962736352824  0.6264489435025417  1.0000
  C   C509      1.0  0.024833384267524794  0.18631997703669634  0.6507987809473346  1.0000
  C   C510      1.0  0.028499586114519415  0.20636356211940268  0.5825955762821148  1.0000
  C   C511      1.0  0.053865497021823305  0.20235650347621653  0.6329159400365498  1.0000
  C   C512      1.0  0.03029789066476729  0.24262977464849414  0.6395856241770429  1.0000
  H   H629      1.0  0.029146996689830118  0.18818543242084346  0.6840247342720056  1.0000
  H   H630      1.0  0.027582973858141457  0.160916929032151  0.6417871654389952  1.0000
  H   H631      1.0  0.010078811601970994  0.1910936690120505  0.6469177314339096  1.0000
  H   H632      1.0  0.0357173728297715  0.22331152710908328  0.5636746816056234  1.0000
  H   H633      1.0  0.031185995453774318  0.18150027332303445  0.5715676004632272  1.0000
  H   H634      1.0  0.013906151616488449  0.21219173334972588  0.5763079630669351  1.0000
  H   H635      1.0  0.06146111969201962  0.21928549692069446  0.6148217566462982  1.0000
  H   H636      1.0  0.05745363828333483  0.17737767203732047  0.623634897201875  1.0000
  H   H637      1.0  0.05879219599139596  0.20478024241075996  0.6656521128103982  1.0000
  H   H638      1.0  0.03789277392606194  0.26044186350223325  0.6230893821207122  1.0000
  H   H639      1.0  0.03400233484934545  0.24559102174947645  0.6728101355954526  1.0000
  H   H640      1.0  0.01581256824920607  0.24939949251477028  0.6336201082875137  1.0000
  N   N33       1.0  0.7923517211864042  0.23551600093252764  0.9951991664754904  1.0000
  C   C513      1.0  0.7870791067792537  0.26706662401704645  0.9755247044525527  1.0000
  C   C514      1.0  0.7935508623819352  0.2390560870610176  0.04004089849407588  1.0000
  C   C515      1.0  0.8099976808076197  0.22438726575237422  0.9826493522766223  1.0000
  C   C516      1.0  0.7787920022655318  0.21158774613042278  0.9826839372447558  1.0000
  H   H641      1.0  0.7862862797163074  0.26561205350686584  0.9416692698257612  1.0000
  H   H642      1.0  0.7967783144529393  0.2859501693096524  0.9850892976326227  1.0000
  H   H643      1.0  0.7737361902301892  0.2758442121309609  0.9843084836669458  1.0000
  H   H644      1.0  0.7984091611294701  0.21628961395111537  0.05603160368332949  1.0000
  H   H645      1.0  0.8029121549796577  0.25825699760465387  0.05034751361037748  1.0000
  H   H646      1.0  0.7802882422589501  0.24587196530082348  0.050887416804443086  1.0000
  H   H647      1.0  0.8142860219200101  0.20054281943955124  0.9971188908935446  1.0000
  H   H648      1.0  0.8205474885914306  0.24184129082338116  0.9918380990818667  1.0000
  H   H649      1.0  0.8096374249079797  0.2214021618450085  0.948995652246372  1.0000
  H   H650      1.0  0.7829424856527373  0.1870319547812494  0.9946595796820032  1.0000
  H   H651      1.0  0.7766994252434417  0.20978873181939245  0.9489124779437008  1.0000
  H   H652      1.0  0.7655642350271001  0.2178592424469594  0.9943096021717049  1.0000
  N   N34       1.0  0.3672220217984856  0.5843793144403588  0.539306757121836  1.0000
  C   C517      1.0  0.3755813549894482  0.6107210213788713  0.5632972834123489  1.0000
  C   C518      1.0  0.35495776742184937  0.567080073562181  0.5642504024179729  1.0000
  C   C519      1.0  0.3812819319895047  0.561512557357465  0.5268015629418199  1.0000
  C   C520      1.0  0.35692287375521375  0.5982260154244731  0.5026211302696915  1.0000
  H   H653      1.0  0.3652537383188819  0.6284277601647567  0.5728772578016849  1.0000
  H   H654      1.0  0.3848858323112746  0.6241987385915421  0.545159936021566  1.0000
  H   H655      1.0  0.38341356579438546  0.6012149232591075  0.5914076959298391  1.0000
  H   H656      1.0  0.3438386447538773  0.5834626358220035  0.5730552809492314  1.0000
  H   H657      1.0  0.34869841755288244  0.5467108033575218  0.5470119039793904  1.0000
  H   H658      1.0  0.362132095268236  0.5567523657761371  0.592687241392121  1.0000
  H   H659      1.0  0.38980483302594066  0.5514355852713493  0.5535821934301728  1.0000
  H   H660      1.0  0.3902002293707872  0.5732634389539149  0.50596390825211  1.0000
  H   H661      1.0  0.375315286324981  0.5406848844751138  0.5100133990475515  1.0000
  H   H662      1.0  0.3502790571003664  0.5789072244302506  0.48438523561419333  1.0000
  H   H663      1.0  0.36568429470077474  0.6109859201223261  0.48242758849503975  1.0000
  H   H664      1.0  0.3462302222912363  0.6157733586575034  0.5107108012938  1.0000
  N   N35       1.0  0.8984602502685957  0.9901514765641063  0.2075403184983279  1.0000
  C   C521      1.0  0.9124210536763852  0.01320929365485024  0.1994504271168998  1.0000
  C   C522      1.0  0.8847653311573069  0.00652271826379569  0.23062107191420791  1.0000
  C   C523      1.0  0.906706094806406  0.962336591854061  0.23167528453325908  1.0000
  C   C524      1.0  0.8899977145747744  0.978650540794117  0.16836145804935992  1.0000
  H   H665      1.0  0.9229776413394553  0.0016772270950198287  0.18208398563139727  1.0000
  H   H666      1.0  0.9192474584201753  0.02214373715196638  0.22836894299694954  1.0000
  H   H667      1.0  0.9067995236616399  0.034608627910015954  0.18126326987556574  1.0000
  H   H668      1.0  0.8740205615758352  0.9898298901413075  0.23737425139908752  1.0000
  H   H669      1.0  0.8908124442220918  0.015642827578925544  0.2602488496228364  1.0000
  H   H670      1.0  0.8783353178647437  0.027637391649526277  0.21311130364402336  1.0000
  H   H671      1.0  0.8967290905168642  0.9439064540618984  0.2375105390427334  1.0000
  H   H672      1.0  0.9129425527759106  0.9701057551829857  0.2618112955891232  1.0000
  H   H673      1.0  0.9176199510703574  0.9502107885865909  0.21576635874426614  1.0000
  H   H674      1.0  0.8836816239465474  0.9990945318782931  0.14940005713689578  1.0000
  H   H675      1.0  0.8793851926213442  0.9611531251077313  0.17306878052997626  1.0000
  H   H676      1.0  0.9000463393965888  0.9663592403093059  0.1501513052384486  1.0000
  N   N36       1.0  0.6296308607759682  0.6946532527944586  0.8089220828861697  1.0000
  C   C525      1.0  0.6359894574315192  0.7279590224370669  0.813475504112392  1.0000
  C   C526      1.0  0.6161138166607621  0.6890511609917446  0.8381872325389216  1.0000
  C   C527      1.0  0.6448433956921452  0.6712470129162517  0.8173326088214865  1.0000
  C   C528      1.0  0.6214652903735038  0.690379202851347  0.766861017173434  1.0000
  H   H677      1.0  0.6247793865003968  0.7460840190559311  0.8066910543046537  1.0000
  H   H678      1.0  0.6464515829592301  0.7329975424610173  0.7924112294575634  1.0000
  H   H679      1.0  0.641727808603683  0.7323332578678017  0.8452727662013222  1.0000
  H   H680      1.0  0.6217603081864349  0.6917302452449909  0.8703237815857839  1.0000
  H   H681      1.0  0.6046284208816011  0.7067092205482943  0.8330282947773937  1.0000
  H   H682      1.0  0.6107198371012743  0.6643840793378083  0.8352447724727813  1.0000
  H   H683      1.0  0.6403695754166783  0.6459131493900203  0.8142415098441624  1.0000
  H   H684      1.0  0.6512042162988684  0.673913158485939  0.848952665148157  1.0000
  H   H685      1.0  0.6553324625989861  0.6747119740052789  0.7957883878151254  1.0000
  H   H686      1.0  0.6158908672821497  0.6658741971656381  0.7627606130561073  1.0000
  H   H687      1.0  0.6313377812298304  0.693631793059491  0.7438365496763282  1.0000
  H   H688      1.0  0.6101760482467619  0.7082419730207414  0.7593489721203517  1.0000
  N   N37       1.0  0.5302746242176497  0.8651307470738124  0.9304241537908369  1.0000
  C   C529      1.0  0.5476294081945009  0.8601227364033966  0.954916180468544  1.0000
  C   C530      1.0  0.5334775725046614  0.8730870163394158  0.8877176751545865  1.0000
  C   C531      1.0  0.5200076620877971  0.892048718961487  0.9476848361444903  1.0000
  C   C532      1.0  0.5199983728739368  0.8352914267034468  0.9315495905543546  1.0000
  H   H689      1.0  0.5555568867879144  0.8395232653695324  0.9432796494983781  1.0000
  H   H690      1.0  0.5457564275410594  0.8548430213432858  0.9875100995611846  1.0000
  H   H691      1.0  0.5560150770468373  0.8817914097251245  0.9537849520830756  1.0000
  H   H692      1.0  0.5413729982366617  0.8953241013754238  0.8857937573527902  1.0000
  H   H693      1.0  0.5412937161212382  0.8533797942615079  0.8738243576475507  1.0000
  H   H694      1.0  0.5207118139303383  0.8770462121906083  0.8682132696393603  1.0000
  H   H695      1.0  0.5274258942859498  0.9149163460670869  0.9473421811552037  1.0000
  H   H696      1.0  0.517401865648978  0.8868148668893066  0.9799696152913422  1.0000
  H   H697      1.0  0.5067953158781434  0.8964609967671323  0.9300319161717988  1.0000
  H   H698      1.0  0.5070774221648713  0.837682744789847  0.912279983314048  1.0000
  H   H699      1.0  0.5168336114563812  0.8293374914925317  0.9631963183974879  1.0000
  H   H700      1.0  0.5276568651936453  0.8140939708411271  0.9203667476390849  1.0000
  N   N38       1.0  0.2801049573277281  0.034595438866468875  0.6291710426847801  1.0000
  C   C533      1.0  0.2712124972139331  0.026172489264627567  0.5890853182672847  1.0000
  C   C534      1.0  0.2683796040245955  0.026581741781259265  0.6615460116947766  1.0000
  C   C535      1.0  0.28351304150437806  0.06958938609518862  0.6296637289930497  1.0000
  C   C536      1.0  0.2973012579891132  0.015975353783445723  0.6360672806032902  1.0000
  H   H701      1.0  0.26783820038851164  0.00018920180610515578  0.5877961128847932  1.0000
  H   H702      1.0  0.28014736080239705  0.03051540457778557  0.5645157674468094  1.0000
  H   H703      1.0  0.2586718563397633  0.04099705904087858  0.5814644489573249  1.0000
  H   H704      1.0  0.2745962531576057  0.03286924071367637  0.6922546362110186  1.0000
  H   H705      1.0  0.25521443767432156  0.03996778631589515  0.6567381007409024  1.0000
  H   H706      1.0  0.2656803176867447  0.0002628980331202962  0.661941740145003  1.0000
  H   H707      1.0  0.2905388709942505  0.07689739029963158  0.6590995884452331  1.0000
  H   H708      1.0  0.2707970706067845  0.08438096894424055  0.6247457620151476  1.0000
  H   H709      1.0  0.29190310998374347  0.07652663842201211  0.6047188113481315  1.0000
  H   H710      1.0  0.30654121707519605  0.021886308274278395  0.6123631097790075  1.0000
  H   H711      1.0  0.2952745192526854  0.9894457036584082  0.6343145112298121  1.0000
  H   H712      1.0  0.30429497402055355  0.021052990568592115  0.6663807307759505  1.0000
  N   N39       1.0  0.8543012167408928  0.6148157920789209  0.013020372173838446  1.0000
  C   C537      1.0  0.8463132859531891  0.5969606783604055  0.045725083319324566  1.0000
  C   C538      1.0  0.8472288204348757  0.6029138465632702  0.972790552857032  1.0000
  C   C539      1.0  0.8739855475526653  0.6095721345947905  0.01765980332901762  1.0000
  C   C540      1.0  0.849587096490166  0.6496189915778051  0.015945579301279933  1.0000
  H   H713      1.0  0.8516096404521868  0.6046964276097891  0.07659808401170011  1.0000
  H   H714      1.0  0.8492819444866117  0.5705738169446812  0.04379973308439866  1.0000
  H   H715      1.0  0.8314742253050093  0.6007163575309128  0.04360096517137224  1.0000
  H   H716      1.0  0.8323926349269681  0.6063253965989565  0.968299289890584  1.0000
  H   H717      1.0  0.8529817208526194  0.6157600219171847  0.9473186896289806  1.0000
  H   H718      1.0  0.850414877302091  0.5766395482259862  0.969621360343708  1.0000
  H   H719      1.0  0.8777678556513924  0.5834284328161267  0.015024564775119265  1.0000
  H   H720      1.0  0.8797854364308522  0.6175439180313481  0.048053797437762155  1.0000
  H   H721      1.0  0.8805453127301021  0.6228743495228067  0.993730944779876  1.0000
  H   H722      1.0  0.8553069192223259  0.6639410232961712  0.9916400994169645  1.0000
  H   H723      1.0  0.8546023383422452  0.6593682461785545  0.04603964430859353  1.0000
  H   H724      1.0  0.8347367333027363  0.6539672040189732  0.012543902877692137  1.0000
  N   N40       1.0  0.23673298059671505  0.8539201073597036  0.09817657879307903  1.0000
  C   C541      1.0  0.2340895918690872  0.8867338563959323  0.11445409832366228  1.0000
  C   C542      1.0  0.2526190166099546  0.8529897147247337  0.07435183390924803  1.0000
  C   C543      1.0  0.22075862687146233  0.8455640264150194  0.07139706702329043  1.0000
  C   C544      1.0  0.23947696403650484  0.8303720804639168  0.13245091621429528  1.0000
  H   H725      1.0  0.2459730047638478  0.8940004088839149  0.13451877850885666  1.0000
  H   H726      1.0  0.22228553772276263  0.8884739757857802  0.13281255998958777  1.0000
  H   H727      1.0  0.2319176463424863  0.9052198926021363  0.08948782346120357  1.0000
  H   H728      1.0  0.2545210616213815  0.8290883726459115  0.059893762626843254  1.0000
  H   H729      1.0  0.25145206845553264  0.8716236471060653  0.049491011425158944  1.0000
  H   H730      1.0  0.2650880518742908  0.8573605540507596  0.09405934768621681  1.0000
  H   H731      1.0  0.22234619394379743  0.8208203431379775  0.05880501089132095  1.0000
  H   H732      1.0  0.21842366993543727  0.8628120307760927  0.04509726428615646  1.0000
  H   H733      1.0  0.20848180906154892  0.846180525574599  0.08828382319777826  1.0000
  H   H734      1.0  0.24126946507523125  0.8052799887443328  0.12124616688271161  1.0000
  H   H735      1.0  0.22786109506863084  0.8307363843811794  0.15144759800418606  1.0000
  H   H736      1.0  0.251662003325688  0.8356114395422356  0.15276809191415608  1.0000
  N   N41       1.0  0.8514761355902122  0.34668134149954655  0.5094361909411231  1.0000
  C   C545      1.0  0.8704399460080489  0.3362416289376173  0.5190418938647695  1.0000
  C   C546      1.0  0.8400566867341019  0.3279174411611796  0.5348886988354322  1.0000
  C   C547      1.0  0.8462771331777701  0.3409027656545544  0.46584378591702297  1.0000
  C   C548      1.0  0.8490584225262933  0.3814862365255656  0.5178247451573874  1.0000
  H   H737      1.0  0.8724763730398776  0.30990940489219704  0.5134674717071933  1.0000
  H   H738      1.0  0.874945446933517  0.34052951853211794  0.5515974615581497  1.0000
  H   H739      1.0  0.8794647502723112  0.34927646750143376  0.49972374679587445  1.0000
  H   H740      1.0  0.8256215085992228  0.334933124668358  0.5281567155717091  1.0000
  H   H741      1.0  0.8415767275515363  0.3014920288734433  0.5293061167417625  1.0000
  H   H742      1.0  0.8435201403635991  0.3317565391830103  0.5680111119990515  1.0000
  H   H743      1.0  0.8469970273387326  0.3147175808894251  0.459139607176971  1.0000
  H   H744      1.0  0.855187605784536  0.35320308235263614  0.4455795311878901  1.0000
  H   H745      1.0  0.8322798360137591  0.34964872485040727  0.4569283747141957  1.0000
  H   H746      1.0  0.8347829646449355  0.3897690965619243  0.5109156328169537  1.0000
  H   H747      1.0  0.8573683473911844  0.3963799538661822  0.49885009834351274  1.0000
  H   H748      1.0  0.8528522874099544  0.38680297810982117  0.5504764465267548  1.0000
  N   N42       1.0  0.6218273818163079  0.1743175309875492  0.8817647202902982  1.0000
  C   C549      1.0  0.6395109987282375  0.17061693797144856  0.905234452805583  1.0000
  C   C550      1.0  0.6075341667368473  0.1703177880913781  0.9096385988876385  1.0000
  C   C551      1.0  0.6202113967683237  0.1496280220539973  0.8495724576230582  1.0000
  C   C552      1.0  0.6200297490605102  0.2068684471389212  0.8626786206853246  1.0000
  H   H749      1.0  0.6506364732546996  0.17388417635781964  0.8853178912189538  1.0000
  H   H750      1.0  0.6414197706267767  0.14632616858188746  0.9200878079272371  1.0000
  H   H751      1.0  0.6409886241245708  0.18896448116177286  0.9298519690046843  1.0000
  H   H752      1.0  0.5940049897670701  0.17276960204031552  0.892993577656183  1.0000
  H   H753      1.0  0.6086112264592333  0.14616169851973734  0.9249750277323765  1.0000
  H   H754      1.0  0.6081902495507683  0.1888663919682151  0.9339918158154029  1.0000
  H   H755      1.0  0.6070729459825615  0.15219453712169326  0.8310084376087092  1.0000
  H   H756      1.0  0.621219182425309  0.12470439515591106  0.8628016924054991  1.0000
  H   H757      1.0  0.6308610938124845  0.15173899930899662  0.8281256626810871  1.0000
  H   H758      1.0  0.6066311524802911  0.21104429488959342  0.8459999407063692  1.0000
  H   H759      1.0  0.6302141710279382  0.21049067012208486  0.8404477262772402  1.0000
  H   H760      1.0  0.6217193165395521  0.22608570768891287  0.8859356451564449  1.0000
  N   N43       1.0  0.9962042898661829  0.6352689744340679  0.09224493374917464  1.0000
  C   C553      1.0  0.00012296398435274192  0.6086565380044641  0.12224987834673673  1.0000
  C   C554      1.0  0.9766116922548612  0.6387491726408157  0.08229255243192557  1.0000
  C   C555      1.0  0.005055170131283537  0.6278322923604159  0.05471268018732456  1.0000
  C   C556      1.0  0.0029877016602772866  0.6656401850308576  0.10993613745376085  1.0000
  H   H761      1.0  0.014783664179304434  0.6034224464102822  0.1281031993434012  1.0000
  H   H762      1.0  0.9936881558498053  0.586100852249991  0.11154238185019594  1.0000
  H   H763      1.0  0.9949815548800268  0.6145429174332656  0.15211529363152665  1.0000
  H   H764      1.0  0.973090510923772  0.6588246528100529  0.060013532976947115  1.0000
  H   H765      1.0  0.9710687881974801  0.6161799675603928  0.06890149072011797  1.0000
  H   H766      1.0  0.9695159705743558  0.6438844628560263  0.11011683508091807  1.0000
  H   H767      1.0  0.0025387434603347803  0.6474684032698419  0.03136789995808331  1.0000
  H   H768      1.0  9.768837424961596e-05  0.6050776453663237  0.04071098270651152  1.0000
  H   H769      1.0  0.019852879121552647  0.6244433118185392  0.061130274138639695  1.0000
  H   H770      1.0  0.00035380421579866983  0.6863326277857615  0.0881427137674704  1.0000
  H   H771      1.0  0.017695817289673066  0.6636118192110845  0.11833116103628338  1.0000
  H   H772      1.0  0.9964127384075628  0.6718044311403669  0.13825458981153504  1.0000
  N   N44       1.0  0.6805318410429522  0.6964883799952241  0.07298605478231368  1.0000
  C   C557      1.0  0.6710628723584248  0.727798246411389  0.07890546443057206  1.0000
  C   C558      1.0  0.6928563582883321  0.6999416091950595  0.040493773850923676  1.0000
  C   C559      1.0  0.6673092795630962  0.6718833885923987  0.060975822928213956  1.0000
  C   C560      1.0  0.6909203891891057  0.6862448664663804  0.11146022014317868  1.0000
  H   H773      1.0  0.6623688348896849  0.7266401474051869  0.10464525205879607  1.0000
  H   H774      1.0  0.6623399882834429  0.7353999393513245  0.05114513601025787  1.0000
  H   H775      1.0  0.6806337883197303  0.7474943251448269  0.08557780212780601  1.0000
  H   H776      1.0  0.7025678947735302  0.7192414789485139  0.047776986712575534  1.0000
  H   H777      1.0  0.7009145441729934  0.6772471354177804  0.03661204986964539  1.0000
  H   H778      1.0  0.685497322667183  0.7061987314542209  0.010581827719819081  1.0000
  H   H779      1.0  0.6740437825091109  0.6480157181617198  0.056105521367854204  1.0000
  H   H780      1.0  0.6592594131217273  0.6789856573049342  0.03198379099591264  1.0000
  H   H781      1.0  0.6577805471081029  0.668630579815052  0.08479040307866302  1.0000
  H   H782      1.0  0.701025752874742  0.7043026226193311  0.12127780281449053  1.0000
  H   H783      1.0  0.6985513379876765  0.6630281811003182  0.10782851347793769  1.0000
  H   H784      1.0  0.6821425219381307  0.6831341554843273  0.13675712337844603  1.0000
  N   N45       1.0  0.8844273554888653  0.010099849383593984  0.9298093029176359  1.0000
  C   C561      1.0  0.8925280814266273  0.018527016639510396  0.8917780574847105  1.0000
  C   C562      1.0  0.8830435810617373  0.03925103364369087  0.9551058430659679  1.0000
  C   C563      1.0  0.8957805626152433  0.9850279908421472  0.9527629039618026  1.0000
  C   C564      1.0  0.8663403356147923  0.9976349825687877  0.9196415631847404  1.0000
  H   H785      1.0  0.8938408919484538  0.9970567286735265  0.8719895648900969  1.0000
  H   H786      1.0  0.906148551511435  0.028206633867641884  0.8984163007418126  1.0000
  H   H787      1.0  0.8841876318166586  0.03725653799740969  0.8736691676535036  1.0000
  H   H788      1.0  0.8765715444545756  0.03387265014217645  0.9834700889834377  1.0000
  H   H789      1.0  0.8964556637836781  0.04883454769790841  0.9645815112777499  1.0000
  H   H790      1.0  0.8748088477712621  0.058924386854233984  0.9385997101133416  1.0000
  H   H791      1.0  0.8973677320896605  0.962835070135421  0.9344268578088711  1.0000
  H   H792      1.0  0.8898093436562846  0.9776731308747626  0.981190724786683  1.0000
  H   H793      1.0  0.9093878049033037  0.9938577986508382  0.9620276258369657  1.0000
  H   H794      1.0  0.8599515818922543  0.9905997203496665  0.9476889860460254  1.0000
  H   H795      1.0  0.8667720220083164  0.9758817342699999  0.9001193467124755  1.0000
  H   H796      1.0  0.8572700854286425  0.016102513221600615  0.9029437963393192  1.0000
  N   N46       1.0  0.4294130536125287  0.6744344111946687  0.31533396051301155  1.0000
  C   C565      1.0  0.43485395042248665  0.6724975967013148  0.27323297378747124  1.0000
  C   C566      1.0  0.44470461233317593  0.6642261711758712  0.3445548065791916  1.0000
  C   C567      1.0  0.4143080232965367  0.6529300847709169  0.31969964588559774  1.0000
  C   C568      1.0  0.42380381485036805  0.7080978526065276  0.3237877512267992  1.0000
  H   H797      1.0  0.42367761172171514  0.6798670901096928  0.2502206530037204  1.0000
  H   H798      1.0  0.43931193373747895  0.6474323980460245  0.26596003044105904  1.0000
  H   H799      1.0  0.44613818966588903  0.6885917471489097  0.2687748500340023  1.0000
  H   H800      1.0  0.456347457365878  0.6800148585914771  0.34232173360453283  1.0000
  H   H801      1.0  0.44095462710422195  0.6645151649244714  0.3766278181401742  1.0000
  H   H802      1.0  0.44951357512168  0.6391831085582066  0.33867964521862687  1.0000
  H   H803      1.0  0.4098143635369291  0.6536756000153535  0.35114149145402446  1.0000
  H   H804      1.0  0.4181816371835626  0.6272603920312226  0.3138698452786564  1.0000
  H   H805      1.0  0.40256450050032605  0.6596847767703303  0.29797028906783685  1.0000
  H   H806      1.0  0.43493107511399204  0.7249223407526412  0.3205737772742379  1.0000
  H   H807      1.0  0.4196452323511993  0.7103962739226987  0.3554004207099284  1.0000
  H   H808      1.0  0.41230100321893887  0.7166236340729507  0.30227919407592985  1.0000
  N   N47       1.0  0.716769256977119  0.9109070855949801  0.5332814310898345  1.0000
  C   C569      1.0  0.7217359889435738  0.9378952062723204  0.5071294986274122  1.0000
  C   C570      1.0  0.7261791094556438  0.8808094012422037  0.5217979270848874  1.0000
  C   C571      1.0  0.6971778296150007  0.9070682469171449  0.5278197396159918  1.0000
  C   C572      1.0  0.7220212507641681  0.9180222565979044  0.5765084140548967  1.0000
  H   H809      1.0  0.715217940909365  0.9611898984178333  0.5156783681703863  1.0000
  H   H810      1.0  0.717681034620959  0.9336497809281553  0.474331753369155  1.0000
  H   H811      1.0  0.736506071652222  0.941030382706774  0.5099473619408186  1.0000
  H   H812      1.0  0.7229117270436931  0.8598906378595934  0.5410616235423686  1.0000
  H   H813      1.0  0.7226628845271396  0.874700498930432  0.4892751927063507  1.0000
  H   H814      1.0  0.7409953189537711  0.8831231557648339  0.5257276314693379  1.0000
  H   H815      1.0  0.6929597606257711  0.8870287036352446  0.5473271423308024  1.0000
  H   H816      1.0  0.6926783278063496  0.9016930981424702  0.49553913327241356  1.0000
  H   H817      1.0  0.6898258438532596  0.9295721436152456  0.5363224936164872  1.0000
  H   H818      1.0  0.7190976755168774  0.8977772752548926  0.5971909021970525  1.0000
  H   H819      1.0  0.7149214851952148  0.9401924207755372  0.5866226943865611  1.0000
  H   H820      1.0  0.7365868812619912  0.9221070148096622  0.5813829077839762  1.0000
  N   N48       1.0  0.1314339604732186  0.3847694917017816  0.7457798302072922  1.0000
  C   C573      1.0  0.12179280434433164  0.3624585215918674  0.7708636811688672  1.0000
  C   C574      1.0  0.125453517799182  0.38071153437154315  0.7022065504341364  1.0000
  C   C575      1.0  0.15091011232906276  0.37729291503536716  0.7522232156111679  1.0000
  C   C576      1.0  0.12747069654241314  0.4184227198258735  0.7577053315035045  1.0000
  H   H821      1.0  0.12559909515079434  0.3653636341138934  0.8040311557101097  1.0000
  H   H822      1.0  0.12475854677560322  0.33678201049350753  0.7632668650048736  1.0000
  H   H823      1.0  0.10703355459263554  0.36684714708177646  0.7657863740257724  1.0000
  H   H824      1.0  0.12782657580857432  0.3553622618279717  0.69256933618241  1.0000
  H   H825      1.0  0.11086060122739462  0.3866518732219593  0.6960345101008364  1.0000
  H   H826      1.0  0.13272613133134506  0.39658064116606034  0.6821621451344346  1.0000
  H   H827      1.0  0.15592701876445425  0.3799122429776715  0.7848144632913878  1.0000
  H   H828      1.0  0.15864937280490615  0.39348021159955343  0.7335398599393136  1.0000
  H   H829      1.0  0.1541576714409973  0.35194170397687097  0.7433379296323371  1.0000
  H   H830      1.0  0.13441939057170824  0.4360144834847438  0.7392561141768853  1.0000
  H   H831      1.0  0.13170461170069514  0.4223822365302521  0.790504164137187  1.0000
  H   H832      1.0  0.11279694305025194  0.42446109497936585  0.7531396396255309  1.0000
  N   N49       1.0  0.7509980641271066  0.4241880131785037  0.9679906233850152  1.0000
  C   C577      1.0  0.7410190723292894  0.39580379073522565  0.9531601177522253  1.0000
  C   C578      1.0  0.7478807553567274  0.4297911441399036  0.011185562856873776  1.0000
  C   C579      1.0  0.7448035143862224  0.45305016692351924  0.9432333313130358  1.0000
  C   C580      1.0  0.7703527290848763  0.4180861038983598  0.9644978872119978  1.0000
  H   H833      1.0  0.7454216179580708  0.37365363114282557  0.9713982950712737  1.0000
  H   H834      1.0  0.7431389701711894  0.3908439754659519  0.9206569721448816  1.0000
  H   H835      1.0  0.7263522362265648  0.39949348982607585  0.9554959721511884  1.0000
  H   H836      1.0  0.7556777875546388  0.450432636861321  0.023852971658895106  1.0000
  H   H837      1.0  0.7334941495653732  0.43522968236633014  0.015044659403492755  1.0000
  H   H838      1.0  0.7520359570033434  0.4081455262555468  0.030419863937248826  1.0000
  H   H839      1.0  0.7303102180611812  0.45870501848454653  0.9454213440496754  1.0000
  H   H840      1.0  0.7469650409015152  0.4496365114968952  0.9104031760243487  1.0000
  H   H841      1.0  0.7523600043556266  0.47469693684714365  0.9533451598635467  1.0000
  H   H842      1.0  0.7733670660541347  0.4151137828478657  0.9321111481014253  1.0000
  H   H843      1.0  0.7753896429176486  0.39590724176899345  0.9817068748394787  1.0000
  H   H844      1.0  0.7783288249070531  0.4385696303048764  0.9767971029776216  1.0000
  N   N50       1.0  0.2442142013473154  0.7991700699820229  0.8404856165034371  1.0000
  C   C581      1.0  0.2574158487882118  0.7920316457554134  0.8756801009721915  1.0000
  C   C582      1.0  0.23541510226423237  0.8311872817124096  0.8454990217434508  1.0000
  C   C583      1.0  0.23061529253401283  0.7740201937163358  0.8380083364372254  1.0000
  C   C584      1.0  0.2534530074399887  0.7994024332488624  0.8025421062121038  1.0000
  H   H845      1.0  0.25103272926131615  0.7921263643678933  0.9050196155367168  1.0000
  H   H846      1.0  0.2681907753361433  0.810007651780685  0.8779707685607786  1.0000
  H   H847      1.0  0.26409561244178453  0.7677925587332636  0.8730155923569572  1.0000
  H   H848      1.0  0.24538006105476876  0.8506246033091529  0.8471299002129384  1.0000
  H   H849      1.0  0.2253941075505214  0.837146336891887  0.8192153159108719  1.0000
  H   H850      1.0  0.22830775562367606  0.8320511550767363  0.8738613819984377  1.0000
  H   H851      1.0  0.2204585751812393  0.7785722117278365  0.8116859724136223  1.0000
  H   H852      1.0  0.22338448042584974  0.773083562323887  0.8661739872884776  1.0000
  H   H853      1.0  0.23686975678349817  0.7496286470574659  0.8337979230737196  1.0000
  H   H854      1.0  0.24405384190475846  0.8058592617029894  0.7755349609283837  1.0000
  H   H855      1.0  0.2596063923287566  0.775276554912086  0.7967997034665902  1.0000
  H   H856      1.0  0.2642564742397054  0.8172927190486349  0.8037526053494015  1.0000
  N   N51       1.0  0.49533074923652254  0.08794165930644414  0.2551881375800304  1.0000
  C   C585      1.0  0.507296180982786  0.06214579512214878  0.274839912913906  1.0000
  C   C586      1.0  0.4769467472472104  0.07601979343316262  0.24871935397219636  1.0000
  C   C587      1.0  0.5016561641359154  0.09702946510581242  0.21535857712492665  1.0000
  C   C588      1.0  0.4953681527915201  0.11655169105497283  0.28175829803592883  1.0000
  H   H857      1.0  0.5213235254683652  0.07006136482941454  0.2801790274725938  1.0000
  H   H858      1.0  0.5073542100709352  0.03995784746144748  0.2559411907394048  1.0000
  H   H859      1.0  0.5027869737430973  0.05475294849884404  0.30488752334615477  1.0000
  H   H860      1.0  0.4714325192035453  0.07033559624126283  0.27827178213840775  1.0000
  H   H861      1.0  0.46769478973375067  0.09416111751251673  0.23218982196514604  1.0000
  H   H862      1.0  0.4765635695360579  0.0534369170502879  0.2306042295701265  1.0000
  H   H863      1.0  0.49283544796181916  0.11651735309071128  0.19986818337043338  1.0000
  H   H864      1.0  0.5017006833398391  0.07602924674109024  0.19448121410087119  1.0000
  H   H865      1.0  0.5154846788707665  0.1061984231123402  0.21902818981297764  1.0000
  H   H866      1.0  0.4871625626519187  0.13701118800062095  0.2669450338228613  1.0000
  H   H867      1.0  0.5091234326961885  0.1253331374883427  0.2889246168838086  1.0000
  H   H868      1.0  0.4897265864420841  0.1111622273479502  0.3113302769414535  1.0000
  N   N52       1.0  0.3727159959964151  0.28099855611706875  0.9053211476357641  1.0000
  C   C589      1.0  0.35837225533436773  0.2595767340661276  0.9159365526374739  1.0000
  C   C590      1.0  0.3851851306033309  0.26298104092627395  0.8806302524158162  1.0000
  C   C591      1.0  0.38254854623471074  0.29216038525242854  0.9431926045525523  1.0000
  C   C592      1.0  0.3646822905944962  0.3092144154333746  0.8816433833720894  1.0000
  H   H869      1.0  0.3638321280798153  0.23798411385088275  0.9339735767125089  1.0000
  H   H870      1.0  0.350277730565311  0.251257171234548  0.8882822391684644  1.0000
  H   H871      1.0  0.34898387437902645  0.27238868190634186  0.9350246639743688  1.0000
  H   H872      1.0  0.3961927373346594  0.27843417777987  0.8720580547298491  1.0000
  H   H873      1.0  0.39142882648707955  0.24156155542488103  0.8978100779421812  1.0000
  H   H874      1.0  0.37810768903114667  0.2541415425895841  0.8519381597969188  1.0000
  H   H875      1.0  0.3936754474036254  0.30805399507504627  0.9366777499420538  1.0000
  H   H876      1.0  0.3883571672000911  0.2714510124002281  0.9624597896645687  1.0000
  H   H877      1.0  0.3735018582314222  0.30613349862000344  0.9622218339457732  1.0000
  H   H878      1.0  0.37505371333316767  0.3259281749847187  0.8728071112920051  1.0000
  H   H879      1.0  0.3552027023028323  0.3233459833765278  0.8995148335758453  1.0000
  H   H880      1.0  0.35678372095214633  0.3016756410819468  0.8532736437110722  1.0000
  N   N53       1.0  0.2980383420571646  0.34284241351976474  0.5246834704559881  1.0000
  C   C593      1.0  0.3082529515016628  0.37281863473024024  0.5253027801847564  1.0000
  C   C594      1.0  0.3009144679350881  0.32647572294326227  0.5650025212882128  1.0000
  C   C595      1.0  0.3041170920206624  0.32099093890552327  0.49296821275594777  1.0000
  C   C596      1.0  0.2787682564108197  0.351045342795599  0.5156062942796084  1.0000
  H   H881      1.0  0.3061308407167483  0.3862338241401708  0.49564992248130185  1.0000
  H   H882      1.0  0.3228865766323742  0.36761504862258904  0.5317311117049748  1.0000
  H   H883      1.0  0.3040040593765296  0.3894532483112031  0.5494260144933085  1.0000
  H   H884      1.0  0.29658677758412705  0.34239093662091985  0.58972432274853  1.0000
  H   H885      1.0  0.293173274544402  0.3039869807964552  0.5658675890682514  1.0000
  H   H886      1.0  0.3152791267546927  0.3196233314727827  0.5727974851566693  1.0000
  H   H887      1.0  0.2965901287594789  0.2981357712482465  0.4921504021077529  1.0000
  H   H888      1.0  0.31861312164207795  0.31422318929248594  0.4988085804548245  1.0000
  H   H889      1.0  0.3020290768431928  0.33246508733282165  0.46207744047881294  1.0000
  H   H890      1.0  0.2760908152884668  0.36417480132527796  0.4858931417984814  1.0000
  H   H891      1.0  0.27366569311266553  0.36684421762734076  0.5395124889991281  1.0000
  H   H892      1.0  0.2706700264745958  0.3289396576097395  0.5142512107427311  1.0000
  N   N54       1.0  0.9206675154743755  0.4411498600949719  0.2305920136696862  1.0000
  C   C597      1.0  0.9113475906906302  0.4487681583902635  0.19000405674854462  1.0000
  C   C598      1.0  0.9365464056125617  0.4198446955206853  0.22571293213233978  1.0000
  C   C599      1.0  0.9083771741786263  0.4245480058351217  0.2561499938854237  1.0000
  C   C600      1.0  0.926391500908244  0.4714060479018283  0.25054993331882247  1.0000
  H   H893      1.0  0.8992574899742825  0.4648107346428428  0.19246497493225703  1.0000
  H   H894      1.0  0.9069099818965354  0.4265760919222623  0.1738548858104472  1.0000
  H   H895      1.0  0.9201742656969571  0.46166477288095353  0.17004543319595958  1.0000
  H   H896      1.0  0.9328315964607746  0.397081953279317  0.20992541819330002  1.0000
  H   H897      1.0  0.9463620923887913  0.4319922276675898  0.20757702354971988  1.0000
  H   H898      1.0  0.9436260271312414  0.41293071264328196  0.25580605169689596  1.0000
  H   H899      1.0  0.9038078690224427  0.4015796125112356  0.24205679087829732  1.0000
  H   H900      1.0  0.8962400176138734  0.44000320655021613  0.26039949217127323  1.0000
  H   H901      1.0  0.9150164091645202  0.41842411195070983  0.2870062532574783  1.0000
  H   H902      1.0  0.9335106489558581  0.4666718925636109  0.28126873884400866  1.0000
  H   H903      1.0  0.9147983865637688  0.4884155139502918  0.25397506756074956  1.0000
  H   H904      1.0  0.9358005207691287  0.4844387433076961  0.23239037853743116  1.0000
  N   N55       1.0  0.9093593747158906  0.2043214677603948  0.33140176882615624  1.0000
  C   C601      1.0  0.9013386236558645  0.23489991100216223  0.3134392006086651  1.0000
  C   C602      1.0  0.9240403862007116  0.1928281405838141  0.30722161734013254  1.0000
  C   C603      1.0  0.8955075592372219  0.17970945851932105  0.3311551993079453  1.0000
  C   C604      1.0  0.9165365646409785  0.20983970310109196  0.37393214268726116  1.0000
  H   H905      1.0  0.9113826309341376  0.25415056357053517  0.3136272455648153  1.0000
  H   H906      1.0  0.890245465411972  0.24427962122243294  0.33101005693776625  1.0000
  H   H907      1.0  0.8958570981256401  0.23179807365119115  0.2812641269278823  1.0000
  H   H908      1.0  0.9304367045043228  0.16982611851165902  0.3200316676244369  1.0000
  H   H909      1.0  0.9192252378914922  0.1885469064873857  0.2748544432187389  1.0000
  H   H910      1.0  0.9348652374967823  0.21063274811796023  0.30723967738810165  1.0000
  H   H911      1.0  0.8842313650687897  0.18772058966462107  0.349139970794501  1.0000
  H   H912      1.0  0.9011531184359708  0.15641609965184422  0.34475989351041797  1.0000
  H   H913      1.0  0.8898127306578446  0.17485566860022253  0.2995199538416952  1.0000
  H   H914      1.0  0.9057887875728218  0.21777868537495065  0.3933841929462076  1.0000
  H   H915      1.0  0.9266437307933421  0.22890130591773197  0.37528418490317816  1.0000
  H   H916      1.0  0.9233414487241491  0.18763035994936356  0.3880695576947471  1.0000
  N   N56       1.0  0.55426696599384  0.5057079839098926  0.8151547208026306  1.0000
  C   C605      1.0  0.550054330037641  0.47900177935949445  0.7867347400660739  1.0000
  C   C606      1.0  0.573853894611223  0.5097752771960641  0.8197709623234976  1.0000
  C   C607      1.0  0.5479096414459983  0.4979630642308569  0.8553908516063242  1.0000
  C   C608      1.0  0.5453000394626223  0.5360841251159925  0.7988855897377937  1.0000
  H   H917      1.0  0.5353623223055519  0.4757618165730887  0.7815610744800559  1.0000
  H   H918      1.0  0.5562827021734353  0.45557805571674204  0.7986340655131257  1.0000
  H   H919      1.0  0.5551355097683128  0.483430039183612  0.7563452307526745  1.0000
  H   H920      1.0  0.577459125587148  0.5311625191784979  0.8386248733025169  1.0000
  H   H921      1.0  0.5809963885811372  0.4882074592150575  0.834525706399988  1.0000
  H   H922      1.0  0.5792736386364715  0.5136200030369176  0.7896182425721969  1.0000
  H   H923      1.0  0.5510308827618259  0.5174507479522802  0.8777072398683857  1.0000
  H   H924      1.0  0.5543797726273718  0.4750424311143767  0.8684059035003738  1.0000
  H   H925      1.0  0.5331545800343739  0.4948906520157289  0.8530616432942545  1.0000
  H   H926      1.0  0.5501729943370917  0.5431166678836433  0.7691327316985981  1.0000
  H   H927      1.0  0.5481084118437729  0.5566824953869897  0.8197300120496653  1.0000
  H   H928      1.0  0.530517701084897  0.5338915888799979  0.7940612039309964  1.0000
  N   N57       1.0  0.5206236658454004  0.2384736187940219  0.8209253971248709  1.0000
  C   C609      1.0  0.5329968466496878  0.24113262650512587  0.7883723033362942  1.0000
  C   C610      1.0  0.5141592148474099  0.27114370372902746  0.8318072866289407  1.0000
  C   C611      1.0  0.5301422611465154  0.22253542402474658  0.8573212707214307  1.0000
  C   C612      1.0  0.5052297257844498  0.21905176756168676  0.8063082395111828  1.0000
  H   H929      1.0  0.53825927249222  0.21696246209437917  0.7794954090854829  1.0000
  H   H930      1.0  0.5447943444844818  0.25560833778029524  0.798442057020648  1.0000
  H   H931      1.0  0.5263391339118665  0.2531118742310375  0.7603911130383475  1.0000
  H   H932      1.0  0.5051963407559852  0.2701594494599411  0.8571652070744186  1.0000
  H   H933      1.0  0.525494310534092  0.28646458823436965  0.842656733572474  1.0000
  H   H934      1.0  0.5067126035747607  0.2838772971527839  0.8053118769677796  1.0000
  H   H935      1.0  0.5214273452744904  0.221152354662354  0.8831074380610425  1.0000
  H   H936      1.0  0.5420032023044494  0.23630674010286823  0.8686000466765034  1.0000
  H   H937      1.0  0.5348905315319812  0.1975470944500077  0.8506354012659857  1.0000
  H   H938      1.0  0.4956947273320098  0.21648488092644724  0.8302904791918857  1.0000
  H   H939      1.0  0.5097113136080823  0.1942654671376613  0.7978046583207401  1.0000
  H   H940      1.0  0.4977107717814957  0.23038217072001657  0.7788621673521255  1.0000
  N   N58       1.0  0.26215602217919404  0.8025772789882284  0.5015695386836225  1.0000
  C   C613      1.0  0.27310837069812327  0.7735338924796323  0.5155026750793974  1.0000
  C   C614      1.0  0.2585919698133022  0.8020806458031172  0.4566760378720414  1.0000
  C   C615      1.0  0.2718742182599989  0.8320267155448631  0.5134232585821743  1.0000
  C   C616      1.0  0.24496332988800273  0.8026718701279234  0.5205759987820409  1.0000
  H   H941      1.0  0.2758546254747889  0.7728688363865257  0.549312499130492  1.0000
  H   H942      1.0  0.28625627393996345  0.7726206985326003  0.5020820400437157  1.0000
  H   H943      1.0  0.26611070208831933  0.7509119524654606  0.507131103020732  1.0000
  H   H944      1.0  0.2503356118642918  0.8236965320485887  0.445257379292719  1.0000
  H   H945      1.0  0.2712840806126652  0.8019894086135094  0.4413161857521116  1.0000
  H   H946      1.0  0.25121844128623017  0.7802148583533445  0.4467258534139995  1.0000
  H   H947      1.0  0.2849641972564173  0.8328637477996059  0.4998589663887823  1.0000
  H   H948      1.0  0.2746179232326187  0.8334818787002669  0.5471444700397531  1.0000
  H   H949      1.0  0.26391166858200255  0.8543799999821857  0.5035279690013928  1.0000
  H   H950      1.0  0.23634368823123283  0.8243491755226197  0.5111145479735645  1.0000
  H   H951      1.0  0.2471931270963311  0.8032067873913028  0.55434292549286  1.0000
  H   H952      1.0  0.23732283897670087  0.7806135973882757  0.5129050747341031  1.0000
  N   N59       1.0  0.27409140299042395  0.5339919555016134  0.9637737530071007  1.0000
  C   C617      1.0  0.2755035865360433  0.5031372761093966  0.941812986357238  1.0000
  C   C618      1.0  0.2553939830505021  0.5468695023750958  0.9583269639432626  1.0000
  C   C619      1.0  0.28610568869105074  0.5576617135352876  0.9475004908179174  1.0000
  C   C620      1.0  0.27930138867348925  0.5283153468656815  0.007680241562330492  1.0000
  H   H953      1.0  0.2662485126169212  0.48515928081902504  0.9530635335689788  1.0000
  H   H954      1.0  0.28929887580307945  0.49211045664843633  0.9461722182355243  1.0000
  H   H955      1.0  0.2719381695906532  0.5064962597682354  0.908458364809596  1.0000
  H   H956      1.0  0.25373549149783237  0.5698520501490395  0.9751682359198995  1.0000
  H   H957      1.0  0.25102962573455045  0.5518150760195752  0.9256196151771275  1.0000
  H   H958      1.0  0.2459478295155274  0.5293994822587498  0.9699209055354043  1.0000
  H   H959      1.0  0.2851728038743679  0.5811886318397681  0.9636057146066944  1.0000
  H   H960      1.0  0.2825915861349933  0.5625887796725847  0.914393805899349  1.0000
  H   H961      1.0  0.30034453261068406  0.5488067630026082  0.9514043698715068  1.0000
  H   H962      1.0  0.2700918703034471  0.5115498119536673  0.02117586081733247  1.0000
  H   H963      1.0  0.2788185417491227  0.55117578653845  0.02513772124864566  1.0000
  H   H964      1.0  0.29308848442698837  0.5174368795263321  0.013041985238470666  1.0000
  N   N60       1.0  0.14880389859919307  0.8679617830284365  0.663269556826384  1.0000
  C   C621      1.0  0.15228673454104583  0.8362063042252101  0.6447557540061836  1.0000
  C   C622      1.0  0.1461865088917897  0.8633928843415288  0.7070095762903684  1.0000
  C   C623      1.0  0.1324899673222343  0.8836127671865428  0.6422884401818288  1.0000
  C   C624      1.0  0.16428303004418693  0.8886518089856966  0.6591472458048554  1.0000
  H   H965      1.0  0.15378208800117626  0.8385297298000819  0.61147908284792  1.0000
  H   H966      1.0  0.14121565788130686  0.8193911528488629  0.648629502037325  1.0000
  H   H967      1.0  0.16481825182101623  0.8242673011426777  0.6590855930689511  1.0000
  H   H968      1.0  0.14226267549192337  0.8865448596723841  0.721327129532903  1.0000
  H   H969      1.0  0.1353513323699863  0.846194519405071  0.7114067657803065  1.0000
  H   H970      1.0  0.1586041191690358  0.8537395708818906  0.7243645686879241  1.0000
  H   H971      1.0  0.12932515312671927  0.9074516839596295  0.6558961340890771  1.0000
  H   H972      1.0  0.12057113206053977  0.8686852719506212  0.6451145694528477  1.0000
  H   H973      1.0  0.1338874329369114  0.887507384106264  0.6091911649910888  1.0000
  H   H974      1.0  0.16216450404270571  0.9127280530632857  0.6730850352379243  1.0000
  H   H975      1.0  0.16663760993389123  0.8926734843199665  0.6265060281017273  1.0000
  H   H976      1.0  0.17683845904026652  0.8773750191083751  0.6745443612785722  1.0000
  N   N61       1.0  0.1185276417243713  0.6423801422537256  0.8357101306302498  1.0000
  C   C625      1.0  0.11372812795368449  0.6690608563193793  0.8061421228076063  1.0000
  C   C626      1.0  0.11048281685369016  0.6122773137757767  0.8202307807164589  1.0000
  C   C627      1.0  0.11164064965183151  0.6504273681630751  0.8753602844901104  1.0000
  C   C628      1.0  0.13823523105283556  0.6377281907284136  0.8411533152274167  1.0000
  H   H977      1.0  0.11953774362473278  0.6922144119219912  0.8167584536401771  1.0000
  H   H978      1.0  0.09896776539577938  0.6732098901975434  0.8016732818514763  1.0000
  H   H979      1.0  0.11854969064901281  0.6637964182863427  0.7756893113269757  1.0000
  H   H980      1.0  0.11406791778035014  0.5915574911648614  0.841527345800998  1.0000
  H   H981      1.0  0.09559923620229223  0.6145814983955511  0.816631495464363  1.0000
  H   H982      1.0  0.11508163614977629  0.6056703243502723  0.7900208871980247  1.0000
  H   H983      1.0  0.11724688975867266  0.6731768467651844  0.8878181053364492  1.0000
  H   H984      1.0  0.11518049460255916  0.6309383503192767  0.898544319539614  1.0000
  H   H985      1.0  0.09677745389630327  0.6535915840993763  0.8724713503472588  1.0000
  H   H986      1.0  0.1422767371669368  0.6177207792111076  0.8633480187474598  1.0000
  H   H987      1.0  0.14475132167486204  0.6599000956172646  0.8529966083844276  1.0000
  H   H988      1.0  0.14386718341348317  0.6314878992912134  0.8118553890759682  1.0000
  N   N62       1.0  0.5166914220224816  0.711718104912178  0.12098435862336862  1.0000
  C   C629      1.0  0.5150675944723843  0.6765756881317373  0.1149411262165665  1.0000
  C   C630      1.0  0.5008623470506248  0.7288822991035074  0.10021987250146283  1.0000
  C   C631      1.0  0.533030836200699  0.7228894772571605  0.10359472077779311  1.0000
  C   C632      1.0  0.5176339602574368  0.7187538000908924  0.16510925371736704  1.0000
  H   H989      1.0  0.5268102513246221  0.662734944301865  0.13009091784080096  1.0000
  H   H990      1.0  0.5140809994628491  0.67057417416407  0.08188748749576057  1.0000
  H   H991      1.0  0.5028025734507493  0.6676627268173159  0.1278983429244169  1.0000
  H   H992      1.0  0.5011851759410375  0.7552497968822203  0.10624410721291734  1.0000
  H   H993      1.0  0.5000762342771179  0.7254331031567628  0.06659708770078407  1.0000
  H   H994      1.0  0.4882007303366374  0.720082432515822  0.11090702080552786  1.0000
  H   H995      1.0  0.5453234130096957  0.7105259446556537  0.11842921081618174  1.0000
  H   H996      1.0  0.5344785863217341  0.7494225443099953  0.1076091751316527  1.0000
  H   H997      1.0  0.5326530383892848  0.7183436882493723  0.07015201800243097  1.0000
  H   H998      1.0  0.5291239886068266  0.7055188186173627  0.18215097619430187  1.0000
  H   H999      1.0  0.505173951972508  0.7116922023500254  0.17871435497916258  1.0000
  H   H1000     1.0  0.5192189966787716  0.7450528363019272  0.17070844981341005  1.0000
  N   N63       1.0  0.30328976313826467  0.013607119336157103  0.023118867550101507  1.0000
  C   C633      1.0  0.2888242092948126  0.016037082336587627  0.9896354256633815  1.0000
  C   C634      1.0  0.29539329984106116  0.015190497559871785  0.06282074748554667  1.0000
  C   C635      1.0  0.31547352077252355  0.040703614790144504  0.019634954342663047  1.0000
  C   C636      1.0  0.31343505332206695  0.9825601842128157  0.020378405202917227  1.0000
  H   H1001     1.0  0.29425506880667657  0.014733352709087155  0.959194378408445  1.0000
  H   H1002     1.0  0.2809185332946553  0.039212495547408466  0.9907088103290188  1.0000
  H   H1003     1.0  0.2792767700446576  0.9962164979465393  0.9915873928858573  1.0000
  H   H1004     1.0  0.3058566713441013  0.013360623546850636  0.08889607936045421  1.0000
  H   H1005     1.0  0.28769250775906524  0.03836255708723235  0.06584045898952708  1.0000
  H   H1006     1.0  0.2859978988601561  0.9953247363658576  0.06646268419415152  1.0000
  H   H1007     1.0  0.3265038276236454  0.039776472394918994  0.044540486075658414  1.0000
  H   H1008     1.0  0.30819856789184585  0.06449904372086346  0.021617153680061563  1.0000
  H   H1009     1.0  0.32162134563670314  0.04040566784380606  0.9899683434469336  1.0000
  H   H1010     1.0  0.3194495403677275  0.9803373133391676  0.9906473466542834  1.0000
  H   H1011     1.0  0.30463474475677416  0.9616427245840299  0.022968293667469997  1.0000
  H   H1012     1.0  0.32445223320109845  0.9798204457989553  0.0451838751621969  1.0000
  N   N64       1.0  0.8419618595579299  0.8585996180143618  0.5069371594552528  1.0000
  C   C637      1.0  0.8375210289874775  0.8934203675569465  0.510915473427018  1.0000
  C   C638      1.0  0.836381438350292  0.8483907606535104  0.4649948948301956  1.0000
  C   C639      1.0  0.8323703107649834  0.8399589359912962  0.5363598312197875  1.0000
  C   C640      1.0  0.8614865089480319  0.8524400308343996  0.5153432281847182  1.0000
  H   H1013     1.0  0.8414612525195146  0.9020011782575799  0.5422682495034965  1.0000
  H   H1014     1.0  0.8228146648333835  0.8985333424622783  0.5046514718373603  1.0000
  H   H1015     1.0  0.8444626425178356  0.9082306404426262  0.4890191430125464  1.0000
  H   H1016     1.0  0.8391798304289523  0.8221206165347738  0.4613057564861796  1.0000
  H   H1017     1.0  0.8217627866441252  0.8529882164370943  0.4572918348252222  1.0000
  H   H1018     1.0  0.8436201187515885  0.861340422540045  0.44189154775723266  1.0000
  H   H1019     1.0  0.8355799094712694  0.8135449454911879  0.5344558857577636  1.0000
  H   H1020     1.0  0.8175753501668187  0.843616448230015  0.530417477242354  1.0000
  H   H1021     1.0  0.8360603502189915  0.8472493073085471  0.5683605077958644  1.0000
  H   H1022     1.0  0.8650822300525542  0.8262001735823512  0.5128133020517783  1.0000
  H   H1023     1.0  0.8662580871626907  0.8599546348275823  0.5466761421780371  1.0000
  H   H1024     1.0  0.8691871231096898  0.8656039901265042  0.49324867031375746  1.0000
