data_image0
_chemical_formula_structural       FeS2FeS2FeSFeS3FeS2FeS2FeSFeS3FeS2FeS2FeSFeS3FeS2FeS2FeSFeS3FeS2FeS2FeSFeS3FeS2FeS2FeSFeS3FeS2FeS2FeSFeS3FeS2FeS2FeSFeS3FeS2FeS2FeSFeS3FeS2FeS2FeSFeS3FeS2FeS2FeSFeS3FeS2FeS2FeSFeS3FeS2FeS2FeSFeS3FeS2FeS2FeSFeS3FeS2FeS2FeSFeS3FeS2FeS2FeSFeS3FeS2FeS2FeSFeS3FeS2FeS2FeSFeS3FeS2FeS2FeSFeS3FeS2FeS2FeSFeS3FeS2FeS2FeSFeS3FeS2FeS2FeSFeS3FeS2FeS2FeSFeS3FeS2FeS2FeSFeS3C6H4C6H4C6H4C6H4C6H4C6H4C6H4C6H4C6H4C6H4C6H4C6H4C6H4C6H4C6H4C6H4C6H4C6H4C6H4C6H4C6H4C6H4C6H4C6H4C6H4C6H4C6H4C6H4C6H4C6H4C6H4C6H4C6H4C6H4C6H4C6H4C6H4C6H4C6H4C6H4C6H4C6H4C6H4C6H4C6H4C6H4C6H4C6H4NC4H12NC4H12NC4H12NC4H12NC4H12NC4H12NC4H12NC4H12NC4H12NC4H12NC4H12NC4H12NC4H12NC4H12NC4H12NC4H12NC4H12NC4H12NC4H12NC4H12NC4H12NC4H12NC4H12NC4H12NC4H12NC4H12NC4H12NC4H12NC4H12NC4H12NC4H12NC4H12NC4H12NC4H12NC4H12NC4H12NC4H12NC4H12NC4H12NC4H12NC4H12NC4H12NC4H12NC4H12NC4H12NC4H12NC4H12NC4H12
_chemical_formula_sum              "Fe96 S192 C480 H768 N48"
_cell_length_a       39.14549512785446
_cell_length_b       40.092042876246396
_cell_length_c       39.82381920017113
_cell_angle_alpha    90.3934217314872
_cell_angle_beta     90.2479610287298
_cell_angle_gamma    89.34258316412269

_space_group_name_H-M_alt    "P 1"
_space_group_IT_number       1

loop_
  _space_group_symop_operation_xyz
  'x, y, z'

loop_
  _atom_site_type_symbol
  _atom_site_label
  _atom_site_symmetry_multiplicity
  _atom_site_fract_x
  _atom_site_fract_y
  _atom_site_fract_z
  _atom_site_occupancy
  Fe  Fe1       1.0  0.8697657683517944  0.9015235400520749  0.5440328767972353  1.0000
  S   S1        1.0  0.8252096904873144  0.9125312278304033  0.5099322048709449  1.0000
  S   S2        1.0  0.8716713280777455  0.9203235474845414  0.5975931547355492  1.0000
  Fe  Fe2       1.0  0.9100960997569967  0.8675153795242586  0.48938459694554787  1.0000
  S   S3        1.0  0.8695053784437241  0.8750624945406161  0.4503400185658914  1.0000
  S   S4        1.0  0.9578021864775877  0.8403330255592633  0.4742863527813448  1.0000
  Fe  Fe3       1.0  0.8648143540258534  0.9264230966176645  0.47216527306988554  1.0000
  S   S5        1.0  0.8543472247353104  0.9685386754482753  0.4363991039102867  1.0000
  Fe  Fe4       1.0  0.8333361966416194  0.8603254778219295  0.49077642247204273  1.0000
  S   S6        1.0  0.7889745812792747  0.8280909857925784  0.4761962073995192  1.0000
  S   S7        1.0  0.908849297671752  0.9203936681525412  0.5078997441827167  1.0000
  S   S8        1.0  0.8744781036700005  0.8477769942400011  0.5280386060712269  1.0000
  Fe  Fe5       1.0  0.2629252833964487  0.24818161662744892  0.4521290104298149  1.0000
  S   S9        1.0  0.22966297604240163  0.21042461453215522  0.426936810810607  1.0000
  S   S10       1.0  0.30413116949035635  0.23273000837003288  0.48811122833447246  1.0000
  Fe  Fe6       1.0  0.2296788382398471  0.30625778180050417  0.4164259100977143  1.0000
  S   S11       1.0  0.193455833251607  0.27374396644571014  0.3878968163427003  1.0000
  S   S12       1.0  0.23072152500624643  0.3609322101901417  0.40610079808643573  1.0000
  Fe  Fe7       1.0  0.18748578296721413  0.24742058670167844  0.43695277794681797  1.0000
  S   S13       1.0  0.1376207715635081  0.2291566585958074  0.4571425766187696  1.0000
  Fe  Fe8       1.0  0.23896397311727252  0.24025424497455153  0.38067727692276715  1.0000
  S   S14       1.0  0.24804708109263918  0.21671735902530062  0.3303354084324879  1.0000
  S   S15       1.0  0.22004206588770397  0.28296475479239525  0.4664451781526081  1.0000
  S   S16       1.0  0.27594876079782804  0.2751690141977092  0.4048567622757903  1.0000
  Fe  Fe9       1.0  0.2754381639043107  0.27200832119360346  0.7168935218507885  1.0000
  S   S17       1.0  0.3316665306559331  0.2665995161788972  0.7266220972193057  1.0000
  S   S18       1.0  0.24462762603486962  0.3127269230971153  0.7413274773613775  1.0000
  Fe  Fe10      1.0  0.27456176555094375  0.2167579675973441  0.6648490568727611  1.0000
  S   S19       1.0  0.33069905691242185  0.20679862333960636  0.6697357446543761  1.0000
  S   S20       1.0  0.24291677157026065  0.1896261932009363  0.626625224270039  1.0000
  Fe  Fe11      1.0  0.32160850303430366  0.2116419133064063  0.7249252072133822  1.0000
  S   S21       1.0  0.3507575369948343  0.1743175728317022  0.7559826247233453  1.0000
  Fe  Fe12      1.0  0.33524090858929445  0.2622174851514848  0.6707456996103585  1.0000
  S   S22       1.0  0.37654746225922836  0.28823816069804653  0.6431286248987751  1.0000
  S   S23       1.0  0.26452655887669285  0.21735660977085075  0.720265534789166  1.0000
  S   S24       1.0  0.27992676534168937  0.27208769279631667  0.660845189412093  1.0000
  Fe  Fe13      1.0  0.9612228278560588  0.10089857992878133  0.36781528199817004  1.0000
  S   S25       1.0  0.9756873194385246  0.12640732553516873  0.31999172662731357  1.0000
  S   S26       1.0  0.9792039643020649  0.04895262403358558  0.3812781957146531  1.0000
  Fe  Fe14      1.0  0.9214246053780754  0.16088423789315562  0.3940390715883568  1.0000
  S   S27       1.0  0.9322868462567174  0.19151492709678047  0.34873675028658724  1.0000
  S   S28       1.0  0.8886949143143928  0.1814079272570319  0.43565539040717444  1.0000
  Fe  Fe15      1.0  0.9213725625883138  0.14495524056263032  0.31971457766208417  1.0000
  S   S29       1.0  0.8892581432998621  0.1506266951317828  0.27332602717138577  1.0000
  Fe  Fe16      1.0  0.9854744067285696  0.17072089377639327  0.353236638701224  1.0000
  S   S30       1.0  0.02882411687458375  0.2053862533254718  0.3426495949191146  1.0000
  S   S31       1.0  0.9059188256457895  0.11568772973452843  0.3647802667137124  1.0000
  S   S32       1.0  0.9755734201977423  0.14380187816557274  0.40141163779008615  1.0000
  Fe  Fe17      1.0  0.30906736113390376  0.989716242404332  0.7467503633964293  1.0000
  S   S33       1.0  0.2881949916907965  0.9864416567658526  0.7987795628995371  1.0000
  S   S34       1.0  0.2927533362037019  0.033501417252519206  0.7154061114261897  1.0000
  Fe  Fe18      1.0  0.34830128300815966  0.9249926001341121  0.7526769350839753  1.0000
  S   S35       1.0  0.3305846798808904  0.9158698530757368  0.8052190225150926  1.0000
  S   S36       1.0  0.3880595096620237  0.8906907289734013  0.7303505354215777  1.0000
  Fe  Fe19      1.0  0.2793367597372385  0.9327510758415802  0.7861770289749515  1.0000
  S   S37       1.0  0.23177475899858505  0.9100973724292869  0.8071380488061388  1.0000
  Fe  Fe20      1.0  0.34097113555083797  0.9700486953579747  0.8133637011085583  1.0000
  S   S38       1.0  0.3633708737114003  0.9880373848028495  0.8622000966510185  1.0000
  S   S39       1.0  0.29592991899392845  0.9369967197717848  0.7324531193864294  1.0000
  S   S40       1.0  0.36297513139730386  0.9782427851102136  0.7623491779382137  1.0000
  Fe  Fe21      1.0  0.026044603837573677  0.8285519944946115  0.7978932944616818  1.0000
  S   S41       1.0  0.05058603613205159  0.8784963745571845  0.8020491314340252  1.0000
  S   S42       1.0  0.038197775053702365  0.7869073717214013  0.8334433236698391  1.0000
  Fe  Fe22      1.0  0.985192815088308  0.847299721379156  0.7356915864343686  1.0000
  S   S43       1.0  0.006257016227951162  0.8989638591549439  0.7338968522961001  1.0000
  S   S44       1.0  0.9506357461605998  0.8244140625781181  0.6970767985057973  1.0000
  Fe  Fe23      1.0  0.056572694753090014  0.8745933140945771  0.7460381607951805  1.0000
  S   S45       1.0  0.10345484950944828  0.8844641247996398  0.7152563331989717  1.0000
  Fe  Fe24      1.0  0.9982720947806685  0.8982659667400127  0.7896680704701926  1.0000
  S   S46       1.0  0.9742736014327582  0.9406218716136868  0.818134762597168  1.0000
  S   S47       1.0  0.036255655896580086  0.8227019973458425  0.7429308008632618  1.0000
  S   S48       1.0  0.972933598619468  0.8484088081566799  0.7905395167985555  1.0000
  Fe  Fe25      1.0  0.7553730204311047  0.20888501140659924  0.011405387736476813  1.0000
  S   S49       1.0  0.8063155019177417  0.19330289145080642  0.9903057305764517  1.0000
  S   S50       1.0  0.7395756112198533  0.18949738570582225  0.06205581752571154  1.0000
  Fe  Fe26      1.0  0.7392160606997535  0.25394985042149254  0.9529819340736548  1.0000
  S   S51       1.0  0.7886362239572953  0.24285231664585713  0.9271357021760664  1.0000
  S   S52       1.0  0.7054029526663803  0.29263459080964727  0.9296394939139728  1.0000
  Fe  Fe27      1.0  0.7784385196303021  0.189908797603883  0.9410534134063452  1.0000
  S   S53       1.0  0.79363742409255  0.1524477779846397  0.9013574119147442  1.0000
  Fe  Fe28      1.0  0.8120106633660775  0.24737891954922242  0.9781182788068717  1.0000
  S   S54       1.0  0.8614169072691075  0.27415932738974186  0.9860091255585075  1.0000
  S   S55       1.0  0.7266213412254079  0.20045923847761118  0.9630388742763399  1.0000
  S   S56       1.0  0.7634854518760141  0.2633693968346029  0.0028439699266606944  1.0000
  Fe  Fe29      1.0  0.7362605254100504  0.988438978649482  0.860005367418927  1.0000
  S   S57       1.0  0.7333269647540871  0.9526739884207688  0.8165574389563037  1.0000
  S   S58       1.0  0.699224711292637  0.030411066286413657  0.8703354332998957  1.0000
  Fe  Fe30      1.0  0.7948893805103668  0.9513550588985334  0.8929444033270693  1.0000
  S   S59       1.0  0.7977048604106128  0.9123198188552998  0.8526272119717091  1.0000
  S   S60       1.0  0.8318638999913716  0.949417908826807  0.9358835710033895  1.0000
  Fe  Fe31      1.0  0.7904850971532879  0.9551407559544102  0.8174639719875837  1.0000
  S   S61       1.0  0.8212995702821533  0.9537361384074792  0.7702963280337187  1.0000
  Fe  Fe32      1.0  0.7407264650239133  0.9129441612356709  0.8553219801729038  1.0000
  S   S62       1.0  0.7113983465988697  0.8653504791383619  0.8511846330147514  1.0000
  S   S63       1.0  0.7931765477822065  0.9944361372390573  0.8577337682256833  1.0000
  S   S64       1.0  0.7381960476584607  0.948519687218139  0.8988866991729239  1.0000
  Fe  Fe33      1.0  0.41754384353030494  0.16792698208904488  0.2556500275176276  1.0000
  S   S65       1.0  0.3831512332900895  0.159902759104885  0.21110627245691882  1.0000
  S   S66       1.0  0.4035673581310561  0.18024370895654254  0.30914436576701504  1.0000
  Fe  Fe34      1.0  0.48212513031600357  0.1625175038834674  0.21351060629798596  1.0000
  S   S67       1.0  0.45318956701080476  0.1545776193052101  0.16561342825619738  1.0000
  S   S68       1.0  0.5393486955892487  0.15787998598491892  0.21619061431904874  1.0000
  Fe  Fe35      1.0  0.41816675044943685  0.19503665464054556  0.18491480490409287  1.0000
  S   S69       1.0  0.3946392697825897  0.23528937480960388  0.1528176878698215  1.0000
  Fe  Fe36      1.0  0.42118124632194803  0.12031927058930593  0.19634578716486265  1.0000
  S   S70       1.0  0.40865220088411935  0.07008461709841417  0.17467738858654633  1.0000
  S   S71       1.0  0.4498382021167513  0.20586993222954855  0.2305839095172447  1.0000
  S   S72       1.0  0.4528651500886628  0.12533331142665297  0.24301997700791267  1.0000
  Fe  Fe37      1.0  0.7336638490101041  0.29146706291813285  0.2249209981694384  1.0000
  S   S73       1.0  0.6999805944948838  0.24900063107669895  0.23910895428990572  1.0000
  S   S74       1.0  0.7541230043584957  0.3010913963117635  0.17340179720057433  1.0000
  Fe  Fe38      1.0  0.7275357340959006  0.3257913559022929  0.2929446035332504  1.0000
  S   S75       1.0  0.6928038640562402  0.2869018581535365  0.3132535006505203  1.0000
  S   S76       1.0  0.74682390990495  0.37116600244194387  0.3201411532605491  1.0000
  Fe  Fe39      1.0  0.7287383689858847  0.25086994530742146  0.2880329604768403  1.0000
  S   S77       1.0  0.7456402503067883  0.20701378468910941  0.318498361933477  1.0000
  Fe  Fe40      1.0  0.6670852441759815  0.28870636208338846  0.2630289664244295  1.0000
  S   S78       1.0  0.6101358767784437  0.2926215605041132  0.257000922890409  1.0000
  S   S79       1.0  0.7658003823494318  0.2896543902656966  0.2716011873526692  1.0000
  S   S80       1.0  0.6984493416445673  0.33118266561731585  0.24478810141113597  1.0000
  Fe  Fe41      1.0  0.5342073649287963  0.9239893813819294  0.2013988046931956  1.0000
  S   S81       1.0  0.48210278395739375  0.901997180578622  0.20621313946251874  1.0000
  S   S82       1.0  0.5533835807485875  0.9481122106145091  0.15469497851688796  1.0000
  Fe  Fe42      1.0  0.5557256100448453  0.9051466672560118  0.2719939499536236  1.0000
  S   S83       1.0  0.5053318735664492  0.8819501268705152  0.28347539281304607  1.0000
  S   S84       1.0  0.6012027997331538  0.9068046906847218  0.30663825898026437  1.0000
  Fe  Fe43      1.0  0.5093464737383074  0.8597749310348168  0.23185548648211826  1.0000
  S   S85       1.0  0.49958689175106213  0.8050918851615521  0.22463904104803278  1.0000
  Fe  Fe44      1.0  0.48271863353693295  0.9262422943021437  0.2570939237731686  1.0000
  S   S86       1.0  0.43827211706862446  0.9550387881175807  0.2781057391585457  1.0000
  S   S87       1.0  0.5616403212646145  0.8793868178509897  0.22226074297104434  1.0000
  S   S88       1.0  0.5327963175409299  0.9517609399958431  0.25023966172191703  1.0000
  Fe  Fe45      1.0  0.5635082927568584  0.8597489756091411  0.9618639446106791  1.0000
  S   S89       1.0  0.5203859762915186  0.8318254025967629  0.9850130027203965  1.0000
  S   S90       1.0  0.6178741255924798  0.8509631610432182  0.9779122334364164  1.0000
  Fe  Fe46      1.0  0.516870588864419  0.9023806966239172  0.9186329738767253  1.0000
  S   S91       1.0  0.4695612449276644  0.8782157068491033  0.9378133961100599  1.0000
  S   S92       1.0  0.516336821393123  0.9408464127967325  0.8778224808783938  1.0000
  Fe  Fe47      1.0  0.4948708972422919  0.882027566267868  0.9882811102803627  1.0000
  S   S93       1.0  0.4640739215176866  0.8963113096355287  0.033662756749066824  1.0000
  Fe  Fe48      1.0  0.49919533440938363  0.830328013908511  0.9326577260521752  1.0000
  S   S94       1.0  0.4722400985361968  0.7856401348508169  0.9114353429323199  1.0000
  S   S95       1.0  0.5398598231695153  0.9104896404337305  0.9695268450048616  1.0000
  S   S96       1.0  0.5445547413746449  0.854087737685594  0.9089419744201617  1.0000
  Fe  Fe49      1.0  0.923278481965902  0.7778252914995901  0.9840422620479019  1.0000
  S   S97       1.0  0.8761841715220937  0.7724040301198498  0.952377003951257  1.0000
  S   S98       1.0  0.9660013699846475  0.8130004759255002  0.9728879055982848  1.0000
  Fe  Fe50      1.0  0.8959437769570702  0.7348354438425699  0.039956855302848204  1.0000
  S   S99       1.0  0.8464234452868867  0.7254832543542691  0.01344494218722403  1.0000
  S   S100      1.0  0.9085995026146028  0.7137740873229477  0.09081100050491675  1.0000
  Fe  Fe51      1.0  0.8787367941081724  0.718545542416452  0.967493257257868  1.0000
  S   S101      1.0  0.8612257025899078  0.6793539887945049  0.9307782541277834  1.0000
  Fe  Fe52      1.0  0.8479610438697809  0.7796024822327172  0.0006408573690737107  1.0000
  S   S102      1.0  0.8008505323739016  0.811496809619329  0.0029566055394725232  1.0000
  S   S103      1.0  0.9287766458156855  0.7232218663813795  0.9951765721198149  1.0000
  S   S104      1.0  0.8946264689360535  0.7898941307714615  0.031102982570253346  1.0000
  Fe  Fe53      1.0  0.9659919836212022  0.8222814053581494  0.23337978016450728  1.0000
  S   S105      1.0  0.004701150171102508  0.7805769203474345  0.2334563019857275  1.0000
  S   S106      1.0  0.9226005661159911  0.8298134614981383  0.19707014041223025  1.0000
  Fe  Fe54      1.0  0.9957591884860924  0.8547682061871846  0.2954647614883599  1.0000
  S   S107      1.0  0.03686031316633365  0.8157967063178362  0.30156257745394416  1.0000
  S   S108      1.0  0.9861550704660066  0.8976956009950041  0.3306808898712812  1.0000
  Fe  Fe55      1.0  0.04251653887609885  0.8204561623096474  0.24570078284824773  1.0000
  S   S109      1.0  0.09226880445731322  0.8197843813066932  0.2177133180208213  1.0000
  Fe  Fe56      1.0  0.9954344153063016  0.7797515660577239  0.28890413791762554  1.0000
  S   S110      1.0  0.9867259003087802  0.7332093160156447  0.3182982582746773  1.0000
  S   S111      1.0  0.004620679667334704  0.8625569234486814  0.24062110732144526  1.0000
  S   S112      1.0  0.953687969635421  0.8183231441197422  0.2879448003288334  1.0000
  Fe  Fe57      1.0  0.9603572631830581  0.42883733863643436  0.9139268514453789  1.0000
  S   S113      1.0  0.9370482517585478  0.4625278212577584  0.9527735219979568  1.0000
  S   S114      1.0  0.004031648103987484  0.3959829341723691  0.9306789427694389  1.0000
  Fe  Fe58      1.0  0.9099064941643631  0.4506857570400536  0.8600762413371953  1.0000
  S   S115      1.0  0.8821842878899656  0.4865871337863674  0.894273251873131  1.0000
  S   S116      1.0  0.8957397131926941  0.43853396050708243  0.8065047606648403  1.0000
  Fe  Fe59      1.0  0.9347508322669797  0.5006426894801143  0.9118435520674156  1.0000
  S   S117      1.0  0.9569847243622303  0.5511064920900414  0.9231534774030407  1.0000
  Fe  Fe60      1.0  0.8870774190447981  0.44541327482955556  0.9321079301148129  1.0000
  S   S118      1.0  0.8443572825121919  0.4292399020643687  0.9654221009661151  1.0000
  S   S119      1.0  0.9623917463928947  0.4681471901248813  0.8743781616312986  1.0000
  S   S120      1.0  0.9103600242853024  0.4083358791004517  0.8964065551032729  1.0000
  Fe  Fe61      1.0  0.30747490948111145  0.4538279449190839  0.176966922321638  1.0000
  S   S121      1.0  0.3560403547731731  0.46477573468718386  0.204640036618689  1.0000
  S   S122      1.0  0.2996681331236602  0.4797548652780228  0.1278764188475555  1.0000
  Fe  Fe62      1.0  0.281174043506024  0.40929216431472687  0.2321284950896576  1.0000
  S   S123      1.0  0.32750395818785527  0.41728206205704493  0.26412908268481583  1.0000
  S   S124      1.0  0.23744136405667446  0.3778474636912663  0.24904602301549766  1.0000
  Fe  Fe63      1.0  0.32192485855511976  0.4707966025798545  0.24928604257053935  1.0000
  S   S125      1.0  0.32905938316520905  0.5122540468974777  0.28699852616553173  1.0000
  Fe  Fe64      1.0  0.3562862883036112  0.41014464633141223  0.21613235282028492  1.0000
  S   S126      1.0  0.4042996763533915  0.37896134571004964  0.2176065082695783  1.0000
  S   S127      1.0  0.2731567314045544  0.46350283986346397  0.22073888792190685  1.0000
  S   S128      1.0  0.31015811756583694  0.3984990228030298  0.18477145346582508  1.0000
  Fe  Fe65      1.0  0.31751849310745617  0.7476476394631363  0.2502870968905102  1.0000
  S   S129      1.0  0.3125174383827812  0.774002307907522  0.2998649419659114  1.0000
  S   S130      1.0  0.34316003929729877  0.7730173889871804  0.20738115809423324  1.0000
  Fe  Fe66      1.0  0.27330349157995204  0.6900418945006254  0.27132618324743885  1.0000
  S   S131      1.0  0.26445600587525303  0.7114389843918189  0.3225386095616198  1.0000
  S   S132      1.0  0.24491132982073496  0.6437938395470519  0.25607113022824024  1.0000
  Fe  Fe67      1.0  0.2573727740900721  0.7602998421898581  0.2964457671010793  1.0000
  S   S133      1.0  0.21595557035280435  0.7944793449159955  0.3159383146861436  1.0000
  Fe  Fe68      1.0  0.32018877343897956  0.7230389259550408  0.3214439607102377  1.0000
  S   S134      1.0  0.35012285786276637  0.7172043497175686  0.36913362957334467  1.0000
  S   S135      1.0  0.2614654639101135  0.7379813017494683  0.2449267873522997  1.0000
  S   S136      1.0  0.3302194221275757  0.6974188844917146  0.27199315736711965  1.0000
  Fe  Fe69      1.0  0.23965256006440663  0.36005477746745207  0.9192904662557461  1.0000
  S   S137      1.0  0.24145573383191699  0.40528318355508974  0.8867441127780465  1.0000
  S   S138      1.0  0.25142463006645477  0.30881613015581083  0.8991164481486793  1.0000
  Fe  Fe70      1.0  0.21764039592336396  0.39999351550640994  0.9804333408055282  1.0000
  S   S139      1.0  0.21710622743442218  0.44877565477880943  0.9530538867590113  1.0000
  S   S140      1.0  0.20435070030124572  0.39375767898490854  0.034701016578557065  1.0000
  Fe  Fe71      1.0  0.19219322151177543  0.4196354347442646  0.9116391215464242  1.0000
  S   S141      1.0  0.1490299658319873  0.43878887799474053  0.8794211597751106  1.0000
  Fe  Fe72      1.0  0.2663592472279981  0.42970938759552463  0.9309418596583812  1.0000
  S   S142      1.0  0.3114342540066586  0.46220202613780925  0.921196696564057  1.0000
  S   S143      1.0  0.1884418433118433  0.372224021211181  0.9408390328568783  1.0000
  S   S144      1.0  0.2689282594448782  0.3831486269245036  0.9617887720660013  1.0000
  Fe  Fe73      1.0  0.48939393403242953  0.37474851991865954  0.7451633968563045  1.0000
  S   S145      1.0  0.48385778813298114  0.42380274369332127  0.7189562671892661  1.0000
  S   S146      1.0  0.5156767846114444  0.3285211861986445  0.7259011453511832  1.0000
  Fe  Fe74      1.0  0.44896500068240863  0.39775157480176637  0.8060821235068616  1.0000
  S   S147      1.0  0.43927014317159613  0.4489203463187301  0.7854563473007218  1.0000
  S   S148      1.0  0.4282125952306696  0.37595824964374747  0.8533866930493932  1.0000
  Fe  Fe75      1.0  0.42976572700039983  0.42265007662787096  0.7367613445915691  1.0000
  S   S149      1.0  0.3842345371926056  0.4325975489979748  0.704222225986362  1.0000
  Fe  Fe76      1.0  0.4943602152024706  0.4458234964045951  0.7698899428059576  1.0000
  S   S150      1.0  0.530253304758409  0.48897135449891693  0.7729121911257941  1.0000
  S   S151      1.0  0.43420960936521935  0.37160431134092387  0.7585581373048297  1.0000
  S   S152      1.0  0.5049301026108002  0.3967551577586558  0.7946666307164284  1.0000
  Fe  Fe77      1.0  0.7145657559738007  0.2956074815189232  0.7474986369844483  1.0000
  S   S153      1.0  0.6826884250226837  0.34231268913985574  0.7467039285576899  1.0000
  S   S154      1.0  0.7015080921635649  0.25061496210223905  0.7776453671616799  1.0000
  Fe  Fe78      1.0  0.7689446117825515  0.3242664315419933  0.703070926765883  1.0000
  S   S155      1.0  0.7417962546105045  0.37352697018398273  0.6979969935322121  1.0000
  S   S156      1.0  0.818624590830267  0.3114657072262315  0.6780575721451509  1.0000
  Fe  Fe79      1.0  0.7324474785692924  0.36844509966670275  0.7530263218726144  1.0000
  S   S157      1.0  0.7380953580978785  0.4117506264934772  0.788213508181072  1.0000
  Fe  Fe80      1.0  0.6948543141154383  0.34296651476094164  0.691882237625395  1.0000
  S   S158      1.0  0.655274850482511  0.36000478451276546  0.6549732539856398  1.0000
  S   S159      1.0  0.7635717730788015  0.32161856118481064  0.7589147881645383  1.0000
  S   S160      1.0  0.7225406556949976  0.29374574629622413  0.6917811830361998  1.0000
  Fe  Fe81      1.0  0.8688493983516034  0.4101053191476919  0.5350968349517061  1.0000
  S   S161      1.0  0.9127705908007431  0.41508653431288156  0.4997259763934287  1.0000
  S   S162      1.0  0.868409628044393  0.42959903233839214  0.5881902351822673  1.0000
  Fe  Fe82      1.0  0.8240465810901507  0.3772665444261188  0.4832466235355683  1.0000
  S   S163      1.0  0.8637018590666001  0.3792197481298963  0.44279178621783516  1.0000
  S   S164      1.0  0.7733136579797987  0.3531453189784284  0.47524533294209537  1.0000
  Fe  Fe83      1.0  0.8999060810650534  0.3630853724289649  0.48329053192196936  1.0000
  S   S165      1.0  0.9413020291160056  0.3258721519611098  0.4707567751899211  1.0000
  Fe  Fe84      1.0  0.8729598908934031  0.4309606040431161  0.46222800085963917  1.0000
  S   S166      1.0  0.8858641336445024  0.4735436131534106  0.4282386775886697  1.0000
  S   S167      1.0  0.8594464092600566  0.35641351387762926  0.5221652259614146  1.0000
  S   S168      1.0  0.829818101498745  0.430636597607971  0.49911956801865576  1.0000
  Fe  Fe85      1.0  0.8074792303559897  0.6654288032596487  0.39349207436209255  1.0000
  S   S169      1.0  0.7942771341708423  0.7021294421420153  0.3531523671898574  1.0000
  S   S170      1.0  0.8347802986429506  0.6806510364730756  0.4408228926359499  1.0000
  Fe  Fe86      1.0  0.7773312704983995  0.606911815168525  0.3557512246454276  1.0000
  S   S171      1.0  0.7611972319795973  0.638446515260403  0.31197358025832694  1.0000
  S   S172      1.0  0.7642994345323668  0.5524470103132088  0.36037276609743685  1.0000
  Fe  Fe87      1.0  0.8125611988998791  0.6621364853923525  0.31786500570484316  1.0000
  S   S173      1.0  0.8433365205931279  0.6776768977075113  0.2731730910287607  1.0000
  Fe  Fe88      1.0  0.7441720303370555  0.6756779051590402  0.35096290337097263  1.0000
  S   S174      1.0  0.6944834940402551  0.7037146596780693  0.3441638378845675  1.0000
  S   S175      1.0  0.8304108687079291  0.6274081798311895  0.35842778623544014  1.0000
  S   S176      1.0  0.7558334990860393  0.6421120812326229  0.394473780600902  1.0000
  Fe  Fe89      1.0  0.5464755080680274  0.8343732685198761  0.46124706439032265  1.0000
  S   S177      1.0  0.5699156789196261  0.7979379346691097  0.4253177059540667  1.0000
  S   S178      1.0  0.5707672675829868  0.8844007211773963  0.46027971415831864  1.0000
  Fe  Fe90      1.0  0.4967574136217783  0.7841268057329384  0.4874893582886966  1.0000
  S   S179      1.0  0.5160907028132115  0.7429488560472561  0.4538798060393888  1.0000
  S   S180      1.0  0.45233153763866507  0.776319431692422  0.5219281145353878  1.0000
  Fe  Fe91      1.0  0.5678627180859261  0.7621082195642234  0.46784904661343313  1.0000
  S   S181      1.0  0.6147879417957176  0.7315922192699151  0.4790643857612988  1.0000
  Fe  Fe92      1.0  0.5163738046316149  0.7826272715806214  0.41452191989956877  1.0000
  S   S182      1.0  0.4996548040740179  0.7721303711090395  0.3616226966663672  1.0000
  S   S183      1.0  0.5486948420923661  0.7998932493815671  0.5051822070486881  1.0000
  S   S184      1.0  0.492632885555019  0.8224835708697195  0.44678221834298304  1.0000
  Fe  Fe93      1.0  0.398995361277707  0.7106959630979172  0.7091890812549697  1.0000
  S   S185      1.0  0.4469149619562635  0.7296641342894075  0.6857774377343245  1.0000
  S   S186      1.0  0.3506777719277048  0.7407712233410462  0.7041944718082603  1.0000
  Fe  Fe94      1.0  0.4353247306296003  0.6517106455797603  0.7413883271450273  1.0000
  S   S187      1.0  0.48632631815382654  0.6664086335839884  0.7213423965887826  1.0000
  S   S188      1.0  0.42662773682872973  0.6092376568628024  0.7767615795697234  1.0000
  Fe  Fe95      1.0  0.47062779956143774  0.718482443534392  0.735728720784266  1.0000
  S   S189      1.0  0.5076511465253438  0.7536963013292242  0.7602284139195834  1.0000
  Fe  Fe96      1.0  0.4572330546443508  0.6758967786195439  0.6737169003787287  1.0000
  S   S190      1.0  0.4788176103596428  0.6595230970982736  0.6242706939821062  1.0000
  S   S191      1.0  0.42196898594226256  0.7028790048677618  0.7600104687202373  1.0000
  S   S192      1.0  0.4070072393365148  0.6575500204674221  0.6926131837316255  1.0000
  C   C1        1.0  0.45973764553089175  0.7433018876009948  0.5496530789362992  1.0000
  C   C2        1.0  0.49049953796492474  0.7252430110100867  0.5488219313880671  1.0000
  C   C3        1.0  0.49596666607881457  0.6987976398538988  0.5711760667974005  1.0000
  C   C4        1.0  0.47116532598377475  0.6911854265828664  0.5950655703229326  1.0000
  C   C5        1.0  0.4404726801318052  0.7093748268064952  0.5959669553341701  1.0000
  C   C6        1.0  0.43454062863458753  0.73505283782048  0.5729084659934042  1.0000
  H   H1        1.0  0.510180077721865  0.7316633684863156  0.5310913671434376  1.0000
  H   H2        1.0  0.5198418362680133  0.6849056343028685  0.5706483468884902  1.0000
  H   H3        1.0  0.4211827297721256  0.7034195056319544  0.6143030649075463  1.0000
  H   H4        1.0  0.4106491329363961  0.7488881843241705  0.5735025455471651  1.0000
  C   C7        1.0  0.672403406023767  0.7099181995726058  0.3819949760960954  1.0000
  C   C8        1.0  0.6892096316248381  0.7072842246938013  0.41295975579566774  1.0000
  C   C9        1.0  0.6711731621543126  0.712850329607345  0.44290699425463376  1.0000
  C   C10       1.0  0.6363688358539915  0.7212612520451472  0.4418839333670717  1.0000
  C   C11       1.0  0.6195406686850498  0.7236865000732631  0.4109414265519887  1.0000
  C   C12       1.0  0.6375705987939072  0.71811060665852  0.3810772235190914  1.0000
  H   H5        1.0  0.7161562895623201  0.7013678453139269  0.4138489523883414  1.0000
  H   H6        1.0  0.6843023001131656  0.7111159060312201  0.466807007978224  1.0000
  H   H7        1.0  0.5925204104949839  0.7294792868861537  0.4100358039470982  1.0000
  H   H8        1.0  0.6243826796643078  0.7194791458770021  0.35729501021095356  1.0000
  C   C13       1.0  0.8517769508411106  0.4921294938696102  0.4064064784233292  1.0000
  C   C14       1.0  0.858616541845439  0.5174503562543716  0.3834385577733966  1.0000
  C   C15       1.0  0.831742114498267  0.5352093962969272  0.3682272177726293  1.0000
  C   C16       1.0  0.7979582142683136  0.5278725829881323  0.3761944069144155  1.0000
  C   C17       1.0  0.791035847925757  0.5015792987274938  0.3980700260591871  1.0000
  C   C18       1.0  0.8179553045841552  0.48367691438256  0.4131767396794502  1.0000
  H   H9        1.0  0.8847984369939579  0.5238390702573614  0.3779724693688746  1.0000
  H   H10       1.0  0.837244732484911  0.554938760680237  0.35077437842493103  1.0000
  H   H11       1.0  0.7648824911421751  0.4957439381556301  0.40424328264268333  1.0000
  H   H12       1.0  0.8125564392099921  0.4640295992720641  0.4307755706632066  1.0000
  C   C19       1.0  0.8357604135493645  0.34492793067650457  0.6559298936022768  1.0000
  C   C20       1.0  0.8258743757580685  0.3777832851619341  0.6633564200328483  1.0000
  C   C21       1.0  0.836698312231706  0.40396247649102346  0.642996198213133  1.0000
  C   C22       1.0  0.8579029703305698  0.3973366191807345  0.6155099537209162  1.0000
  C   C23       1.0  0.8695401511193763  0.3647853121279632  0.6093632372418214  1.0000
  C   C24       1.0  0.858380140610389  0.33856131605531115  0.6295027334266909  1.0000
  H   H13       1.0  0.8099166964134289  0.3830485021362549  0.6847583994770869  1.0000
  H   H14       1.0  0.827820958989829  0.42915847772805743  0.6479505861796238  1.0000
  H   H15       1.0  0.8869572072144476  0.35972921675340636  0.5889212455428959  1.0000
  H   H16       1.0  0.8665811415890123  0.31323209922486284  0.6240334041246595  1.0000
  C   C25       1.0  0.553571375558522  0.3366162739259582  0.7042666960472624  1.0000
  C   C26       1.0  0.5566270348724862  0.3651362659571012  0.6844783966876782  1.0000
  C   C27       1.0  0.5874178182460722  0.3714501877003964  0.6678156625663013  1.0000
  C   C28       1.0  0.6154919613734674  0.34988558480928456  0.6719323681553268  1.0000
  C   C29       1.0  0.6123587203070392  0.32135606170878983  0.6916528148213964  1.0000
  C   C30       1.0  0.5812635658182905  0.31445354537038767  0.7073419665230681  1.0000
  H   H17       1.0  0.5351404551194824  0.38203744854524657  0.6815890539892204  1.0000
  H   H18       1.0  0.589776717450307  0.3934897896138052  0.6525094129358395  1.0000
  H   H19       1.0  0.6339513949558624  0.3045621338157179  0.6948814510911081  1.0000
  H   H20       1.0  0.5790261099306251  0.2923841690976053  0.7226436748168911  1.0000
  C   C31       1.0  0.5056708708943465  0.5252449323766225  0.7787287210666903  1.0000
  C   C32       1.0  0.5112970258377102  0.5531163871100915  0.7586284878688896  1.0000
  C   C33       1.0  0.487850633159152  0.5798450357574485  0.7588765113184825  1.0000
  C   C34       1.0  0.458914493496041  0.578712767410871  0.7792897314710924  1.0000
  C   C35       1.0  0.4545083794658365  0.5517677314359802  0.8009034097721051  1.0000
  C   C36       1.0  0.47786312590296104  0.5250594509097626  0.8006120853875507  1.0000
  H   H21       1.0  0.5327976469292112  0.5533062157116669  0.7416324929367325  1.0000
  H   H22       1.0  0.4914966897551761  0.6004562548371996  0.7421313115054673  1.0000
  H   H23       1.0  0.432333835186776  0.5509098046977964  0.8170248937223227  1.0000
  H   H24       1.0  0.47395392231938455  0.5039684343293326  0.8168752573043856  1.0000
  C   C37       1.0  0.34540031544447886  0.4388372513252987  0.9041941193002604  1.0000
  C   C38       1.0  0.34817257379815586  0.4046129261994557  0.9102931918329306  1.0000
  C   C39       1.0  0.374786601100319  0.3858359028683466  0.8959245741244262  1.0000
  C   C40       1.0  0.39804534144416154  0.4009724905919589  0.8744511258201717  1.0000
  C   C41       1.0  0.39564293372107723  0.43529942778479663  0.8686613947936725  1.0000
  C   C42       1.0  0.36949740421593114  0.4542856661113999  0.8837876051539261  1.0000
  H   H25       1.0  0.3299229756756246  0.3925437218835722  0.9261585021082577  1.0000
  H   H26       1.0  0.37668226849899084  0.35931474514491935  0.9006045229712925  1.0000
  H   H27       1.0  0.4140355585185452  0.4472942993592791  0.8528275113068212  1.0000
  H   H28       1.0  0.3675867166864197  0.4808263672816313  0.8792579435648252  1.0000
  C   C43       1.0  0.3906480262078477  0.7345107583667823  0.3654787816662059  1.0000
  C   C44       1.0  0.40507697309695434  0.7503638326660249  0.39336573373707445  1.0000
  C   C45       1.0  0.43858408271609667  0.7619050871556793  0.3920986653716331  1.0000
  C   C46       1.0  0.4575499454004011  0.7582057498974205  0.36265663966221545  1.0000
  C   C47       1.0  0.442764618956054  0.7434017133280121  0.3342459345390086  1.0000
  C   C48       1.0  0.40916016389094595  0.731628755289928  0.33560075173600123  1.0000
  H   H29       1.0  0.39022258593480585  0.7538597588053181  0.41592074923483824  1.0000
  H   H30       1.0  0.4496608505411994  0.7736840499611135  0.41396256002145354  1.0000
  H   H31       1.0  0.45741900348549247  0.7405861726818096  0.31139649045758194  1.0000
  H   H32       1.0  0.3979520908251772  0.7195293504827555  0.3138892728432365  1.0000
  C   C49       1.0  0.2703051261957539  0.45837843740562517  0.10270803461631194  1.0000
  C   C50       1.0  0.2687714205057064  0.4647877466352626  0.06824416478848017  1.0000
  C   C51       1.0  0.2479500540032757  0.44541378779318613  0.04727759653246344  1.0000
  C   C52       1.0  0.227920132651508  0.42025075299046366  0.06091036342889433  1.0000
  C   C53       1.0  0.22859769591745085  0.41462730292771544  0.09556303405141131  1.0000
  C   C54       1.0  0.25003154620582385  0.43347142453659215  0.11643634626087533  1.0000
  H   H33       1.0  0.2845595003648297  0.483940703965066  0.057533721093181674  1.0000
  H   H34       1.0  0.2477536291617783  0.44971865208138884  0.020532835563561447  1.0000
  H   H35       1.0  0.2131580209987146  0.3951249433315373  0.10614429746622989  1.0000
  H   H36       1.0  0.25092396904723036  0.42858975727763726  0.14310016248892607  1.0000
  C   C55       1.0  0.2666959133714686  0.607133078390647  0.2675774850671404  1.0000
  C   C56       1.0  0.29711281779016224  0.6084738795264111  0.2860393525508577  1.0000
  C   C57       1.0  0.31576443012637956  0.5791021533769927  0.2925305177004682  1.0000
  C   C58       1.0  0.30427597354571273  0.548407255420549  0.28023653732415205  1.0000
  C   C59       1.0  0.27328009675512205  0.5469967963211734  0.26271297345032846  1.0000
  C   C60       1.0  0.25443738924889836  0.576271752285885  0.25653665772568085  1.0000
  H   H37       1.0  0.306479650077977  0.6321465548388752  0.29511469049982353  1.0000
  H   H38       1.0  0.3395484575180048  0.5803223479893017  0.3064390227847234  1.0000
  H   H39       1.0  0.2636947166697173  0.5234739208093855  0.2538821443146095  1.0000
  H   H40       1.0  0.23074818670541203  0.5751119942188482  0.24248342557534117  1.0000
  C   C61       1.0  0.8518207096015845  0.43141881794563075  0.8016810789244881  1.0000
  C   C62       1.0  0.8405029070181672  0.4095316301185226  0.7765389252276049  1.0000
  C   C63       1.0  0.8055163978153885  0.4042147212010941  0.771787574838224  1.0000
  C   C64       1.0  0.7816535720252414  0.42072779837744284  0.7921772181285983  1.0000
  C   C65       1.0  0.7928689883409823  0.4430098586874028  0.8169773050718954  1.0000
  C   C66       1.0  0.8279466778432124  0.4481679388785095  0.8218783732157242  1.0000
  H   H41       1.0  0.8587049589963278  0.3961093566182095  0.7610902852401606  1.0000
  H   H42       1.0  0.7971064181205071  0.38707847603736006  0.7524999955230974  1.0000
  H   H43       1.0  0.774485664384274  0.4559988294372353  0.8326915318864452  1.0000
  H   H44       1.0  0.8364187885407444  0.4655212954074525  0.8409406927786559  1.0000
  C   C67       1.0  0.04408113928678281  0.40788070818876604  0.9160349436988228  1.0000
  C   C68       1.0  0.04764232884315356  0.4223914917338077  0.8844513325989135  1.0000
  C   C69       1.0  0.08003439258573054  0.4318648635053987  0.8732809633172584  1.0000
  C   C70       1.0  0.10878492473307244  0.4269931809903378  0.8937669360560512  1.0000
  C   C71       1.0  0.10514251121299997  0.41262851740628326  0.9253998031307502  1.0000
  C   C72       1.0  0.07285408669869153  0.4028655789420891  0.936420753001664  1.0000
  H   H45       1.0  0.02550693708396712  0.42592225978930986  0.8684791369757527  1.0000
  H   H46       1.0  0.08281143145030523  0.44295508578855336  0.8487527005059048  1.0000
  H   H47       1.0  0.12699922111134365  0.4097437167610672  0.941776863307406  1.0000
  H   H48       1.0  0.07007294830894639  0.3918847162389852  0.9610134602962176  1.0000
  C   C73       1.0  0.9481783095604462  0.7158614409469507  0.30456525220811775  1.0000
  C   C74       1.0  0.9321848779420426  0.7278887088176962  0.275544242369913  1.0000
  C   C75       1.0  0.9004202310362206  0.7154512645747411  0.26554479898945443  1.0000
  C   C76       1.0  0.8840217319951755  0.6916010370154154  0.28505481801664007  1.0000
  C   C77       1.0  0.9000654473844006  0.6794645907918025  0.31405193571926604  1.0000
  C   C78       1.0  0.9323606569807714  0.691249576031608  0.3235430852115064  1.0000
  H   H49       1.0  0.944239308476679  0.7468087069071385  0.2606910971636191  1.0000
  H   H50       1.0  0.8884141155266334  0.7249467644449964  0.24305603319827665  1.0000
  H   H51       1.0  0.88784939216107  0.6606860293019943  0.32894165623439  1.0000
  H   H52       1.0  0.9447857250187767  0.681715281980367  0.34587617177533797  1.0000
  C   C79       1.0  0.1282468035611278  0.8174485110560913  0.24406439870224175  1.0000
  C   C80       1.0  0.15935934450535114  0.8054673819803888  0.23130596313135815  1.0000
  C   C81       1.0  0.1872734309468234  0.8000837476873416  0.252926724131825  1.0000
  C   C82       1.0  0.18399195144944944  0.8064995653775884  0.2873291674218039  1.0000
  C   C83       1.0  0.15357246953125533  0.8204239173596506  0.29968245136924754  1.0000
  C   C84       1.0  0.12577382031565695  0.8259303622992094  0.2780688725505931  1.0000
  H   H53       1.0  0.16162695929824417  0.7995743261017606  0.2048449209680845  1.0000
  H   H54       1.0  0.21104910783774616  0.7904319493629384  0.24302569675666283  1.0000
  H   H55       1.0  0.15115737584508945  0.8260246970612177  0.3261922358087186  1.0000
  H   H56       1.0  0.1024712452366273  0.8366886877611125  0.28777175390358967  1.0000
  C   C85       1.0  0.8876156837231762  0.6435202943469945  0.9290200173467593  1.0000
  C   C86       1.0  0.8746136595704922  0.6134265199410658  0.9164611243865962  1.0000
  C   C87       1.0  0.8954784845235848  0.5846521224244984  0.9149586428993389  1.0000
  C   C88       1.0  0.9295677688796595  0.5861115945174062  0.9254941198708173  1.0000
  C   C89       1.0  0.942612590449934  0.6162788191045996  0.9376795129137495  1.0000
  C   C90       1.0  0.9216573995943436  0.6448390584261842  0.939627365764797  1.0000
  H   H57       1.0  0.8483156392450116  0.612292439265859  0.9081287517106117  1.0000
  H   H58       1.0  0.8852649803529202  0.5615246628906582  0.9053874018311564  1.0000
  H   H59       1.0  0.9690095843714669  0.6176183434612134  0.9456310696120964  1.0000
  H   H60       1.0  0.9320887374705238  0.6680110205410678  0.948691991522892  1.0000
  C   C91       1.0  0.9099056615722563  0.7448578163867277  0.12187211343366625  1.0000
  C   C92       1.0  0.9301051363700034  0.7400868868468018  0.1505141415245003  1.0000
  C   C93       1.0  0.9329033114728882  0.7656016187165302  0.17455091197692021  1.0000
  C   C94       1.0  0.9160292341466522  0.7961217202735432  0.16968408385615774  1.0000
  C   C95       1.0  0.8945506086223401  0.8002752555855596  0.14183001992491703  1.0000
  C   C96       1.0  0.8913129963599336  0.7745690164693091  0.11806195189745276  1.0000
  H   H61       1.0  0.9441034931358421  0.7168920611887293  0.1538582321514075  1.0000
  H   H62       1.0  0.9483792677243928  0.7616836263239402  0.19659968639238198  1.0000
  H   H63       1.0  0.8808303119946376  0.8236047240880213  0.13834091256555034  1.0000
  H   H64       1.0  0.8742637359324181  0.7777587563420368  0.09692773846300873  1.0000
  C   C97       1.0  0.4821888458866609  0.7784984071602558  0.8692005356406964  1.0000
  C   C98       1.0  0.5154016521952702  0.7827900576089339  0.8573058622477553  1.0000
  C   C99       1.0  0.5229485000478686  0.775993608282624  0.8235001450721481  1.0000
  C   C100      1.0  0.4972353771185145  0.7652711144698806  0.8015317994884232  1.0000
  C   C101      1.0  0.463772785544517  0.7626044489058078  0.8131821960998861  1.0000
  C   C102      1.0  0.45637318737226956  0.768533816666296  0.8470872076922346  1.0000
  H   H65       1.0  0.5355273862133508  0.7902266693552014  0.8743456889613838  1.0000
  H   H66       1.0  0.5488710718178196  0.7783670157917354  0.8145393918455336  1.0000
  H   H67       1.0  0.44346987135174  0.756319782369891  0.7960714046067585  1.0000
  H   H68       1.0  0.4305359359476284  0.7657288939669817  0.8561243163630304  1.0000
  C   C103      1.0  0.5915616103195461  0.901899150879334  0.34929843615759515  1.0000
  C   C104      1.0  0.6133115049703022  0.9153625061826709  0.3737729084148086  1.0000
  C   C105      1.0  0.6062267163899197  0.9111581742411852  0.40799580270095903  1.0000
  C   C106      1.0  0.5779202607243223  0.8926411697925098  0.4177384928755652  1.0000
  C   C107      1.0  0.5564714335229238  0.8788146588014744  0.39326900349759675  1.0000
  C   C108      1.0  0.5630662278958183  0.8837495249023026  0.35913186132615066  1.0000
  H   H69       1.0  0.6353929559402112  0.9294205254910722  0.3662316428256604  1.0000
  H   H70       1.0  0.6229126453721959  0.9218122866688809  0.42683681413782715  1.0000
  H   H71       1.0  0.5345236774928127  0.8645487826663912  0.4006381007485982  1.0000
  H   H72       1.0  0.5463713375446583  0.8729809279844697  0.34056739488745646  1.0000
  C   C109      1.0  0.45605483480966447  0.7962046124351149  0.22041671305338084  1.0000
  C   C110      1.0  0.44342198329542026  0.765820966111511  0.2319519629871478  1.0000
  C   C111      1.0  0.40842925035946753  0.7588803274378871  0.22912529522697156  1.0000
  C   C112      1.0  0.3864822940042576  0.7816641177558011  0.21325745574494218  1.0000
  C   C113      1.0  0.3993016858151921  0.8117158577623627  0.20121502085100493  1.0000
  C   C114      1.0  0.43385493346882725  0.8193211829441113  0.20551517796045826  1.0000
  H   H73       1.0  0.4605341559283018  0.7479149144867747  0.243627819491053  1.0000
  H   H74       1.0  0.398585531312808  0.735583936066644  0.23838836914252376  1.0000
  H   H75       1.0  0.3822890202976361  0.8293720787072694  0.1889892930840333  1.0000
  H   H76       1.0  0.44331094083095685  0.8427904880607464  0.19660741309312654  1.0000
  C   C115      1.0  0.5283454509266751  0.9365853766803078  0.12012315141974936  1.0000
  C   C116      1.0  0.5441725875572911  0.9263266875527997  0.09031889167369167  1.0000
  C   C117      1.0  0.5244740440824944  0.9145240778825939  0.0633695925796316  1.0000
  C   C118      1.0  0.4888622054099123  0.9138725598091654  0.06585288355212082  1.0000
  C   C119      1.0  0.47298409082561504  0.9251559608998177  0.09531913708678919  1.0000
  C   C120      1.0  0.4927148881278561  0.9361581902718216  0.12258561880426852  1.0000
  H   H77       1.0  0.5717488575011129  0.9264681336268626  0.08843648220013711  1.0000
  H   H78       1.0  0.5369780588600254  0.9052947442304471  0.04101584262622393  1.0000
  H   H79       1.0  0.4454166075444987  0.9248194842348989  0.097274682816052  1.0000
  H   H80       1.0  0.4802741609550108  0.9443733238601794  0.14540489625827177  1.0000
  C   C121      1.0  0.7517502685905939  0.366835047117216  0.36371794827831944  1.0000
  C   C122      1.0  0.7367214340557824  0.3405094539143146  0.3809596528088822  1.0000
  C   C123      1.0  0.7421691648630064  0.33691158092519435  0.41563350475944727  1.0000
  C   C124      1.0  0.7630825057730332  0.359375909388813  0.43289575446844253  1.0000
  C   C125      1.0  0.7774971281727009  0.38603461105454284  0.41578586751154856  1.0000
  C   C126      1.0  0.771667554110002  0.3898971528088334  0.38134185222575834  1.0000
  H   H81       1.0  0.7209547309452453  0.3228922315817589  0.3676918014436015  1.0000
  H   H82       1.0  0.73090840903474  0.3162942491972468  0.4288397213798612  1.0000
  H   H83       1.0  0.793207224510548  0.4037639053888016  0.4291212084525741  1.0000
  H   H84       1.0  0.7831994220879344  0.4104777697802207  0.3684232335181369  1.0000
  C   C127      1.0  0.39930795826788956  0.2759128260756287  0.1686513279738918  1.0000
  C   C128      1.0  0.37509304403244037  0.30039705016739404  0.1601161191560763  1.0000
  C   C129      1.0  0.37708489981468707  0.33250371991466904  0.17414809805002762  1.0000
  C   C130      1.0  0.40316862370768397  0.3401631045454329  0.19692447645340608  1.0000
  C   C131      1.0  0.42804620501192775  0.3160005402367222  0.20455793651203585  1.0000
  C   C132      1.0  0.426157753496343  0.28395177979481756  0.19039191925619287  1.0000
  H   H85       1.0  0.3544126484950066  0.2942009902870044  0.1431885130880373  1.0000
  H   H86       1.0  0.35842709979557685  0.3511854926493865  0.16740611319531262  1.0000
  H   H87       1.0  0.4486585019633679  0.3219888732569681  0.2216909679091769  1.0000
  H   H88       1.0  0.44577706484765983  0.2657110093985667  0.1959039710766655  1.0000
  C   C133      1.0  0.4119801957700799  0.03760821085429544  0.20388275077925994  1.0000
  C   C134      1.0  0.411409582793053  0.044213445307960564  0.23843183025760645  1.0000
  C   C135      1.0  0.41821586874411243  0.018484765042859896  0.26134354819358796  1.0000
  C   C136      1.0  0.4262764891088506  0.9863344884756758  0.2496825580344552  1.0000
  C   C137      1.0  0.4259589047624765  0.9796075231075724  0.2151834785151948  1.0000
  C   C138      1.0  0.41819786499985595  0.0050595748179316224  0.19236622447593052  1.0000
  H   H89       1.0  0.4058217706220117  0.06913303605498178  0.24751059416275847  1.0000
  H   H90       1.0  0.4181831924751454  0.023711998129020584  0.2880351403315334  1.0000
  H   H91       1.0  0.43131512950765094  0.9547102282815183  0.20602930772639683  1.0000
  H   H92       1.0  0.4180933039650061  0.9997216753459824  0.16568740474327298  1.0000
  C   C139      1.0  0.5588302744257259  0.1952591514433806  0.2280373453492413  1.0000
  C   C140      1.0  0.592323443725625  0.19474684133275144  0.24048085905513933  1.0000
  C   C141      1.0  0.6080502448682109  0.22456599808923358  0.2502537695521016  1.0000
  C   C142      1.0  0.5903265282829311  0.25489640658865026  0.2473799176146922  1.0000
  C   C143      1.0  0.5566640298144657  0.2553323600779988  0.23543784282619976  1.0000
  C   C144      1.0  0.5410507270201008  0.22557084592532936  0.2254928081094709  1.0000
  H   H93       1.0  0.6060772876679547  0.17127992186791566  0.2427296601953431  1.0000
  H   H94       1.0  0.6338001443311372  0.22402964561272953  0.2601518442746034  1.0000
  H   H95       1.0  0.5430215068973026  0.27884077866666346  0.23289508348484322  1.0000
  H   H96       1.0  0.5156887430922237  0.22632261512341328  0.21483782734017376  1.0000
  C   C145      1.0  0.823500832443342  0.912773385617181  0.9578730156311811  1.0000
  C   C146      1.0  0.8504557391796755  0.8919434814992991  0.9680453627943072  1.0000
  C   C147      1.0  0.843600612041578  0.8607717751415891  0.9821140348713299  1.0000
  C   C148      1.0  0.8097897564105166  0.8510913593688946  0.9872738079896113  1.0000
  C   C149      1.0  0.7829194424629338  0.8727010110016752  0.9786887611482394  1.0000
  C   C150      1.0  0.7897675351226491  0.9032735389767563  0.9634979054111125  1.0000
  H   H97       1.0  0.8765659943606641  0.8994771762628305  0.9643062593755702  1.0000
  H   H98       1.0  0.864475547828157  0.8443253113547914  0.989041586005148  1.0000
  H   H99       1.0  0.7567740542581133  0.8656777294903633  0.9833803795028238  1.0000
  H   H100      1.0  0.7688785517702275  0.9196470090155602  0.9566288357914041  1.0000
  C   C151      1.0  0.6873602112887254  0.8582293342055274  0.8872791460480633  1.0000
  C   C152      1.0  0.6570902624616126  0.8401594684507068  0.8848497551724808  1.0000
  C   C153      1.0  0.6361299607225068  0.8368232376683666  0.9130482429186442  1.0000
  C   C154      1.0  0.645643990040141  0.8513123628189284  0.9436876038167216  1.0000
  C   C155      1.0  0.6769804130528463  0.8675360349651599  0.9465776933181301  1.0000
  C   C156      1.0  0.6977757406360185  0.8711116964617492  0.9183198062656545  1.0000
  H   H101      1.0  0.6492318592153982  0.8297284920805872  0.860930982467511  1.0000
  H   H102      1.0  0.612411318390815  0.8234104474577787  0.910995033761648  1.0000
  H   H103      1.0  0.6846940357119896  0.87816816882782  0.9704638651212741  1.0000
  H   H104      1.0  0.7219225907784154  0.8836607469968276  0.9206761370300227  1.0000
  C   C157      1.0  0.6988316066884016  0.2805572336337086  0.887922041038311  1.0000
  C   C158      1.0  0.694423174478815  0.304850072848723  0.8632882035754561  1.0000
  C   C159      1.0  0.694657556122083  0.2956901392330514  0.8292873378265042  1.0000
  C   C160      1.0  0.6971425978595225  0.2620309345997663  0.8199955299346102  1.0000
  C   C161      1.0  0.6988098511013078  0.23754609705312882  0.8448478723436247  1.0000
  C   C162      1.0  0.7007574370540165  0.24686637930762215  0.8787503377398681  1.0000
  H   H105      1.0  0.6919910701803271  0.3308024037772509  0.8705108976497296  1.0000
  H   H106      1.0  0.6930789761171197  0.3147275522927676  0.810398081730465  1.0000
  H   H107      1.0  0.6998267060204546  0.21144246939552191  0.8380034866457435  1.0000
  H   H108      1.0  0.7035884519543049  0.22795313582991006  0.8977831926748383  1.0000
  C   C163      1.0  0.8568728754290297  0.3176081694455216  0.9824918605497919  1.0000
  C   C164      1.0  0.8249076216108188  0.333096033694648  0.9862818342153598  1.0000
  C   C165      1.0  0.8215209268674161  0.3677636539311011  0.9831096664680871  1.0000
  C   C166      1.0  0.8499586408045008  0.3869644853950165  0.9752231330207296  1.0000
  C   C167      1.0  0.8820855933478293  0.37162195650761404  0.9722300799999809  1.0000
  C   C168      1.0  0.8855879805574172  0.33701387675079186  0.9762052099559851  1.0000
  H   H109      1.0  0.8026896421664352  0.31852891007895895  0.9914935946342676  1.0000
  H   H110      1.0  0.7966398464498935  0.37956482532889624  0.9855353185487097  1.0000
  H   H111      1.0  0.9042873445405908  0.38639305714003436  0.9666977932727353  1.0000
  H   H112      1.0  0.9104674536550923  0.3252433343413583  0.9735702968245186  1.0000
  C   C169      1.0  0.7641255698584923  0.12192343060375858  0.8896640513601778  1.0000
  C   C170      1.0  0.7327752982345875  0.11886041837264727  0.906037868510777  1.0000
  C   C171      1.0  0.7116670483527355  0.09161703562891363  0.898700269392134  1.0000
  C   C172      1.0  0.7219822804808768  0.06757490791330656  0.875024261911619  1.0000
  C   C173      1.0  0.7523734036452785  0.07180560764371813  0.8573971953783643  1.0000
  C   C174      1.0  0.7734564339162567  0.09884567883456123  0.864763058051262  1.0000
  H   H113      1.0  0.7253212454870884  0.13671589019102573  0.9251604606767502  1.0000
  H   H114      1.0  0.688046268727163  0.08851106712649748  0.912290285592598  1.0000
  H   H115      1.0  0.7597754496374246  0.054036817138797044  0.8381837582567513  1.0000
  H   H116      1.0  0.7975299853013291  0.10125657135932896  0.8518052205902141  1.0000
  C   C175      1.0  0.7410642911861728  0.22010791597286655  0.09377983219934852  1.0000
  C   C176      1.0  0.7470112541949736  0.21104590022290332  0.127263402084905  1.0000
  C   C177      1.0  0.7499025383297759  0.2357385493187815  0.15235297373085163  1.0000
  C   C178      1.0  0.7471195163457309  0.2694459464262045  0.14378748640938943  1.0000
  C   C179      1.0  0.7402034120917133  0.27837578800419815  0.1105867699090432  1.0000
  C   C180      1.0  0.7365985382670637  0.2537527025231697  0.08581962557387947  1.0000
  H   H117      1.0  0.7501629950894125  0.18499091330027614  0.1336679622039458  1.0000
  H   H118      1.0  0.7553963378683459  0.22873320130130967  0.1780416891189983  1.0000
  H   H119      1.0  0.7373263655226587  0.30442053123293294  0.10401314779007208  1.0000
  H   H120      1.0  0.7293117595063693  0.2608516505881143  0.060789800074776634  1.0000
  C   C181      1.0  0.018396859443781333  0.793757533412222  0.8723688790151553  1.0000
  C   C182      1.0  0.9941022685931263  0.77129414511472  0.8841050382219019  1.0000
  C   C183      1.0  0.9778638241019848  0.7769912764738744  0.9150440097924281  1.0000
  C   C184      1.0  0.986613688152832  0.804705224434616  0.9346505637636733  1.0000
  C   C185      1.0  0.01148865412401956  0.8267229367407716  0.9232637277726874  1.0000
  C   C186      1.0  0.0269424986784792  0.8215894743946124  0.8919012169194398  1.0000
  H   H121      1.0  0.9875319695158898  0.7496718719374353  0.8690858727923424  1.0000
  H   H122      1.0  0.9587823033317706  0.7597900217085611  0.9237676764815522  1.0000
  H   H123      1.0  0.018323954209840565  0.8481698042954003  0.9383959231674371  1.0000
  H   H124      1.0  0.04566318774899569  0.8390249502436292  0.8829751486959552  1.0000
  C   C187      1.0  0.9325776163747224  0.9463962177935182  0.8031932647696425  1.0000
  C   C188      1.0  0.9100653784865974  0.9678938544544189  0.8201327782449258  1.0000
  C   C189      1.0  0.875842927594375  0.9703123937969018  0.8098849701236954  1.0000
  C   C190      1.0  0.8643772845243092  0.9519478523860441  0.7821327398962259  1.0000
  C   C191      1.0  0.8870987848124443  0.9309756687488349  0.7647795170267646  1.0000
  C   C192      1.0  0.92109550461115  0.9280195782599392  0.7754765537167211  1.0000
  H   H125      1.0  0.9189340353511942  0.982207034824076  0.8415276340038952  1.0000
  H   H126      1.0  0.8584769667585668  0.986734354691078  0.8232115407663094  1.0000
  H   H127      1.0  0.8783727410524199  0.916207905393475  0.7437499060858617  1.0000
  H   H128      1.0  0.9382718283540401  0.9111931917745024  0.7624779520475815  1.0000
  C   C193      1.0  0.3589484812897344  0.7820659034380298  0.7162727813613107  1.0000
  C   C194      1.0  0.39127068900605544  0.7904548090121098  0.7285599158037017  1.0000
  C   C195      1.0  0.3994785613177102  0.8238575136856306  0.7343196502393499  1.0000
  C   C196      1.0  0.37525172002789287  0.8490413697257112  0.7283649428734074  1.0000
  C   C197      1.0  0.3422256405544052  0.8406733373161484  0.7180292734297399  1.0000
  C   C198      1.0  0.3341510888924024  0.8071269797819411  0.7117129814366343  1.0000
  H   H129      1.0  0.41031451177742534  0.7713112403848554  0.7329111535915194  1.0000
  H   H130      1.0  0.4249437452518579  0.8301546556921712  0.7426658015900325  1.0000
  H   H131      1.0  0.3233900154891942  0.8601012434762768  0.7134405199983723  1.0000
  H   H132      1.0  0.3090425617255075  0.8007014894284695  0.7024084125560669  1.0000
  C   C199      1.0  0.40711280221321033  0.9792936813818404  0.8669075734918587  1.0000
  C   C200      1.0  0.428669244520824  0.9780291458575985  0.838998786237341  1.0000
  C   C201      1.0  0.4631433055986138  0.9687666334339785  0.8429525039600746  1.0000
  C   C202      1.0  0.4756147314785745  0.959214136784857  0.8744937582891362  1.0000
  C   C203      1.0  0.45439418915951973  0.9616423539783826  0.9025870229664733  1.0000
  C   C204      1.0  0.4203042455683133  0.9722509272221386  0.8988591892611257  1.0000
  H   H133      1.0  0.4187743648663511  0.9839632411439305  0.8143550938729177  1.0000
  H   H134      1.0  0.47964300231653006  0.9672732338238103  0.8212507787463604  1.0000
  H   H135      1.0  0.4640236430978677  0.9547545652446192  0.9271268346708065  1.0000
  H   H136      1.0  0.403766995528278  0.9734391246025192  0.9205637568584141  1.0000
  C   C205      1.0  0.19673076739176  0.9085354078894432  0.779665287473356  1.0000
  C   C206      1.0  0.20087050092265643  0.8996609224762895  0.7458754901761202  1.0000
  C   C207      1.0  0.17203545405903214  0.8934804386423676  0.7256974374927313  1.0000
  C   C208      1.0  0.13913574976081586  0.8964430271940677  0.7392405888235997  1.0000
  C   C209      1.0  0.13512583940794864  0.9069823234314761  0.7725053519344786  1.0000
  C   C210      1.0  0.1638363345670633  0.9126368222337229  0.7927835858364596  1.0000
  H   H137      1.0  0.22625306412148677  0.8961590683488796  0.7357124591924379  1.0000
  H   H138      1.0  0.1752979472229781  0.8854654156199016  0.6999059021153577  1.0000
  H   H139      1.0  0.10992664636811382  0.9107028104633844  0.7827152307477193  1.0000
  H   H140      1.0  0.1605893870656541  0.9198610694547001  0.818820357467771  1.0000
  C   C211      1.0  0.9029829780319071  0.2215299852811761  0.44582925665908313  1.0000
  C   C212      1.0  0.8838197679463649  0.24236414948659024  0.4671439783338454  1.0000
  C   C213      1.0  0.8950668945080308  0.2747897425515287  0.47449648711770215  1.0000
  C   C214      1.0  0.9255977476513467  0.28620816693789225  0.4607282906007935  1.0000
  C   C215      1.0  0.9444171809356015  0.26543324674649615  0.43914711431753706  1.0000
  C   C216      1.0  0.9332801175209735  0.2331323316136697  0.4318924584120358  1.0000
  H   H141      1.0  0.8603055593041427  0.2335161871519484  0.47792530896239743  1.0000
  H   H142      1.0  0.8804007031435421  0.2907102308617703  0.49119123761731737  1.0000
  H   H143      1.0  0.967462301056011  0.2743637541092037  0.42760606703506854  1.0000
  H   H144      1.0  0.9483231495667249  0.2172192559378752  0.4155474326438026  1.0000
  C   C217      1.0  0.8482232046589515  0.16465035721720436  0.2845212952697806  1.0000
  C   C218      1.0  0.8347647292820815  0.15636292802052545  0.31578399767316934  1.0000
  C   C219      1.0  0.8025468860897067  0.16832878833311407  0.32538212585487697  1.0000
  C   C220      1.0  0.7839366406766584  0.18932724167661616  0.30406947519285743  1.0000
  C   C221      1.0  0.7971309856609685  0.19760718155240112  0.2726255861539162  1.0000
  C   C222      1.0  0.8291747836143081  0.18494353200488994  0.26270644245005387  1.0000
  H   H145      1.0  0.8488743897651961  0.14026920293676226  0.3324205449772681  1.0000
  H   H146      1.0  0.7922943037430815  0.16176337295102355  0.3496105091386293  1.0000
  H   H147      1.0  0.7827312794800402  0.21378644602638303  0.2560261484310014  1.0000
  H   H148      1.0  0.8394953516594209  0.19138016038795838  0.23847250519003413  1.0000
  C   C223      1.0  0.37742510006531627  0.32972161909766023  0.6568929787989873  1.0000
  C   C224      1.0  0.3483360857686224  0.34461930372279564  0.6711527487311797  1.0000
  C   C225      1.0  0.3495549290494073  0.3775380704532241  0.6831468351968559  1.0000
  C   C226      1.0  0.38031558979938407  0.3948700008017554  0.6824269009736382  1.0000
  C   C227      1.0  0.4093578886060352  0.3799469824785477  0.6681870054132645  1.0000
  C   C228      1.0  0.4076998143459903  0.34765800569733957  0.6547172359347263  1.0000
  H   H149      1.0  0.3249456013627631  0.3307591056855177  0.6732979875906643  1.0000
  H   H150      1.0  0.32719963181093237  0.38885636625661907  0.6945785312245877  1.0000
  H   H151      1.0  0.4333147101181886  0.3931158639655457  0.667958307582225  1.0000
  H   H152      1.0  0.4302908051514592  0.33614129062323483  0.6438983837690657  1.0000
  C   C229      1.0  0.24408209899232616  0.3091576609746668  0.7850559671884673  1.0000
  C   C230      1.0  0.22571601810224998  0.33267224376894877  0.8040130172676937  1.0000
  C   C231      1.0  0.22742866626356975  0.3320797316917407  0.8390964812498941  1.0000
  C   C232      1.0  0.2471925526721087  0.3078051507513599  0.8553591882943384  1.0000
  C   C233      1.0  0.26456239969437695  0.2834819176839287  0.8364466258136184  1.0000
  C   C234      1.0  0.26317948495764426  0.28426145777494755  0.8012292250938682  1.0000
  H   H153      1.0  0.2108333275115403  0.3518674970367317  0.7915180839153129  1.0000
  H   H154      1.0  0.21350229213981828  0.35046920255365516  0.8535688267063138  1.0000
  H   H155      1.0  0.2798333453627091  0.26461740180025034  0.849000743790201  1.0000
  H   H156      1.0  0.27729366547753154  0.26592631472191774  0.7866616703783688  1.0000
  C   C235      1.0  0.3346480212587534  0.13463505137412501  0.7467214426062553  1.0000
  C   C236      1.0  0.3555932255830777  0.10617279405331648  0.7491137935908544  1.0000
  C   C237      1.0  0.3425900265623453  0.07460818942557035  0.7407430657207988  1.0000
  C   C238      1.0  0.3086841100498275  0.07164670558982622  0.7298990131281444  1.0000
  C   C239      1.0  0.287597823638091  0.09997659217617993  0.7285605358795493  1.0000
  C   C240      1.0  0.30061506700393137  0.13135157620443275  0.7366863355493303  1.0000
  H   H157      1.0  0.38203382287276394  0.10860956442258429  0.756687559407786  1.0000
  H   H158      1.0  0.35908276363623143  0.05279332397189718  0.7415839640912002  1.0000
  H   H159      1.0  0.2610940910517885  0.09776788285442395  0.7211792340566323  1.0000
  H   H160      1.0  0.2840262391670016  0.1529080460112365  0.7356411323187203  1.0000
  C   C241      1.0  0.2905732195147179  0.20352566356182603  0.32576581371989277  1.0000
  C   C242      1.0  0.3139205396791132  0.20673233958754467  0.35224295485647894  1.0000
  C   C243      1.0  0.3485553584600706  0.1989451188513189  0.3471710942046525  1.0000
  C   C244      1.0  0.359802850259701  0.18761475652209944  0.3157398158018029  1.0000
  C   C245      1.0  0.3361721593309961  0.18342609075503116  0.2896871464134024  1.0000
  C   C246      1.0  0.3016466405384251  0.19146979293681107  0.29461284979527724  1.0000
  H   H161      1.0  0.3054322238918927  0.2152877742108735  0.3766119580011425  1.0000
  H   H162      1.0  0.3666248785732599  0.20186230421318765  0.36758914030433515  1.0000
  H   H163      1.0  0.34437514444614675  0.17411203992540997  0.2656736518771788  1.0000
  H   H164      1.0  0.28364384467161335  0.18870164255409672  0.27412021347369747  1.0000
  C   C247      1.0  0.2328272300200144  0.36371278624034903  0.3623700820732191  1.0000
  C   C248      1.0  0.20297367778866182  0.3623395593612496  0.34301991952607075  1.0000
  C   C249      1.0  0.20464763102803527  0.3657819950896863  0.3080392988654587  1.0000
  C   C250      1.0  0.23614754459646253  0.3705708510823073  0.29241569501262177  1.0000
  C   C251      1.0  0.2660540239951506  0.3706842726385496  0.3117488134871343  1.0000
  C   C252      1.0  0.26442414957061716  0.3674344697279622  0.3467034410535492  1.0000
  H   H165      1.0  0.1785494805441587  0.3589612878275687  0.3550824223652654  1.0000
  H   H166      1.0  0.1814624364626231  0.36530051036287836  0.29313908224288543  1.0000
  H   H167      1.0  0.2904855685238691  0.37293131425018483  0.2998557051351233  1.0000
  H   H168      1.0  0.28760646701851345  0.3677584247428817  0.3616072967620403  1.0000
  C   C253      1.0  0.1073106433624744  0.2225243425635649  0.42548121535338185  1.0000
  C   C254      1.0  0.08419027217266817  0.19633090251603666  0.428292988611004  1.0000
  C   C255      1.0  0.05955002724892955  0.19107512742749772  0.40318333720073257  1.0000
  C   C256      1.0  0.057664503142278  0.21237547739241383  0.3755806991310029  1.0000
  C   C257      1.0  0.08042334388802175  0.23888769127756002  0.37311184013300264  1.0000
  C   C258      1.0  0.10530045174464474  0.2438907071159725  0.39793636812934396  1.0000
  H   H169      1.0  0.08563208223596724  0.17981952692852757  0.4496586993879999  1.0000
  H   H170      1.0  0.042499612183474866  0.17023180513067646  0.4049508633723226  1.0000
  H   H171      1.0  0.07879344809664413  0.2555558669956574  0.35187765336482785  1.0000
  H   H172      1.0  0.12236995733868088  0.2647285741807887  0.3960861717019398  1.0000
  C   C259      1.0  0.28684606011996944  0.2156467042153861  0.5245628225057861  1.0000
  C   C260      1.0  0.30861358974639636  0.20754890753156993  0.551270507000725  1.0000
  C   C261      1.0  0.29504248761261165  0.19916326533999898  0.5824854406077562  1.0000
  C   C262      1.0  0.259668213984795  0.19795466851171642  0.5868742860213465  1.0000
  C   C263      1.0  0.2378611857616459  0.20400236885072373  0.5596066143667192  1.0000
  C   C264      1.0  0.25144121314814555  0.2132144355812692  0.5284898538563261  1.0000
  H   H173      1.0  0.33601134525050397  0.20884347108098983  0.548134337906116  1.0000
  H   H174      1.0  0.31205268459660135  0.19357824082668912  0.6030665890287786  1.0000
  H   H175      1.0  0.21046052646236982  0.20278305003691824  0.5628294400476416  1.0000
  H   H176      1.0  0.23445969195609861  0.21917267762941953  0.507838681330204  1.0000
  C   C265      1.0  0.8011418432029994  0.7866006803631603  0.4679313086488586  1.0000
  C   C266      1.0  0.7813588480453807  0.7672479937504961  0.4460585661839981  1.0000
  C   C267      1.0  0.7911306436841579  0.7343293487910999  0.43854106696155903  1.0000
  C   C268      1.0  0.8207097661497837  0.7206034803918698  0.4528577279355682  1.0000
  C   C269      1.0  0.840191015623379  0.7396604128904778  0.4752539959922982  1.0000
  C   C270      1.0  0.8305737518757558  0.7727600944457017  0.4825503210592704  1.0000
  H   H177      1.0  0.758904312034245  0.7778371580224258  0.43420926034698115  1.0000
  H   H178      1.0  0.7757602172974345  0.7196266374566875  0.4215594720304717  1.0000
  H   H179      1.0  0.8630508857879446  0.7290798851003567  0.48647567804516373  1.0000
  H   H180      1.0  0.8457835826170401  0.7874136021595385  0.4996969508193658  1.0000
  C   C271      1.0  0.9692869869541156  0.8570228001385961  0.43558177827767675  1.0000
  C   C272      1.0  0.9835577391047338  0.8364572008193503  0.41075257581983093  1.0000
  C   C273      1.0  0.9888362040135782  0.8489480424889262  0.37845414826289087  1.0000
  C   C274      1.0  0.9812710534999168  0.8823565392624174  0.3713954035635973  1.0000
  C   C275      1.0  0.9683387901390271  0.9032718268318214  0.3966552183996085  1.0000
  C   C276      1.0  0.9616702335183404  0.8904104756326302  0.42851131062599707  1.0000
  H   H181      1.0  0.9895963668255029  0.8106424086687118  0.41615846145119983  1.0000
  H   H182      1.0  0.9986711592860349  0.832583347431038  0.3591181335777854  1.0000
  H   H183      1.0  0.9628554646541566  0.9292178177571595  0.3916139503897555  1.0000
  H   H184      1.0  0.9507893455335698  0.906385416160812  0.44770515912333186  1.0000
  C   C277      1.0  0.8900407627030777  0.9879848562400887  0.41923580223692913  1.0000
  C   C278      1.0  0.8851125564060993  0.010686240134979652  0.39309582460218784  1.0000
  C   C279      1.0  0.9127999582163252  0.02833241063097458  0.3803331329185518  1.0000
  C   C280      1.0  0.9453801198070185  0.023837984874297335  0.3941095478363077  1.0000
  C   C281      1.0  0.9506285490709293  4.9512477844126934e-05  0.41926324546038307  1.0000
  C   C282      1.0  0.9229172889237456  0.982142507085125  0.43187348523149194  1.0000
  H   H185      1.0  0.8597380190815134  0.015063481295953807  0.3830136016749582  1.0000
  H   H186      1.0  0.9088405824456125  0.04562183411240284  0.35997182630685093  1.0000
  H   H187      1.0  0.9758479076442084  0.9963110820033948  0.42989637954011756  1.0000
  H   H188      1.0  0.9268892033497764  0.9645885987262555  0.4519953822590284  1.0000
  C   C283      1.0  0.8945866664924473  0.8941313328625587  0.6250105898864619  1.0000
  C   C284      1.0  0.8979205456011573  0.8600837507039484  0.6179663026430862  1.0000
  C   C285      1.0  0.9145756467903587  0.8388989590033638  0.6406602083516051  1.0000
  C   C286      1.0  0.9283458196924759  0.8516589280776434  0.6704470652041441  1.0000
  C   C287      1.0  0.924854378211809  0.8857006979908244  0.6778617916696434  1.0000
  C   C288      1.0  0.9078548698562879  0.9069146039407587  0.6551625738528226  1.0000
  H   H189      1.0  0.8867621672782974  0.8497415065577174  0.595550183150034  1.0000
  H   H190      1.0  0.9168883436114585  0.8125117962121869  0.6350338510104275  1.0000
  H   H191      1.0  0.9351847707226906  0.8956654624834144  0.7010139096663062  1.0000
  H   H192      1.0  0.9050870014646186  0.9332265759349256  0.6609378531514999  1.0000
  N   N1        1.0  0.5189217045686566  0.04424233545464329  0.18142284719802126  1.0000
  C   C289      1.0  0.520880006042186  0.07585666968223825  0.16268634760442025  1.0000
  C   C290      1.0  0.5536794149778844  0.030518241316110473  0.18691306645198624  1.0000
  C   C291      1.0  0.49853233407571174  0.020055510527765552  0.16189877696602983  1.0000
  C   C292      1.0  0.5024591175296746  0.05057229866221613  0.21420658000785386  1.0000
  H   H193      1.0  0.5358882800335522  0.09483993783910472  0.17676553884860735  1.0000
  H   H194      1.0  0.49492099107687293  0.0867415119295376  0.15822877000522184  1.0000
  H   H195      1.0  0.5330802268157694  0.07200278184007702  0.13776268041158501  1.0000
  H   H196      1.0  0.5529446393827318  0.0068023920318649456  0.20126362391780495  1.0000
  H   H197      1.0  0.5665895288361448  0.02464981862170812  0.16267702792804029  1.0000
  H   H198      1.0  0.5699482302390606  0.048272643366540136  0.20119868960598408  1.0000
  H   H199      1.0  0.4949091273067813  0.9965529106499542  0.1761157877869577  1.0000
  H   H200      1.0  0.5111609586656822  0.01316199203664059  0.13779266802874535  1.0000
  H   H201      1.0  0.4727758753271719  0.030390580817476254  0.1556901390076606  1.0000
  H   H202      1.0  0.4765875900674733  0.06170464399392106  0.2108207385714933  1.0000
  H   H203      1.0  0.5174598467514241  0.06828156364638382  0.2298792551772766  1.0000
  H   H204      1.0  0.49935544730227777  0.02710445185643473  0.22866620353196665  1.0000
  N   N2        1.0  0.765146361817458  0.4670045997987673  0.29343910557610436  1.0000
  C   C293      1.0  0.75091228094117  0.4482204055908709  0.2646208870634731  1.0000
  C   C294      1.0  0.771887086930464  0.5016827608206973  0.28320339950698514  1.0000
  C   C295      1.0  0.7974611537398268  0.45105500920852704  0.30460487034383893  1.0000
  C   C296      1.0  0.7403291929335731  0.4671023720997053  0.32133247163565004  1.0000
  H   H205      1.0  0.7691779690355307  0.4469436144682054  0.24331919860868984  1.0000
  H   H206      1.0  0.7267159910151902  0.4598323034337545  0.25538716019547447  1.0000
  H   H207      1.0  0.7449889041772164  0.42207519389725  0.27163290995934825  1.0000
  H   H208      1.0  0.7847172391710767  0.5158818708295435  0.3036580563959666  1.0000
  H   H209      1.0  0.7888729789854146  0.5025127092558742  0.26091768312601626  1.0000
  H   H210      1.0  0.7478015578005145  0.5153831107443755  0.27701220720907804  1.0000
  H   H211      1.0  0.8079698698528592  0.46365008995090584  0.3274040718090178  1.0000
  H   H212      1.0  0.8172781808662405  0.451798958797007  0.284712421139647  1.0000
  H   H213      1.0  0.7936617199281583  0.42438490471676654  0.31098811880731625  1.0000
  H   H214      1.0  0.735021460702868  0.4413415557585503  0.330023327429671  1.0000
  H   H215      1.0  0.7155350414851215  0.4787065914377664  0.3138149998665115  1.0000
  H   H216      1.0  0.7499640967325397  0.48140613436237295  0.3433260764271865  1.0000
  N   N3        1.0  0.9914898071630569  0.807781326458616  0.07738485317904682  1.0000
  C   C297      1.0  0.9996441141202269  0.8044342893910014  0.11351448472073118  1.0000
  C   C298      1.0  0.9821894614613692  0.7748552060748816  0.06336558128204174  1.0000
  C   C299      1.0  0.021538818123855608  0.8204743319243923  0.05934306729227923  1.0000
  C   C300      1.0  0.9625046718092825  0.8313701186383419  0.07320593197900016  1.0000
  H   H217      1.0  0.021328443657384843  0.7867425915182862  0.11776890547335932  1.0000
  H   H218      1.0  0.9773910126016425  0.7949574676181991  0.127716793730045  1.0000
  H   H219      1.0  0.006655116917846149  0.8288135044710098  0.12504215914966105  1.0000
  H   H220      1.0  0.9762852345037614  0.7763793597699712  0.036036081883470183  1.0000
  H   H221      1.0  0.00318373344127032  0.7561994617460129  0.06654371312253748  1.0000
  H   H222      1.0  0.959242744589123  0.7647580354200846  0.0758894987974046  1.0000
  H   H223      1.0  0.01603676279987787  0.8232088123826757  0.031968723553956524  1.0000
  H   H224      1.0  0.0438788443754361  0.8032366215550576  0.06187258943868068  1.0000
  H   H225      1.0  0.02927348142703634  0.8453363816099108  0.06916753753964146  1.0000
  H   H226      1.0  0.9685216762612825  0.8564275528169153  0.0836906440900734  1.0000
  H   H227      1.0  0.9393052710579114  0.822451344441975  0.08633746226156111  1.0000
  H   H228      1.0  0.9557484557044859  0.8345883115333339  0.04618821732846534  1.0000
  N   N4        1.0  0.8809211608440581  0.9229040453442234  0.3274761404768099  1.0000
  C   C301      1.0  0.8964687266001741  0.889253498962199  0.3243034257334945  1.0000
  C   C302      1.0  0.8619615300094431  0.9253671247758599  0.3594446106593583  1.0000
  C   C303      1.0  0.8572638480845343  0.928729814600265  0.2990240284207649  1.0000
  C   C304      1.0  0.9080332834923129  0.9482799437749905  0.32713389634966017  1.0000
  H   H229      1.0  0.9122910407700108  0.8869265114835091  0.30117156426690844  1.0000
  H   H230      1.0  0.8767225594947917  0.8695466113435009  0.3231553336752477  1.0000
  H   H231      1.0  0.9135318349559393  0.8836313761870277  0.34599753867147726  1.0000
  H   H232      1.0  0.8496688158261364  0.9503666453178016  0.36268006284667065  1.0000
  H   H233      1.0  0.8414664286115756  0.9064458870563848  0.36090768989529004  1.0000
  H   H234      1.0  0.8791999428593164  0.9215388024716625  0.38148257810045955  1.0000
  H   H235      1.0  0.8451934796116881  0.9539950366259842  0.3005292377842498  1.0000
  H   H236      1.0  0.8363205203459803  0.9101697872655494  0.2985726953623854  1.0000
  H   H237      1.0  0.8708278433581834  0.9268191565534277  0.27452183052438217  1.0000
  H   H238      1.0  0.8971714029157796  0.9740286767453057  0.32860937194690654  1.0000
  H   H239      1.0  0.9237443501865314  0.9463529481031799  0.3039343535259356  1.0000
  H   H240      1.0  0.9257365103910419  0.9452497761912124  0.3488043785407247  1.0000
  N   N5        1.0  0.8018761465776928  0.046800867919918554  0.9620154478191146  1.0000
  C   C305      1.0  0.770856672352544  0.028409910050603  0.952095457352188  1.0000
  C   C306      1.0  0.792308935204407  0.08097638902041197  0.9729141225846341  1.0000
  C   C307      1.0  0.8252327836715423  0.04848070522698067  0.9330116929552978  1.0000
  C   C308      1.0  0.8191372641820531  0.029283526626305397  0.9900070171492708  1.0000
  H   H241      1.0  0.7772465470681371  0.0024046507313688625  0.9441088446750078  1.0000
  H   H242      1.0  0.7574721031477648  0.0406510444790904  0.9306805534416565  1.0000
  H   H243      1.0  0.7523585565026119  0.026958153063937115  0.9731486957115767  1.0000
  H   H244      1.0  0.81511881580764  0.09569340888694344  0.9803151806073563  1.0000
  H   H245      1.0  0.7793025820599463  0.0949213401261192  0.952437844403523  1.0000
  H   H246      1.0  0.7745779307350813  0.08076882782378741  0.9946903748971518  1.0000
  H   H247      1.0  0.8488288505003658  0.06242123383805209  0.9393836668534282  1.0000
  H   H248      1.0  0.8128616171082967  0.06133006473195257  0.9113732047580286  1.0000
  H   H249      1.0  0.833124184584828  0.023078536589350437  0.9242810451359765  1.0000
  H   H250      1.0  0.842738748259786  0.04239274104557777  0.9980399816139368  1.0000
  H   H251      1.0  0.8267335800495517  0.0033933973207820323  0.982670318538131  1.0000
  H   H252      1.0  0.8021608410018592  0.027435529599063143  0.012251689694510405  1.0000
  N   N6        1.0  0.42063026402230785  0.5301588413450669  0.6911784833072323  1.0000
  C   C309      1.0  0.4387902472840545  0.5057794542262621  0.6694637516621703  1.0000
  C   C310      1.0  0.4224805705103404  0.5189399875122758  0.7263933746266324  1.0000
  C   C311      1.0  0.3844228013913704  0.5326599586807469  0.6807441341629737  1.0000
  C   C312      1.0  0.4367986952706542  0.5631733154532059  0.6882942648576499  1.0000
  H   H253      1.0  0.4382387791176331  0.51358795430255  0.6427127502945835  1.0000
  H   H254      1.0  0.42706770596811894  0.48064093955585385  0.6708947970573255  1.0000
  H   H255      1.0  0.46606641067667615  0.5029158683578232  0.6771485482665682  1.0000
  H   H256      1.0  0.40958477975565943  0.494638294214221  0.7297343194762782  1.0000
  H   H257      1.0  0.4494071897459896  0.5156166874260556  0.7347830912618409  1.0000
  H   H258      1.0  0.4099371541221018  0.5372119840644238  0.7437126831697763  1.0000
  H   H259      1.0  0.37152771333961726  0.5080890988079108  0.6827982737275631  1.0000
  H   H260      1.0  0.3819259422598602  0.541042935257788  0.6542652353576137  1.0000
  H   H261      1.0  0.37010415543065095  0.5508318086287828  0.6968178801302505  1.0000
  H   H262      1.0  0.4348142165930327  0.5731409042761993  0.6623209459244475  1.0000
  H   H263      1.0  0.4644270881232239  0.5618736935787225  0.6948945323716309  1.0000
  H   H264      1.0  0.4246515406318802  0.5818295177013505  0.7054866962305523  1.0000
  N   N7        1.0  0.6771718037204815  0.8216381664797804  0.4580666197337734  1.0000
  C   C313      1.0  0.6901173167228687  0.7958497189772182  0.4814048758089272  1.0000
  C   C314      1.0  0.6642948264079299  0.8055205298279893  0.4271098306166006  1.0000
  C   C315      1.0  0.7050134135342955  0.8445956636738916  0.4494427132914565  1.0000
  C   C316      1.0  0.6490977889415734  0.8406470735584176  0.47423918829229117  1.0000
  H   H265      1.0  0.7103227231894474  0.7800573469262873  0.4695987415253585  1.0000
  H   H266      1.0  0.6693664414314353  0.7788631487513484  0.4893256880875075  1.0000
  H   H267      1.0  0.7013533074555558  0.807178949155078  0.5044603097232356  1.0000
  H   H268      1.0  0.6541352169296918  0.824253700010051  0.40901056926031254  1.0000
  H   H269      1.0  0.6846284071266621  0.7905246038293906  0.4143587666239177  1.0000
  H   H270      1.0  0.6432199243787251  0.7882255791542271  0.43287957507799996  1.0000
  H   H271      1.0  0.7160847083567335  0.8565324661491358  0.4723000740976917  1.0000
  H   H272      1.0  0.6958562181658331  0.8648436371984333  0.43254101373727133  1.0000
  H   H273      1.0  0.7262841056033594  0.8311939265557555  0.43649047682379044  1.0000
  H   H274      1.0  0.6576302096187684  0.8528349653148465  0.4979503429689828  1.0000
  H   H275      1.0  0.6272223026955914  0.8242633648057665  0.4804394452876875  1.0000
  H   H276      1.0  0.6390549171697592  0.8606052074152138  0.4574793023757624  1.0000
  N   N8        1.0  0.6104352295426845  0.41919427199008324  0.7663581232214539  1.0000
  C   C317      1.0  0.5989231626869108  0.43474315732316315  0.7981758830089368  1.0000
  C   C318      1.0  0.6474528016548344  0.42470459545964906  0.7621692859531588  1.0000
  C   C319      1.0  0.5916345554053098  0.4343168884978824  0.7379138142996868  1.0000
  C   C320      1.0  0.6037543718437212  0.3829937730706927  0.7670957441715348  1.0000
  H   H277      1.0  0.5711143010350652  0.43108351687633123  0.802151055436265  1.0000
  H   H278      1.0  0.6031023690056961  0.4621784899860264  0.7982611164765768  1.0000
  H   H279      1.0  0.6127201984310406  0.4240253885481968  0.8201623039980542  1.0000
  H   H280      1.0  0.6569824179962227  0.4136954384450427  0.7381682966023106  1.0000
  H   H281      1.0  0.6535308996857125  0.4517494554206657  0.761986199504495  1.0000
  H   H282      1.0  0.6625392751718505  0.41315597139033594  0.7829260649807274  1.0000
  H   H283      1.0  0.6005966281520095  0.42398698019088027  0.7134514866465167  1.0000
  H   H284      1.0  0.5948734412576712  0.461864583720581  0.737357691916759  1.0000
  H   H285      1.0  0.5637337676253136  0.4295744457704082  0.739646636785024  1.0000
  H   H286      1.0  0.6175034562486574  0.3705879992822429  0.7882034393145775  1.0000
  H   H287      1.0  0.6121559102465938  0.37062984622648426  0.7434354359178922  1.0000
  H   H288      1.0  0.5760393589945086  0.3777918723603818  0.7698817537980829  1.0000
  N   N9        1.0  0.4266039064569773  0.8688057584885248  0.8355119496394349  1.0000
  C   C321      1.0  0.4060782989368636  0.8395299280823937  0.8258547146117486  1.0000
  C   C322      1.0  0.4303117617449451  0.8908645920947363  0.8062526181187523  1.0000
  C   C323      1.0  0.4608277508922079  0.8578262995917053  0.8469874130946108  1.0000
  C   C324      1.0  0.40929748104328584  0.8870759503631235  0.8630592764925729  1.0000
  H   H289      1.0  0.4019222652881948  0.8228747710239699  0.847669443641186  1.0000
  H   H290      1.0  0.4189584068967762  0.8244153197568962  0.8059793868349624  1.0000
  H   H291      1.0  0.38057542755474605  0.8472450276907452  0.8158454031923354  1.0000
  H   H292      1.0  0.44775734057771527  0.911790294498606  0.8117838687589721  1.0000
  H   H293      1.0  0.4408908834511555  0.8771382494752219  0.7841893396488171  1.0000
  H   H294      1.0  0.4053739353202818  0.9019768604413301  0.7985853385136517  1.0000
  H   H295      1.0  0.47729934257698486  0.8794684692180909  0.853405641525396  1.0000
  H   H296      1.0  0.4742700486996424  0.8427249416147489  0.827436233646687  1.0000
  H   H297      1.0  0.4590190429032398  0.8425030445266187  0.8699885039672554  1.0000
  H   H298      1.0  0.42467987435136273  0.9085308336418325  0.8716162577741389  1.0000
  H   H299      1.0  0.40542730554870793  0.8708962158972979  0.8853013789241813  1.0000
  H   H300      1.0  0.3838867728248821  0.8970308961074871  0.8551937571476999  1.0000
  N   N10       1.0  0.790258394812229  0.36033189374056707  0.8812302404024882  1.0000
  C   C325      1.0  0.7859406435062751  0.33162124736722  0.9038684303579604  1.0000
  C   C326      1.0  0.7563405668992967  0.37267648456744107  0.87019274744154  1.0000
  C   C327      1.0  0.8105382287557472  0.34983276576944333  0.8517047701018321  1.0000
  C   C328      1.0  0.8083016263023373  0.3872765680188846  0.8991828840580729  1.0000
  H   H301      1.0  0.8110207395588297  0.3214932925111548  0.9126485386956613  1.0000
  H   H302      1.0  0.7717728235061821  0.31108804874557333  0.8912640120893791  1.0000
  H   H303      1.0  0.7710725459532445  0.3387420146599852  0.9266751344964428  1.0000
  H   H304      1.0  0.7438314954054471  0.3547097535214769  0.8528367204327331  1.0000
  H   H305      1.0  0.7389895766671011  0.3770863626762624  0.891901187943351  1.0000
  H   H306      1.0  0.758255570699963  0.3966160418915967  0.8565349924964965  1.0000
  H   H307      1.0  0.8143906744047004  0.3710308418174587  0.8343402705505444  1.0000
  H   H308      1.0  0.7976169768463018  0.3297086544370494  0.8372614255568912  1.0000
  H   H309      1.0  0.8363256376754191  0.34051295315306285  0.8592833514915164  1.0000
  H   H310      1.0  0.7936522055656581  0.3961832508655968  0.9214625959757863  1.0000
  H   H311      1.0  0.8124078166067324  0.4092852871988876  0.8828732572661231  1.0000
  H   H312      1.0  0.8339345145757132  0.3787973105414467  0.9080546665205353  1.0000
  N   N11       1.0  0.421142857887386  0.6809302061869501  0.4687801182420054  1.0000
  C   C329      1.0  0.3950729805624027  0.6556160645497422  0.47596640619203884  1.0000
  C   C330      1.0  0.45160265482922224  0.6748465225346629  0.49003648809908207  1.0000
  C   C331      1.0  0.4069793659389447  0.7144973963635696  0.4761932871349007  1.0000
  C   C332      1.0  0.4308241749910907  0.678814483290944  0.4329619391492475  1.0000
  H   H313      1.0  0.40501253448205027  0.6299478866316917  0.47096576176094457  1.0000
  H   H314      1.0  0.3718752109770751  0.6593778815947708  0.46003359578106273  1.0000
  H   H315      1.0  0.3869078316933607  0.6568927440937086  0.5027102614192552  1.0000
  H   H316      1.0  0.47134508607717  0.694107871713881  0.4859034349962955  1.0000
  H   H317      1.0  0.4450985067076834  0.6756612352594915  0.5172470969281382  1.0000
  H   H318      1.0  0.4635870270835644  0.6501014044881347  0.4846637560066096  1.0000
  H   H319      1.0  0.42522542075544456  0.7343761122653799  0.4691567313003243  1.0000
  H   H320      1.0  0.40149150922240723  0.7178471843516031  0.5034321410223574  1.0000
  H   H321      1.0  0.3827554340306675  0.7191801230036758  0.46218311598749057  1.0000
  H   H322      1.0  0.45025466545590637  0.6978283791993101  0.4265609330509301  1.0000
  H   H323      1.0  0.4083256842469595  0.6831132627609526  0.4162090427986562  1.0000
  H   H324      1.0  0.4418569932811155  0.6539265336771743  0.4264363694169701  1.0000
  N   N12       1.0  0.8998292762064346  0.7686846243405321  0.3934629940085611  1.0000
  C   C333      1.0  0.9115239197990899  0.7844357740578567  0.4250641431596047  1.0000
  C   C334      1.0  0.8639235852278964  0.778507677310887  0.38687604710047363  1.0000
  C   C335      1.0  0.9023524916235183  0.7320226110932025  0.3964861666855991  1.0000
  C   C336      1.0  0.9215156208009954  0.7797606826102482  0.3654619189294158  1.0000
  H   H325      1.0  0.8955365853474934  0.777100770811198  0.44674822477501874  1.0000
  H   H326      1.0  0.9103599097100538  0.8121156952238532  0.4235745632939067  1.0000
  H   H327      1.0  0.9383810126144959  0.7772423297476161  0.43114694022784483  1.0000
  H   H328      1.0  0.8542766245182115  0.7671645757985416  0.36309288032771636  1.0000
  H   H329      1.0  0.8469109138957606  0.7701136396408365  0.40736112597414786  1.0000
  H   H330      1.0  0.8609208607905774  0.8060560283199184  0.38507914243090285  1.0000
  H   H331      1.0  0.9294041738179357  0.7234344517297135  0.39879922189046296  1.0000
  H   H332      1.0  0.8910422912403771  0.7192681395113758  0.37424709517311616  1.0000
  H   H333      1.0  0.8884725044806493  0.7230571687090351  0.4189146161093108  1.0000
  H   H334      1.0  0.9487909203783115  0.7725275009932396  0.3695277588133489  1.0000
  H   H335      1.0  0.9206004350291397  0.8073313166663485  0.36262876842057556  1.0000
  H   H336      1.0  0.913439820430245  0.7682969410739626  0.34118262952522843  1.0000
  N   N13       1.0  0.3291478104847987  0.3672295209209793  0.06069312852825882  1.0000
  C   C337      1.0  0.29268941074529614  0.36152307263755395  0.05303297267096197  1.0000
  C   C338      1.0  0.34887274109767896  0.36664022101458504  0.029098204187103294  1.0000
  C   C339      1.0  0.3419736153977526  0.34077027638918866  0.08331350509406112  1.0000
  C   C340      1.0  0.3329446074031323  0.4000678172076283  0.077326128946284  1.0000
  H   H337      1.0  0.27679824524349317  0.36209225798022965  0.07615948264014274  1.0000
  H   H338      1.0  0.28868167819912804  0.3370200390178252  0.04040688706712192  1.0000
  H   H339      1.0  0.2822137385875951  0.3810453972205866  0.03602341465905412  1.0000
  H   H340      1.0  0.37653618584165105  0.3708937240638723  0.03384242128887327  1.0000
  H   H341      1.0  0.34644535549964034  0.34226606615254723  0.0157656782497253  1.0000
  H   H342      1.0  0.3397104713507914  0.38637631032047487  0.011503756019499045  1.0000
  H   H343      1.0  0.33963422813181887  0.3155859154604957  0.07160675069435453  1.0000
  H   H344      1.0  0.3274076243909079  0.34059868374601926  0.1072731606195037  1.0000
  H   H345      1.0  0.3693950421597035  0.34434920534174074  0.08987840810369137  1.0000
  H   H346      1.0  0.3600372933170014  0.40506566941541616  0.08405823675508012  1.0000
  H   H347      1.0  0.3177788464876685  0.40171357315458495  0.10089307492925159  1.0000
  H   H348      1.0  0.3239885715532524  0.4206789036136916  0.06077099134638875  1.0000
  N   N14       1.0  0.905305551058191  0.45862716553947164  0.7046673377409061  1.0000
  C   C341      1.0  0.9087839607430479  0.46576815987403786  0.6684861608603926  1.0000
  C   C342      1.0  0.9313192155663972  0.4773192763446292  0.7238809599911489  1.0000
  C   C343      1.0  0.9102811197317043  0.42247043319710686  0.7103003665828925  1.0000
  C   C344      1.0  0.8708373458975572  0.46896118210478194  0.7160352454150338  1.0000
  H   H349      1.0  0.8892047562823189  0.45241722070056356  0.6534230398560728  1.0000
  H   H350      1.0  0.9341903243277797  0.45769121304206417  0.6587511866073261  1.0000
  H   H351      1.0  0.905561360429637  0.49284008727016154  0.6632254165527308  1.0000
  H   H352      1.0  0.9294113832170887  0.4723095619906447  0.7513319048723311  1.0000
  H   H353      1.0  0.9576537825371829  0.4701886065371172  0.7159980399917428  1.0000
  H   H354      1.0  0.9281424112707226  0.5047160051019234  0.7205426479732364  1.0000
  H   H355      1.0  0.9355316870622017  0.413576197237594  0.7009140282811052  1.0000
  H   H356      1.0  0.8902848630372235  0.4075612138050248  0.6972758587056846  1.0000
  H   H357      1.0  0.9092479258982948  0.4164464453358974  0.7375232751414342  1.0000
  H   H358      1.0  0.8680521443883749  0.46577646385056254  0.7435930565108334  1.0000
  H   H359      1.0  0.8505517755925952  0.45393508110608827  0.7036655761612135  1.0000
  H   H360      1.0  0.8655271660025653  0.4957077799096366  0.7106271121104457  1.0000
  N   N15       1.0  0.319948237106494  0.07938033982895165  0.8473841376684357  1.0000
  C   C345      1.0  0.35167883103007547  0.06676684781367359  0.8315236406697696  1.0000
  C   C346      1.0  0.2939481907389432  0.08599737742400682  0.8211576061895548  1.0000
  C   C347      1.0  0.32724748873233367  0.1106097337092915  0.8658804140180074  1.0000
  C   C348      1.0  0.3070002945273537  0.054205634243145395  0.8709630650708818  1.0000
  H   H361      1.0  0.3629727077689413  0.08564460907445559  0.8147187136091781  1.0000
  H   H362      1.0  0.34691569943595796  0.04389926681457346  0.8162413164902986  1.0000
  H   H363      1.0  0.3713805936764706  0.060050737689554934  0.8506669918573927  1.0000
  H   H364      1.0  0.2692710186112188  0.09449229114811897  0.8322184189118149  1.0000
  H   H365      1.0  0.3024563534728845  0.10570916082405701  0.8036825130851033  1.0000
  H   H366      1.0  0.28880119410763105  0.06326991087560341  0.8057637403341432  1.0000
  H   H367      1.0  0.3469109184740636  0.10644725567058577  0.885765724280911  1.0000
  H   H368      1.0  0.3038959538920007  0.1208656441414826  0.8782288304005996  1.0000
  H   H369      1.0  0.3370123869736217  0.13017554604528603  0.8487452198204881  1.0000
  H   H370      1.0  0.3262698999128404  0.04807914582799122  0.8907323037459002  1.0000
  H   H371      1.0  0.3011316906988796  0.03036106003857575  0.8577938732708481  1.0000
  H   H372      1.0  0.2832546702725776  0.06289566134354407  0.8836900813808412  1.0000
  N   N16       1.0  0.5056892550877915  0.20672851814453552  0.3247502794693302  1.0000
  C   C349      1.0  0.5422434959273296  0.21527724826489836  0.32758072742904953  1.0000
  C   C350      1.0  0.491222897899624  0.20178119351365487  0.35855377341175537  1.0000
  C   C351      1.0  0.5021771184301986  0.17563897204561663  0.30495152664113123  1.0000
  C   C352      1.0  0.4869984393444206  0.2341538452522327  0.30782718987690183  1.0000
  H   H373      1.0  0.5538129623250866  0.21885034026982453  0.3023812484935034  1.0000
  H   H374      1.0  0.5572143612091595  0.19521469443062456  0.340289452973939  1.0000
  H   H375      1.0  0.5459486249941593  0.23885327561324665  0.3419983926133602  1.0000
  H   H376      1.0  0.4635668747531984  0.19538838790573965  0.3570159321489522  1.0000
  H   H377      1.0  0.5044747402899087  0.18102768925582557  0.37192904362618723  1.0000
  H   H378      1.0  0.4934276530553335  0.22468327347169081  0.37431429150981316  1.0000
  H   H379      1.0  0.5168629451706642  0.15460666029803183  0.3162974559233155  1.0000
  H   H380      1.0  0.5115818289310714  0.17876139848058026  0.2789243228484878  1.0000
  H   H381      1.0  0.475042304336973  0.1678700183407391  0.3031471802453287  1.0000
  H   H382      1.0  0.4593581678822796  0.22837848217910883  0.3049792965951298  1.0000
  H   H383      1.0  0.49731247111104127  0.23866316296201262  0.28227878140781315  1.0000
  H   H384      1.0  0.4889516015528283  0.2579698861289539  0.32216663836566206  1.0000
  N   N17       1.0  0.31494143293017957  0.5780348896711902  0.16562770482400999  1.0000
  C   C353      1.0  0.29361562357346027  0.6032421653946772  0.1832230125876076  1.0000
  C   C354      1.0  0.34929141080336296  0.5917335302832009  0.15980062377484577  1.0000
  C   C355      1.0  0.2989124917501935  0.5693098088639621  0.13308509170296837  1.0000
  C   C356      1.0  0.31805748426902997  0.5477527549995058  0.18641819920312772  1.0000
  H   H385      1.0  0.2675028590872443  0.5937798797054227  0.1881399693246558  1.0000
  H   H386      1.0  0.29073202318796665  0.6265195787384757  0.16836339951379664  1.0000
  H   H387      1.0  0.304998018532743  0.6103429481872237  0.20790437432314765  1.0000
  H   H388      1.0  0.3660868167768217  0.5732789623397407  0.14663058353827535  1.0000
  H   H389      1.0  0.3479561630626139  0.6146424377112871  0.14418431204469337  1.0000
  H   H390      1.0  0.3620602468377126  0.5984541342515199  0.18394124530814304  1.0000
  H   H391      1.0  0.3147260818324241  0.5507503282667267  0.11890203763959759  1.0000
  H   H392      1.0  0.2953744624043301  0.5916004275657234  0.11690452507121488  1.0000
  H   H393      1.0  0.27342580324509136  0.557776269679024  0.13665897431472002  1.0000
  H   H394      1.0  0.3299813581474398  0.5531984953509391  0.2112783832348249  1.0000
  H   H395      1.0  0.3340346948691898  0.5283296289553521  0.17374379952429453  1.0000
  H   H396      1.0  0.29267312633754794  0.536467308812887  0.19105393983874405  1.0000
  N   N18       1.0  0.12538992043374053  0.32041477383728917  0.8705615358960768  1.0000
  C   C357      1.0  0.13705693079930348  0.35173733731792056  0.8552181275357567  1.0000
  C   C358      1.0  0.15533323306429958  0.29936245049476934  0.8794165204150289  1.0000
  C   C359      1.0  0.10353337733772805  0.302340711945469  0.8463499352418967  1.0000
  C   C360      1.0  0.10554523231524726  0.32825565082431757  0.9011769872832327  1.0000
  H   H397      1.0  0.15184317691593607  0.34689980108314705  0.8318514709442087  1.0000
  H   H398      1.0  0.1538319371996557  0.36595424765087325  0.8726680660249714  1.0000
  H   H399      1.0  0.11519605461444771  0.36851446615308686  0.8486772710372461  1.0000
  H   H400      1.0  0.1476104543182486  0.2758557223994078  0.8918076856098851  1.0000
  H   H401      1.0  0.17054072075006665  0.29238988078333533  0.8568159954222623  1.0000
  H   H402      1.0  0.1729142609086174  0.31251854014036545  0.8969986956886447  1.0000
  H   H403      1.0  0.08067970645621436  0.3175798081302994  0.8392253061591873  1.0000
  H   H404      1.0  0.09426499590297843  0.278540930795821  0.8570774677794387  1.0000
  H   H405      1.0  0.11770242728638203  0.2961441257892301  0.8228754478497619  1.0000
  H   H406      1.0  0.096231570875144  0.30527434780752316  0.9134918961005831  1.0000
  H   H407      1.0  0.08278702312400577  0.34419876811375105  0.895399389856093  1.0000
  H   H408      1.0  0.12121939666128112  0.34197954493437954  0.9199910309892728  1.0000
  N   N19       1.0  0.2427927831136648  0.4744697865696856  0.34167690014630453  1.0000
  C   C361      1.0  0.268980695241096  0.4949350834874936  0.35864453444647143  1.0000
  C   C362      1.0  0.22873690160343746  0.4502918798802756  0.36568174328099506  1.0000
  C   C363      1.0  0.25850636287335355  0.45625655921440483  0.3132291882548955  1.0000
  C   C364      1.0  0.21504129028942526  0.49634263612669155  0.3289617311984515  1.0000
  H   H409      1.0  0.27964344526948187  0.5138618939630835  0.34134805841032234  1.0000
  H   H410      1.0  0.2908885327816298  0.4792883795571571  0.36747751610483936  1.0000
  H   H411      1.0  0.2582957685019498  0.5085184912066227  0.3807332963113069  1.0000
  H   H412      1.0  0.21625053950998369  0.4629948647610722  0.3873752926997877  1.0000
  H   H413      1.0  0.20935974540277644  0.43401704061896385  0.3534859269579097  1.0000
  H   H414      1.0  0.24910024811011497  0.43354993463482033  0.37595075858297866  1.0000
  H   H415      1.0  0.2797205148178616  0.4396416883973131  0.3217976494085596  1.0000
  H   H416      1.0  0.2693810786903262  0.47371800099513517  0.29471781358665067  1.0000
  H   H417      1.0  0.23956192936022583  0.44057895357518956  0.29964198672131476  1.0000
  H   H418      1.0  0.19505329285627263  0.48162361203580273  0.31571173071648595  1.0000
  H   H419      1.0  0.22494749859290716  0.5148851758004575  0.31079954055322817  1.0000
  H   H420      1.0  0.2024650252676477  0.5104656601978078  0.34973261610695494  1.0000
  N   N20       1.0  0.6239202174075756  0.9529224810965577  0.8860294109440441  1.0000
  C   C365      1.0  0.6013679130521553  0.9818326268349871  0.8787550666988841  1.0000
  C   C366      1.0  0.6471755201031909  0.9469252322548285  0.8574296179104827  1.0000
  C   C367      1.0  0.6029319635115347  0.9230716691821268  0.8913063690071374  1.0000
  C   C368      1.0  0.6441750052352171  0.9597641969068387  0.9166725788279168  1.0000
  H   H421      1.0  0.583299301211068  0.986845441824632  0.8997870158864251  1.0000
  H   H422      1.0  0.5854516860603186  0.9773124141615992  0.8559542704452721  1.0000
  H   H423      1.0  0.616420102870159  0.004866912219678721  0.8745954511963523  1.0000
  H   H424      1.0  0.664664722285085  0.9253549442362159  0.8622050782229106  1.0000
  H   H425      1.0  0.6327360982425152  0.9413678579868641  0.8339649372795618  1.0000
  H   H426      1.0  0.6632426120902144  0.9690946590194836  0.8525962823418517  1.0000
  H   H427      1.0  0.6190522260129335  0.9009655319844647  0.8972783994587226  1.0000
  H   H428      1.0  0.5874707013566803  0.9168876140986965  0.8686240321421165  1.0000
  H   H429      1.0  0.5848354815274236  0.92685718714895  0.9124630474798293  1.0000
  H   H430      1.0  0.6613349627918904  0.9383244418082709  0.9229236319534718  1.0000
  H   H431      1.0  0.6273595297798246  0.964279669262369  0.9387622125956757  1.0000
  H   H432      1.0  0.6604247084531548  0.9821567727679777  0.9135201863177077  1.0000
  N   N21       1.0  0.48684617929133656  0.8199914753694487  0.1113532745165918  1.0000
  C   C369      1.0  0.5031544058351577  0.81868545235977  0.07793381729445978  1.0000
  C   C370      1.0  0.4852462969217178  0.7860031694338699  0.12536433868523797  1.0000
  C   C371      1.0  0.45183901039465857  0.8338831805280129  0.1080801637746376  1.0000
  C   C372      1.0  0.5071322598531113  0.8413958461736579  0.13407986475034603  1.0000
  H   H433      1.0  0.5295222888617169  0.8081109625605691  0.0792781359736248  1.0000
  H   H434      1.0  0.5051161150811789  0.8440318409853909  0.06692289631459558  1.0000
  H   H435      1.0  0.4881844846891196  0.8033809978481912  0.05982060746916207  1.0000
  H   H436      1.0  0.4702067833417398  0.7691117312150204  0.10883597961865109  1.0000
  H   H437      1.0  0.5112274585400884  0.7748906052331258  0.1285641958000509  1.0000
  H   H438      1.0  0.4729444897461627  0.7862059711624088  0.15053751155840048  1.0000
  H   H439      1.0  0.435786214053007  0.8183443242142646  0.09113229756160515  1.0000
  H   H440      1.0  0.4520149347753852  0.8593713779489304  0.09726513576901824  1.0000
  H   H441      1.0  0.4388121540816692  0.8356197766997847  0.1328165195366397  1.0000
  H   H442      1.0  0.49562816184036007  0.8429222256409932  0.15952344018929868  1.0000
  H   H443      1.0  0.5088398303025019  0.8672333083069658  0.12435049464705146  1.0000
  H   H444      1.0  0.5337183043584026  0.831748083635608  0.13712263621977427  1.0000
  N   N22       1.0  0.32882494478142266  0.29134414885785476  0.2650925681896803  1.0000
  C   C373      1.0  0.30631963546883345  0.28158619439958793  0.29298568827557925  1.0000
  C   C374      1.0  0.3459060129730671  0.2613222451227544  0.25095654020554004  1.0000
  C   C375      1.0  0.35491613021063334  0.314695513565971  0.2777593044605639  1.0000
  C   C376      1.0  0.30816878176256346  0.3077968039554275  0.23868311547602364  1.0000
  H   H445      1.0  0.286171379043889  0.26411882231641004  0.28427471364443296  1.0000
  H   H446      1.0  0.29303745162767036  0.30355639156602127  0.3043722483106271  1.0000
  H   H447      1.0  0.3209618230636235  0.268847640681407  0.3133109722557218  1.0000
  H   H448      1.0  0.36288673523349907  0.2677189558632858  0.22965883063244685  1.0000
  H   H449      1.0  0.3619702360682803  0.24840384151445072  0.2701324207739579  1.0000
  H   H450      1.0  0.3270471389586098  0.24295622536132427  0.24135532707036017  1.0000
  H   H451      1.0  0.37243272479583495  0.32245675410909763  0.25738509917696323  1.0000
  H   H452      1.0  0.370885248634554  0.3031169640338217  0.29781279659304066  1.0000
  H   H453      1.0  0.34303352577290425  0.33780739251750364  0.28829059379668154  1.0000
  H   H454      1.0  0.3243125564660206  0.31558823381715007  0.21728898588309403  1.0000
  H   H455      1.0  0.29491899401154154  0.3305402313104486  0.24847353492434945  1.0000
  H   H456      1.0  0.28818933254990375  0.29090629602483226  0.22855160671776975  1.0000
  N   N23       1.0  0.833659742406579  0.26395447166188174  0.36769144102434875  1.0000
  C   C377      1.0  0.8064604635088379  0.2890407542597906  0.3742310147457841  1.0000
  C   C378      1.0  0.836511557622165  0.2580738771029019  0.3311306089234507  1.0000
  C   C379      1.0  0.8250182390702884  0.23236535451313833  0.384425351044372  1.0000
  C   C380      1.0  0.8665482139945858  0.27626036189916403  0.38093648958850523  1.0000
  H   H457      1.0  0.803658380922917  0.294267706108937  0.40160210077060515  1.0000
  H   H458      1.0  0.7812186213804739  0.28040912097201026  0.3646784037747732  1.0000
  H   H459      1.0  0.8118658572050801  0.3131828215036706  0.3617579995020385  1.0000
  H   H460      1.0  0.8557610557986571  0.23819779645711867  0.32522784925621007  1.0000
  H   H461      1.0  0.811716758613135  0.24994735187639527  0.3203130113886468  1.0000
  H   H462      1.0  0.8439363731412566  0.2810899298625502  0.31768136247316925  1.0000
  H   H463      1.0  0.8234886665484181  0.2356123662307837  0.4121606802702766  1.0000
  H   H464      1.0  0.8446025713817539  0.2125852658718619  0.3793702797580042  1.0000
  H   H465      1.0  0.7999570943058723  0.2227707860727621  0.37542310479997054  1.0000
  H   H466      1.0  0.8874784057609318  0.2575985368987536  0.37700571798927707  1.0000
  H   H467      1.0  0.8650536503957194  0.28151349894667266  0.4083662878331588  1.0000
  H   H468      1.0  0.8741243769942809  0.29983452252202053  0.3685670772824533  1.0000
  N   N24       1.0  0.747117711050098  0.3566132876445886  0.582786637134834  1.0000
  C   C381      1.0  0.7453446932958147  0.3275329261159029  0.6053166539691003  1.0000
  C   C382      1.0  0.7423346123196064  0.3875630688910419  0.6026791394212085  1.0000
  C   C383      1.0  0.719997899839171  0.35434642021350116  0.5569434102612353  1.0000
  C   C384      1.0  0.7808163013664458  0.35703944286343714  0.566230343620303  1.0000
  H   H469      1.0  0.7655412516760156  0.3284752162447351  0.6251031338212728  1.0000
  H   H470      1.0  0.7489506889331193  0.3036930689106073  0.5912394976702832  1.0000
  H   H471      1.0  0.7201795301175434  0.32653886100520774  0.6182600981787229  1.0000
  H   H472      1.0  0.7433839528708436  0.41004186918137303  0.5864942809028514  1.0000
  H   H473      1.0  0.7171947692339468  0.3878916637360333  0.6157660563490618  1.0000
  H   H474      1.0  0.7625870255026561  0.3900745400706399  0.6222232237051397  1.0000
  H   H475      1.0  0.720880990506212  0.3757806663550553  0.5393141466840236  1.0000
  H   H476      1.0  0.6941338606527732  0.35404807562748764  0.5685213156940042  1.0000
  H   H477      1.0  0.7230112048437339  0.33132146300056586  0.5413601876705987  1.0000
  H   H478      1.0  0.7831701290987191  0.3788396427006897  0.5492389427240234  1.0000
  H   H479      1.0  0.7851320447306079  0.33424308015363685  0.5505974996980924  1.0000
  H   H480      1.0  0.8019245698412089  0.3583722414373419  0.5849108214162206  1.0000
  N   N25       1.0  0.6361806936858425  0.24195871120859067  0.14770794536093823  1.0000
  C   C385      1.0  0.598714456340592  0.23895520145376786  0.15026802550422172  1.0000
  C   C386      1.0  0.6459049283493316  0.2428339297977154  0.11193000441795792  1.0000
  C   C387      1.0  0.6528980053535793  0.212984029215443  0.16396711119126922  1.0000
  C   C388      1.0  0.6472068007411008  0.27301275689744436  0.1646360189739825  1.0000
  H   H481      1.0  0.5894691329784972  0.2156443576292551  0.13808709261711782  1.0000
  H   H482      1.0  0.5852160606058541  0.260447606566818  0.13837680563059582  1.0000
  H   H483      1.0  0.5906037078983949  0.23829876817030596  0.1768802999591894  1.0000
  H   H484      1.0  0.6382855459250393  0.2196588150940021  0.09841474170208407  1.0000
  H   H485      1.0  0.633892403504742  0.26443365713160183  0.09881300909245071  1.0000
  H   H486      1.0  0.6739362263167367  0.24505088932553334  0.10918941583627197  1.0000
  H   H487      1.0  0.6461444413630264  0.2115854632013305  0.19102092432887566  1.0000
  H   H488      1.0  0.681218018242722  0.21449248080771235  0.16251248246276304  1.0000
  H   H489      1.0  0.6452272651616223  0.18907885893384693  0.15189932846448304  1.0000
  H   H490      1.0  0.6754416354890076  0.2759911326247831  0.16345031422695439  1.0000
  H   H491      1.0  0.6399946147152038  0.2732554796179585  0.19166173306047118  1.0000
  H   H492      1.0  0.6352667826663329  0.2954790651705454  0.15302901906866131  1.0000
  N   N26       1.0  0.15176858896645484  0.18404355501326428  0.3160588180774653  1.0000
  C   C389      1.0  0.15292165367224664  0.22027615826999886  0.309500951445475  1.0000
  C   C390      1.0  0.16145791191418168  0.17770086789383066  0.35140749124006426  1.0000
  C   C391      1.0  0.17583216941673263  0.16628579836745672  0.29347090359758654  1.0000
  C   C392      1.0  0.11678013436538537  0.1719043624366456  0.30981834023468546  1.0000
  H   H493      1.0  0.14552136488173883  0.22608693424376625  0.28316072305245843  1.0000
  H   H494      1.0  0.1789951099418723  0.23028922620969802  0.313766946794094  1.0000
  H   H495      1.0  0.1353377382783485  0.23442971774462484  0.32635916438653406  1.0000
  H   H496      1.0  0.1875808393869356  0.18694718631344093  0.3571084032806662  1.0000
  H   H497      1.0  0.14363939054795338  0.1904467800042144  0.3691380733174415  1.0000
  H   H498      1.0  0.16125795531460252  0.15062703898363122  0.357257940540992  1.0000
  H   H499      1.0  0.17561882906179882  0.1388947630720232  0.29772997608057744  1.0000
  H   H500      1.0  0.2025401085702896  0.1746540209375444  0.29757056157817646  1.0000
  H   H501      1.0  0.16947864712461747  0.1707947145313666  0.266607330908991  1.0000
  H   H502      1.0  0.10848065902164072  0.17639029710481155  0.28344827987418075  1.0000
  H   H503      1.0  0.09795199375094477  0.18485862033903938  0.3262656521982865  1.0000
  H   H504      1.0  0.11475043240986338  0.1447415110799625  0.31481060206940514  1.0000
  N   N27       1.0  0.02559675560761021  0.8609669670384605  0.6231735301004998  1.0000
  C   C393      1.0  0.008470923785729001  0.828293681019169  0.6220065484697238  1.0000
  C   C394      1.0  0.05725204579027898  0.8581709133207663  0.643416522979765  1.0000
  C   C395      1.0  0.002549279920021519  0.8860165833837135  0.6387200896027304  1.0000
  C   C396      1.0  0.03397763998694869  0.871423005303093  0.5886856515483676  1.0000
  H   H505      1.0  0.9837675153460803  0.8297876268917795  0.6080643624748537  1.0000
  H   H506      1.0  0.0026349546821544667  0.8192546042303196  0.6477152068508084  1.0000
  H   H507      1.0  0.024695989167242915  0.8089106318881764  0.6096132399040599  1.0000
  H   H508      1.0  0.07074763931186157  0.8824457201692767  0.6452682256497086  1.0000
  H   H509      1.0  0.05170768034414186  0.8503967724410193  0.6696330907584215  1.0000
  H   H510      1.0  0.0754237806237037  0.8395091161165291  0.632617256537419  1.0000
  H   H511      1.0  0.978363365600994  0.8889880207298512  0.6241333460151546  1.0000
  H   H512      1.0  0.01473264400902563  0.9109068121183943  0.6406576854396037  1.0000
  H   H513      1.0  0.9954840166607339  0.8785217224125615  0.6645653628920094  1.0000
  H   H514      1.0  0.01053383913634165  0.8735823882396296  0.5728000499307946  1.0000
  H   H515      1.0  0.05146516805649015  0.8531421692725866  0.5762058894780523  1.0000
  H   H516      1.0  0.04671578792069164  0.8961127473647194  0.5886856371854221  1.0000
  N   N28       1.0  0.5852477076374432  0.7883771014368088  0.3028090545389048  1.0000
  C   C397      1.0  0.6128150912878501  0.7643054225816134  0.29427882143296236  1.0000
  C   C398      1.0  0.5922300263834411  0.8208290460555149  0.28703754811272275  1.0000
  C   C399      1.0  0.5835960620990873  0.7927721358854967  0.33962347213523925  1.0000
  C   C400      1.0  0.5522158381672893  0.7756633403942541  0.2903134718360764  1.0000
  H   H517      1.0  0.607434379114892  0.7391104889762165  0.30438738865494647  1.0000
  H   H518      1.0  0.6378805402252246  0.7722271405657815  0.3048194193375422  1.0000
  H   H519      1.0  0.6157552760989828  0.7615599739368881  0.2666174384225738  1.0000
  H   H520      1.0  0.571824921732334  0.8394684039799961  0.2929461392536744  1.0000
  H   H521      1.0  0.6167441874030083  0.8315462042599445  0.29612045319341307  1.0000
  H   H522      1.0  0.5935462724895104  0.8185888475136116  0.2592153099973043  1.0000
  H   H523      1.0  0.5782844809393277  0.7687530800392405  0.3523707859239852  1.0000
  H   H524      1.0  0.5627483751865315  0.8105258554175984  0.34683453099553463  1.0000
  H   H525      1.0  0.607874263686895  0.8027333950405059  0.3500194376472474  1.0000
  H   H526      1.0  0.5309484233931865  0.7936691670402442  0.2955064264953712  1.0000
  H   H527      1.0  0.545367062581166  0.7518212367149466  0.3026348712573635  1.0000
  H   H528      1.0  0.5527128472105897  0.7712024749320807  0.26272006591360064  1.0000
  N   N29       1.0  0.7907738969979253  0.19645079854816946  0.804358184339119  1.0000
  C   C401      1.0  0.7871671011366987  0.22195791936242606  0.8311398916711279  1.0000
  C   C402      1.0  0.7600556912517248  0.17532271086532228  0.8035612172194083  1.0000
  C   C403      1.0  0.8212302816139342  0.1754036260317589  0.8112076279431306  1.0000
  C   C404      1.0  0.7946128302696117  0.21310443395543482  0.771581126779702  1.0000
  H   H529      1.0  0.8106824104911848  0.23703401168640326  0.8339240674307196  1.0000
  H   H530      1.0  0.7819567812904505  0.21033933916996256  0.8559171196036105  1.0000
  H   H531      1.0  0.7657129849790604  0.23951850267506516  0.8256759927817935  1.0000
  H   H532      1.0  0.7625026247292156  0.15479919159267802  0.7847695699951533  1.0000
  H   H533      1.0  0.7553048818931068  0.16378562480705441  0.8284704631071274  1.0000
  H   H534      1.0  0.7368408622040586  0.19007996734460647  0.796742234200165  1.0000
  H   H535      1.0  0.8246385605379265  0.15568861369466994  0.7916685237252467  1.0000
  H   H536      1.0  0.8190836853619222  0.1626736229490581  0.8358517600612446  1.0000
  H   H537      1.0  0.8449193107144521  0.19046661984128802  0.8120554719307661  1.0000
  H   H538      1.0  0.817400693995448  0.22944685919446306  0.7712960612649282  1.0000
  H   H539      1.0  0.7719319013652977  0.2291355004245553  0.7656785391896622  1.0000
  H   H540      1.0  0.7972577876620476  0.19464632126263692  0.7507385172508664  1.0000
  N   N30       1.0  0.286176499901955  0.09293362899145596  0.6225510573268406  1.0000
  C   C405      1.0  0.27871215938339466  0.10539245724864732  0.5884078177332481  1.0000
  C   C406      1.0  0.3077133603939722  0.11721808870203398  0.6407302624988934  1.0000
  C   C407      1.0  0.30447982839936283  0.06053378385457253  0.6203209033398587  1.0000
  C   C408      1.0  0.2537331091953886  0.08860179723311545  0.6408010886899812  1.0000
  H   H541      1.0  0.3025333408517575  0.11045197321745026  0.5742546896056854  1.0000
  H   H542      1.0  0.26364209080863443  0.1290747048757208  0.5893833962838311  1.0000
  H   H543      1.0  0.26347833066437615  0.08721048366721984  0.5735603913565644  1.0000
  H   H544      1.0  0.31520352546476743  0.10787617713738706  0.6659579673876973  1.0000
  H   H545      1.0  0.33162989732874704  0.12244284689157947  0.6268510163610269  1.0000
  H   H546      1.0  0.2940037464280387  0.1414007463372  0.6445370722614558  1.0000
  H   H547      1.0  0.3105873707816068  0.05060210195442072  0.6457831057982775  1.0000
  H   H548      1.0  0.3290051474204169  0.06282299139405634  0.6065570212074219  1.0000
  H   H549      1.0  0.28880708088121293  0.04141701785402385  0.6072243505732412  1.0000
  H   H550      1.0  0.258217532538849  0.07746131815554302  0.6659435749820426  1.0000
  H   H551      1.0  0.2361793590211038  0.07167201658443001  0.6270062152977317  1.0000
  H   H552      1.0  0.2400996445486501  0.11292402588041361  0.6445707287050573  1.0000
  N   N31       1.0  0.829447861918803  0.6965745787357639  0.17094026107060947  1.0000
  C   C409      1.0  0.8234396728709085  0.701368075263892  0.13459602973469328  1.0000
  C   C410      1.0  0.8614042145432639  0.6772012430855539  0.17603119114601143  1.0000
  C   C411      1.0  0.8005271824906245  0.6782591283516459  0.18546289016478795  1.0000
  C   C412      1.0  0.8324022510879503  0.7294410940633755  0.18771902869726592  1.0000
  H   H553      1.0  0.7989222905133939  0.7148112057394721  0.129696087954721  1.0000
  H   H554      1.0  0.8228155989760628  0.6771270473167335  0.12081366999918029  1.0000
  H   H555      1.0  0.844018731060139  0.7163116580970245  0.1231302360406628  1.0000
  H   H556      1.0  0.8672100384502116  0.6739132173312915  0.2032392514363443  1.0000
  H   H557      1.0  0.8598767049632409  0.6519546294791163  0.16440327795017826  1.0000
  H   H558      1.0  0.8836011011353236  0.6898112564442332  0.1645416495296046  1.0000
  H   H559      1.0  0.8044615862461795  0.6738207790250648  0.21280106538698407  1.0000
  H   H560      1.0  0.7973868192601254  0.653458886257219  0.17319495192246373  1.0000
  H   H561      1.0  0.776081293807146  0.6924176722392884  0.18265407809155196  1.0000
  H   H562      1.0  0.8349969235684076  0.7267090414897288  0.21543148409561322  1.0000
  H   H563      1.0  0.8095239468087355  0.745452899774991  0.18296440359932367  1.0000
  H   H564      1.0  0.855168434880706  0.7431743520972449  0.17874548973123397  1.0000
  N   N32       1.0  0.04757998363139038  0.29836617133312116  0.47245146349450834  1.0000
  C   C413      1.0  0.03302729923215364  0.30982106703464035  0.5047857333828265  1.0000
  C   C414      1.0  0.03451561267587766  0.3197579175836529  0.44503777825715596  1.0000
  C   C415      1.0  0.03753415511031655  0.2634260304334897  0.46609374523571007  1.0000
  C   C416      1.0  0.08524225856077794  0.3004911423552111  0.47386875291595487  1.0000
  H   H565      1.0  0.0045779468554423275  0.3086780704339985  0.5044627927970916  1.0000
  H   H566      1.0  0.03986769602881601  0.33614118955598543  0.510392264616234  1.0000
  H   H567      1.0  0.042259438818523565  0.2940684470074892  0.5259410128089756  1.0000
  H   H568      1.0  0.045159977168908405  0.31192375983524856  0.42027948545248034  1.0000
  H   H569      1.0  0.006243686355785316  0.31850749372273707  0.4429370367477523  1.0000
  H   H570      1.0  0.0410480065027401  0.3463911574544635  0.4492809761946104  1.0000
  H   H571      1.0  0.0441409413280367  0.25531191205026976  0.4401624251280562  1.0000
  H   H572      1.0  0.009536430140018703  0.2601366440130053  0.4689981831387894  1.0000
  H   H573      1.0  0.05049495635674539  0.24588587654505295  0.4837220023803525  1.0000
  H   H574      1.0  0.09697807566688654  0.2925937780744791  0.4496684129538121  1.0000
  H   H575      1.0  0.09625500655206776  0.2839203099301327  0.4935965013923309  1.0000
  H   H576      1.0  0.09374234330755726  0.3263590434525781  0.4792736761643017  1.0000
  N   N33       1.0  0.48253023763431613  0.6638000398472663  0.8472376047399691  1.0000
  C   C417      1.0  0.501736542403704  0.685613580836171  0.870482353474622  1.0000
  C   C418      1.0  0.4970313617885863  0.6663955932198274  0.8131535079024116  1.0000
  C   C419      1.0  0.4462072729198693  0.6743212236968334  0.8465780196384637  1.0000
  C   C420      1.0  0.485112153882828  0.6288572438634542  0.8586745418787576  1.0000
  H   H577      1.0  0.490661995299827  0.6855932775583031  0.8961874511985806  1.0000
  H   H578      1.0  0.5013486668480707  0.7118758700323151  0.8617333456076268  1.0000
  H   H579      1.0  0.5290171381748566  0.6777486083013579  0.8724340703402991  1.0000
  H   H580      1.0  0.48347722009387256  0.6499175127549452  0.7950878816109062  1.0000
  H   H581      1.0  0.49495680508514245  0.6923223972725352  0.8034222289863775  1.0000
  H   H582      1.0  0.5245332473884731  0.6591142575060474  0.8126926020797142  1.0000
  H   H583      1.0  0.4431711855402873  0.7003339603057938  0.8375592611811518  1.0000
  H   H584      1.0  0.43450567315906724  0.6731075593924806  0.8719433466195642  1.0000
  H   H585      1.0  0.4309000931957695  0.658216885977101  0.829455356239545  1.0000
  H   H586      1.0  0.47013462429215286  0.6119574913126031  0.8420532032986434  1.0000
  H   H587      1.0  0.47501914727378736  0.6261128842744585  0.8845787216053026  1.0000
  H   H588      1.0  0.5120369798276375  0.6196333403137084  0.8585399215088046  1.0000
  N   N34       1.0  0.14913455063611947  0.7062167239789645  0.2859271825405846  1.0000
  C   C421      1.0  0.17551656794986426  0.7178957425910258  0.26253896306656344  1.0000
  C   C422      1.0  0.1317393959119666  0.7353052333187907  0.30156491966262966  1.0000
  C   C423      1.0  0.16560586802320665  0.6857118566632648  0.31226730246906076  1.0000
  C   C424      1.0  0.12391101297554408  0.6860746211406468  0.26725567717547005  1.0000
  H   H589      1.0  0.19461084144653906  0.7334882102708777  0.27593802015001073  1.0000
  H   H590      1.0  0.16420290974188378  0.7333099445363949  0.24208581437599597  1.0000
  H   H591      1.0  0.18966548791758053  0.696685137933181  0.25062025163930013  1.0000
  H   H592      1.0  0.14997570253360504  0.7506163124617582  0.3165119422720437  1.0000
  H   H593      1.0  0.12010472189444155  0.7519876857637985  0.282257107416313  1.0000
  H   H594      1.0  0.1109713943781292  0.7275738561226195  0.31873417986289354  1.0000
  H   H595      1.0  0.1845747313153563  0.700512024663974  0.32687489866375563  1.0000
  H   H596      1.0  0.17970630444895064  0.6639838329700672  0.30118164749384113  1.0000
  H   H597      1.0  0.14652891310639915  0.6760839422862515  0.3302911960721485  1.0000
  H   H598      1.0  0.11113674045495237  0.7010491505494024  0.24722859180824208  1.0000
  H   H599      1.0  0.10354377833421902  0.6768389585631686  0.2841404214060438  1.0000
  H   H600      1.0  0.13629815187777283  0.6640421728976079  0.2549804043077144  1.0000
  N   N35       1.0  0.8689693148583726  0.08317250423628746  0.47384439503471576  1.0000
  C   C425      1.0  0.8864677991282878  0.09527648460895002  0.5044639886488262  1.0000
  C   C426      1.0  0.8577994180973364  0.048433817968656534  0.478697014453287  1.0000
  C   C427      1.0  0.8927918966382516  0.08439044689924592  0.44524533317586207  1.0000
  C   C428      1.0  0.83887767523096  0.10467777086607297  0.466777694465957  1.0000
  H   H601      1.0  0.8692806584341375  0.09476812584982229  0.526637085907551  1.0000
  H   H602      1.0  0.8951603454934766  0.12148886684662366  0.5013720716307697  1.0000
  H   H603      1.0  0.9094129114620395  0.07967630801520517  0.5103460376813646  1.0000
  H   H604      1.0  0.8798855156515638  0.03123502117811805  0.4831880939430225  1.0000
  H   H605      1.0  0.8402104028181469  0.04629240777811905  0.5004225293044661  1.0000
  H   H606      1.0  0.8440527074813619  0.038826346198229666  0.4561273404523396  1.0000
  H   H607      1.0  0.9153656216311175  0.06765998945114136  0.44905070418611265  1.0000
  H   H608      1.0  0.9025011524133036  0.11007326057811344  0.44141311602317235  1.0000
  H   H609      1.0  0.8800200861347213  0.07653153439325021  0.4215509298846079  1.0000
  H   H610      1.0  0.8463822532234012  0.13112201939960072  0.4631508102871272  1.0000
  H   H611      1.0  0.8201473396353135  0.10418929331266241  0.48769396488245953  1.0000
  H   H612      1.0  0.8254302825940422  0.09661321226150207  0.44344251661133677  1.0000
  N   N36       1.0  0.05155809461814198  0.5157079329191426  0.9447997699781937  1.0000
  C   C429      1.0  0.08625775469361915  0.5026932959379258  0.9521086516479156  1.0000
  C   C430      1.0  0.04784370599421096  0.5498150408396667  0.9587616905477482  1.0000
  C   C431      1.0  0.025985106340496555  0.4937845439746678  0.9602504411716398  1.0000
  C   C432      1.0  0.04613158297999954  0.5165149685332912  0.9080486678907297  1.0000
  H   H613      1.0  0.08969810428615223  0.4769814407504796  0.942052565778141  1.0000
  H   H614      1.0  0.09135103456661028  0.5017109677696281  0.9796004860445897  1.0000
  H   H615      1.0  0.10627476436852643  0.5183043437702781  0.9404617578375145  1.0000
  H   H616      1.0  0.021895121227445413  0.560360232236385  0.9535955878271181  1.0000
  H   H617      1.0  0.05150183003332832  0.5500993022093967  0.9864802668719637  1.0000
  H   H618      1.0  0.06664669171943483  0.5670728538567283  0.9475827390013835  1.0000
  H   H619      1.0  0.0272770390836119  0.46803921113918634  0.9496625472377774  1.0000
  H   H620      1.0  0.9995831575341464  0.5033555344717295  0.9558418943667613  1.0000
  H   H621      1.0  0.029665135318936997  0.49190789765113613  0.9878782147683419  1.0000
  H   H622      1.0  0.04821802930591069  0.491156321543071  0.8967994327778336  1.0000
  H   H623      1.0  0.06514976566513632  0.5325338514915805  0.8954591513869994  1.0000
  H   H624      1.0  0.02027178106923455  0.5263771561925468  0.9015614662097011  1.0000
  N   N37       1.0  0.44316174290666893  0.2515196254366836  0.7227402643341345  1.0000
  C   C433      1.0  0.42802295700836507  0.2358365846350479  0.7526274739944238  1.0000
  C   C434      1.0  0.48075728531888634  0.24762011616613633  0.7239239959518875  1.0000
  C   C435      1.0  0.4341705860457544  0.28741563192338204  0.7223519793490251  1.0000
  C   C436      1.0  0.4297466225805827  0.2353217969347598  0.6920440874793033  1.0000
  H   H625      1.0  0.43762581590257593  0.24742798196038798  0.7762893498255071  1.0000
  H   H626      1.0  0.4340415175659058  0.20864477401172493  0.7535871789167382  1.0000
  H   H627      1.0  0.3996617863884266  0.23835101425684735  0.7525837382445891  1.0000
  H   H628      1.0  0.49173150809455335  0.259930244456366  0.7466549316798334  1.0000
  H   H629      1.0  0.48870757576370943  0.2209059735230157  0.724297538767183  1.0000
  H   H630      1.0  0.4929779272869298  0.2594621528063505  0.7018298921307448  1.0000
  H   H631      1.0  0.4457386474095475  0.3001397631678778  0.7004327284877186  1.0000
  H   H632      1.0  0.44381248062104217  0.3002708695889104  0.7452917164629563  1.0000
  H   H633      1.0  0.40606680161615716  0.29156441930801225  0.7207825325037408  1.0000
  H   H634      1.0  0.43661562717293795  0.2083331026635612  0.6910984345636877  1.0000
  H   H635      1.0  0.4397999207052373  0.24726294368651927  0.668971017863517  1.0000
  H   H636      1.0  0.4013961579303878  0.23730789954262335  0.6907976081735633  1.0000
  N   N38       1.0  0.8254259973486334  0.5800511304556685  0.47355183289870467  1.0000
  C   C437      1.0  0.8229464277718421  0.5859654442470171  0.4371070865162728  1.0000
  C   C438      1.0  0.8254671924276227  0.5437338727193506  0.47983875232028905  1.0000
  C   C439      1.0  0.7958653825454773  0.5960961089159621  0.49037892392865934  1.0000
  C   C440      1.0  0.8574467591852317  0.5945777736449424  0.48654765720532067  1.0000
  H   H637      1.0  0.822579101339156  0.6130102844172198  0.431473600648518  1.0000
  H   H638      1.0  0.7991053339868067  0.5753886211579974  0.4263272837750892  1.0000
  H   H639      1.0  0.8450713137723208  0.574751191445504  0.42355473754594214  1.0000
  H   H640      1.0  0.8269193926235762  0.5381562626455566  0.5071327009326372  1.0000
  H   H641      1.0  0.8019873250664274  0.5318777779842253  0.4696050371729947  1.0000
  H   H642      1.0  0.8476998580967543  0.5310309897780794  0.467608671687179  1.0000
  H   H643      1.0  0.795247115888243  0.6235462744073876  0.48584326230512775  1.0000
  H   H644      1.0  0.7967195720000121  0.5922262258909738  0.5180021843738125  1.0000
  H   H645      1.0  0.7712905959423316  0.5859250990426086  0.4807787039327881  1.0000
  H   H646      1.0  0.8582588964169914  0.6219579155442299  0.4818672461385167  1.0000
  H   H647      1.0  0.8602108593052891  0.5906980906007583  0.5140584455361888  1.0000
  H   H648      1.0  0.880200086198805  0.5830956427083444  0.4741160187867575  1.0000
  N   N39       1.0  0.3112909006426062  0.31234032492793773  0.5595163842249435  1.0000
  C   C441      1.0  0.3134036565104123  0.33445818039306346  0.5892648287476682  1.0000
  C   C442      1.0  0.27736164850945483  0.29649650692805307  0.5584133970472792  1.0000
  C   C443      1.0  0.33831083400939926  0.2863797819215118  0.5617302203594596  1.0000
  C   C444      1.0  0.3161565997524528  0.3319707508213025  0.5286511312971277  1.0000
  H   H649      1.0  0.30965547278753974  0.3201617956276049  0.6127636578130197  1.0000
  H   H650      1.0  0.29364581376979865  0.35459798401956444  0.588537302344946  1.0000
  H   H651      1.0  0.3388951016172052  0.34638842147166027  0.5913061733567359  1.0000
  H   H652      1.0  0.27395791815089177  0.281694946077103  0.5349644833880558  1.0000
  H   H653      1.0  0.2737532185586695  0.2792234372414911  0.5798896694010247  1.0000
  H   H654      1.0  0.25630474458076674  0.3153378478600019  0.5591062599778347  1.0000
  H   H655      1.0  0.3389573528677292  0.2704772351856206  0.5387567583959718  1.0000
  H   H656      1.0  0.33431569760866214  0.2697383297039532  0.5836149555921978  1.0000
  H   H657      1.0  0.36408664912659106  0.29746478023960904  0.5648085802851887  1.0000
  H   H658      1.0  0.31485642623262644  0.3157100952711813  0.5058127012125799  1.0000
  H   H659      1.0  0.34149399831348337  0.34428039903061763  0.5286289831476899  1.0000
  H   H660      1.0  0.29605687949844245  0.3516357906801347  0.5259472356006302  1.0000
  N   N40       1.0  0.8027994730994291  0.8980820784569387  0.6834908965267127  1.0000
  C   C445      1.0  0.7956941936638616  0.8897467606719748  0.7188631975494361  1.0000
  C   C446      1.0  0.7702397661633433  0.902324751616111  0.6650046913883535  1.0000
  C   C447      1.0  0.8230477921618365  0.8708094220803818  0.6679084214359494  1.0000
  C   C448      1.0  0.8221875317816584  0.9294826549415237  0.6821012755987684  1.0000
  H   H661      1.0  0.8197589414751184  0.8874396839284956  0.7337597888717571  1.0000
  H   H662      1.0  0.7817824640432013  0.8658298093662748  0.7209978333347151  1.0000
  H   H663      1.0  0.7798364711257469  0.9094946957430484  0.73123559310589  1.0000
  H   H664      1.0  0.7748329747840504  0.9086412564068511  0.6381943498422963  1.0000
  H   H665      1.0  0.7548965985640127  0.8791338121641172  0.665489477113718  1.0000
  H   H666      1.0  0.7544127030049326  0.9228204931727454  0.6761187222953051  1.0000
  H   H667      1.0  0.8280883231740909  0.875941337246352  0.6409490170739626  1.0000
  H   H668      1.0  0.8096105423907791  0.8465616937746422  0.6691377060780064  1.0000
  H   H669      1.0  0.8482516577920872  0.8675557372565392  0.6806630521873834  1.0000
  H   H670      1.0  0.8277132213544814  0.9367377776633786  0.6557438246127256  1.0000
  H   H671      1.0  0.847149760545957  0.9271386139949739  0.6952960602975715  1.0000
  H   H672      1.0  0.8080496623702339  0.9504700786730303  0.6944128985179536  1.0000
  N   N41       1.0  0.9139661957926304  0.8722802603989019  0.8815435500136566  1.0000
  C   C449      1.0  0.9012440109509439  0.8482844660750641  0.9064492416111417  1.0000
  C   C450      1.0  0.9047017061545369  0.9066082921243896  0.8920549171439823  1.0000
  C   C451      1.0  0.8985922193480613  0.8651558687715383  0.8483365438533474  1.0000
  C   C452      1.0  0.9514961096146414  0.8691072631192033  0.8792934183438778  1.0000
  H   H673      1.0  0.908020751121507  0.8221374511801465  0.8992809906362763  1.0000
  H   H674      1.0  0.8729833662110159  0.8500825987422519  0.9090850607159096  1.0000
  H   H675      1.0  0.9126618749293719  0.85282190462295  0.9317339654556303  1.0000
  H   H676      1.0  0.9149659370842125  0.9252942305370414  0.8743409427901058  1.0000
  H   H677      1.0  0.8764985232526652  0.9102696743705253  0.8930079919405057  1.0000
  H   H678      1.0  0.9151475881852208  0.9126838632950531  0.9173539111616414  1.0000
  H   H679      1.0  0.9078350101579088  0.8828782445961645  0.8290783921550425  1.0000
  H   H680      1.0  0.8702476773379416  0.8675253656427261  0.8490458199518353  1.0000
  H   H681      1.0  0.9052632766417974  0.8395087442194274  0.8394721431792433  1.0000
  H   H682      1.0  0.962113508180391  0.8866655907600658  0.8606701319571116  1.0000
  H   H683      1.0  0.9594232208019045  0.8434739065208976  0.8714642895161373  1.0000
  H   H684      1.0  0.9638920166888375  0.8746846401331313  0.9038477163639755  1.0000
  N   N42       1.0  0.32506594956895246  0.38062556142609055  0.7954685684256679  1.0000
  C   C453      1.0  0.33664806917662293  0.35113413525856396  0.7759575499033841  1.0000
  C   C454      1.0  0.3175852181430403  0.370483590248429  0.8302464089057309  1.0000
  C   C455      1.0  0.29393631729654984  0.3949397688613121  0.7798514361991528  1.0000
  C   C456      1.0  0.35218512400898233  0.4059434200132467  0.7958630555740722  1.0000
  H   H685      1.0  0.3598341759863848  0.3394928871298848  0.7874446015902195  1.0000
  H   H686      1.0  0.34314929353064455  0.3579148370988676  0.7497687494002979  1.0000
  H   H687      1.0  0.31646854332738933  0.3317853004610116  0.7746953541024165  1.0000
  H   H688      1.0  0.3098111042395643  0.3922002102794839  0.8461710454026277  1.0000
  H   H689      1.0  0.2966506294828785  0.3520610679512824  0.8309996941056115  1.0000
  H   H690      1.0  0.3403124295664012  0.35863286997974175  0.842317284014722  1.0000
  H   H691      1.0  0.29900983394832553  0.40361953563858166  0.7538747821469741  1.0000
  H   H692      1.0  0.28389415534010104  0.4165466512862826  0.7946677157226658  1.0000
  H   H693      1.0  0.27328402118192413  0.3761955850090156  0.7780731683845614  1.0000
  H   H694      1.0  0.34478923693492863  0.4280774849353468  0.8113733772590216  1.0000
  H   H695      1.0  0.35799530220899195  0.4147657488430916  0.7701133388234743  1.0000
  H   H696      1.0  0.37628170002575795  0.39566051869319385  0.8066064877358652  1.0000
  N   N43       1.0  0.14092717683804792  0.8112713721280781  0.8160429861812921  1.0000
  C   C457      1.0  0.17681558422243127  0.819761581224297  0.8088512728826012  1.0000
  C   C458      1.0  0.12585106852588132  0.8367061974045039  0.8387682256467432  1.0000
  C   C459      1.0  0.1396266511836097  0.778254547202009  0.8322616956686529  1.0000
  C   C460      1.0  0.12124255584978874  0.8103327499771181  0.784299801049915  1.0000
  H   H697      1.0  0.1922464810758874  0.8221180656354053  0.8322778052459684  1.0000
  H   H698      1.0  0.17851680219899754  0.8439679209204962  0.7955391148649692  1.0000
  H   H699      1.0  0.18933512017903278  0.8006319623487302  0.7925347036556218  1.0000
  H   H700      1.0  0.1401157410056507  0.8382552403567791  0.8629410435911083  1.0000
  H   H701      1.0  0.1261779465599265  0.861911600885204  0.8273062836984526  1.0000
  H   H702      1.0  0.09876732615364035  0.8309446740142931  0.8446883336649457  1.0000
  H   H703      1.0  0.11279375095257337  0.7712974540457311  0.8381426376780122  1.0000
  H   H704      1.0  0.15428106920650025  0.7780221347476778  0.8562675887979697  1.0000
  H   H705      1.0  0.15040904723812623  0.7583317275559713  0.815706849293713  1.0000
  H   H706      1.0  0.09425577737169039  0.8032406421510941  0.7887788483932251  1.0000
  H   H707      1.0  0.13229038585031017  0.7919754177750409  0.766192302468505  1.0000
  H   H708      1.0  0.12084048648898672  0.8350757600507928  0.7717840048716967  1.0000
  N   N44       1.0  0.7511899494055824  0.7730152573410878  0.9197810281974662  1.0000
  C   C461      1.0  0.736032140318252  0.7394515379041736  0.9182169097740533  1.0000
  C   C462      1.0  0.7469776536303953  0.7896566903191631  0.8869895027128227  1.0000
  C   C463      1.0  0.787960955398652  0.7698853479681762  0.9279372559590137  1.0000
  C   C464      1.0  0.7338151021953055  0.7931034133012702  0.9460288300533911  1.0000
  H   H709      1.0  0.7388857384985883  0.7263437060960224  0.9426693473891945  1.0000
  H   H710      1.0  0.748699838099718  0.7235694831593085  0.898764359519912  1.0000
  H   H711      1.0  0.708269759006575  0.740853536683762  0.9121201034509873  1.0000
  H   H712      1.0  0.7576643798542946  0.8153096627549571  0.8875601191735991  1.0000
  H   H713      1.0  0.7600871529578612  0.7755268667980605  0.866555528908816  1.0000
  H   H714      1.0  0.7195292206410521  0.7922432385542317  0.8798960203464533  1.0000
  H   H715      1.0  0.8001786110306595  0.7947949127373276  0.9296356407334793  1.0000
  H   H716      1.0  0.8019974637462846  0.7547590601786762  0.9087938253530493  1.0000
  H   H717      1.0  0.7920629900603684  0.7574941864505841  0.952617522501468  1.0000
  H   H718      1.0  0.7444743469070003  0.8186521783985458  0.9476097423890725  1.0000
  H   H719      1.0  0.7370761012448475  0.7818139194570888  0.9713387988337583  1.0000
  H   H720      1.0  0.7059289405041285  0.7958195950154255  0.9409280035040543  1.0000
  N   N45       1.0  0.04914831601685621  0.9771448587484715  0.3480475223574694  1.0000
  C   C465      1.0  0.07347543229240694  0.9860200455914965  0.3213553716801202  1.0000
  C   C466      1.0  0.013856934443094104  0.9801861290298346  0.3349487242372365  1.0000
  C   C467      1.0  0.05339782933716508  0.9999633914343233  0.37704119685217596  1.0000
  C   C468      1.0  0.055831874268650106  0.9424428917249285  0.358806276523822  1.0000
  H   H721      1.0  0.10038914797391696  0.9840459081808179  0.3303361773959634  1.0000
  H   H722      1.0  0.0690077025117366  0.012025310831192959  0.31256061991582074  1.0000
  H   H723      1.0  0.07088371232609503  0.9691613303229331  0.29913784963242973  1.0000
  H   H724      1.0  0.0077578596668610444  0.00620902543898727  0.32712019106984874  1.0000
  H   H725      1.0  0.009774545749679397  0.9635448712153775  0.3128380691022108  1.0000
  H   H726      1.0  0.9948041736315955  0.973318666400322  0.3543258339010209  1.0000
  H   H727      1.0  0.034663000605205774  0.994518468349951  0.39720456479652533  1.0000
  H   H728      1.0  0.04903094093334914  0.026442236948596154  0.36968729206750145  1.0000
  H   H729      1.0  0.07947865380271901  0.9979642162240769  0.38808609102738667  1.0000
  H   H730      1.0  0.08199340664460708  0.9393131634136341  0.36942521022322616  1.0000
  H   H731      1.0  0.05345344486696679  0.9245867423029058  0.3373807408778128  1.0000
  H   H732      1.0  0.03729813432574636  0.9345777578086293  0.37828562122005505  1.0000
  N   N46       1.0  0.8471082698025173  0.286067086794682  0.09325859229101677  1.0000
  C   C469      1.0  0.8596461648551658  0.31431921970440285  0.07325055730473329  1.0000
  C   C470      1.0  0.8299987584929838  0.29891428152640664  0.1238172217934423  1.0000
  C   C471      1.0  0.8761916708744232  0.26427056478105515  0.10286600940969506  1.0000
  C   C472      1.0  0.8225388678372957  0.26664735281840374  0.07302857397565066  1.0000
  H   H733      1.0  0.8738328642734831  0.30539537388308075  0.05068488606579358  1.0000
  H   H734      1.0  0.877302834615313  0.33030006245811944  0.08804685767642297  1.0000
  H   H735      1.0  0.8382093042580611  0.33044626285384526  0.06415695862019556  1.0000
  H   H736      1.0  0.8075875271081517  0.3151001783745103  0.11748604868285979  1.0000
  H   H737      1.0  0.8203402963703083  0.2782280060276608  0.13958518562434805  1.0000
  H   H738      1.0  0.8475755014636682  0.3139086391392398  0.13972337918199199  1.0000
  H   H739      1.0  0.8894901890657663  0.25408781084710497  0.08024554456458534  1.0000
  H   H740      1.0  0.8675381224786974  0.24265931136511282  0.11793871979597995  1.0000
  H   H741      1.0  0.8953335442602413  0.2780873208299719  0.11812298332711384  1.0000
  H   H742      1.0  0.8346240627194659  0.2561312187591127  0.049974397069352694  1.0000
  H   H743      1.0  0.8005758326362278  0.2824963640910283  0.06486839281900014  1.0000
  H   H744      1.0  0.8120841213432738  0.24538916064411806  0.08745317314307967  1.0000
  N   N47       1.0  0.4032285458445275  0.8422664898200999  0.3112570621089288  1.0000
  C   C473      1.0  0.4339386356299067  0.8232034769146208  0.30082988468192984  1.0000
  C   C474      1.0  0.4132124628330354  0.876324934794473  0.32140776427320766  1.0000
  C   C475      1.0  0.38704799677829543  0.8253518077801643  0.33985094960065093  1.0000
  C   C476      1.0  0.3788587401727452  0.8441215544517245  0.2828308867651719  1.0000
  H   H745      1.0  0.42729284055248296  0.797435824244853  0.292942803950855  1.0000
  H   H746      1.0  0.4530199850706998  0.821242586144638  0.3215770400131987  1.0000
  H   H747      1.0  0.44671748655006494  0.8351412785251163  0.2792158652709719  1.0000
  H   H748      1.0  0.4256629684986372  0.8895725971826421  0.3003535442674886  1.0000
  H   H749      1.0  0.390711009860637  0.8917370969271633  0.32909188328342714  1.0000
  H   H750      1.0  0.4316957499645967  0.8759605341736936  0.34273647982568745  1.0000
  H   H751      1.0  0.4049022512905653  0.8232269495739155  0.3616007637662991  1.0000
  H   H752      1.0  0.37921867571205875  0.7995943148182263  0.3328938175997321  1.0000
  H   H753      1.0  0.36375007228901335  0.8390116352336527  0.3484717508209336  1.0000
  H   H754      1.0  0.35513020259712896  0.8580014089148403  0.28984147920082415  1.0000
  H   H755      1.0  0.3711810660419367  0.8188112461918841  0.2741434608739002  1.0000
  H   H756      1.0  0.3901912064072576  0.857030279607014  0.26091781185545604  1.0000
  N   N48       1.0  0.43930320036441894  0.8269241074983383  0.6374492274227875  1.0000
  C   C477      1.0  0.405497849398683  0.8116354679935855  0.6423952505107228  1.0000
  C   C478      1.0  0.4347235006470853  0.8597649901559795  0.6212729014562361  1.0000
  C   C479      1.0  0.4604835181309242  0.8050247616891678  0.6157555840316807  1.0000
  C   C480      1.0  0.45645752957175584  0.8313938664384745  0.6702819683765053  1.0000
  H   H757      1.0  0.4077518347409942  0.7869561329707049  0.6549159858585899  1.0000
  H   H758      1.0  0.39203391663540743  0.8075235404263205  0.6180742695482115  1.0000
  H   H759      1.0  0.38871527825603036  0.8276601456104558  0.658425071520452  1.0000
  H   H760      1.0  0.4219493219903908  0.8572927860360936  0.5963397683132966  1.0000
  H   H761      1.0  0.4187059213420401  0.8768692309507499  0.6370148566258015  1.0000
  H   H762      1.0  0.45970590602254874  0.8720605655268455  0.6171925214137646  1.0000
  H   H763      1.0  0.4864716800380019  0.8152794961424191  0.6119975439694145  1.0000
  H   H764      1.0  0.44877609032848276  0.8021378757022514  0.5904242321683026  1.0000
  H   H765      1.0  0.4636279071744734  0.7796324832234355  0.626631617189347  1.0000
  H   H766      1.0  0.48274166826283593  0.8411975831952491  0.6673514711240652  1.0000
  H   H767      1.0  0.4585885238634669  0.8073902170899987  0.6841326913864624  1.0000
  H   H768      1.0  0.442144122318044  0.8494510282574085  0.6864433588176876  1.0000
