data_image0
_chemical_formula_structural       FeS2FeS2FeSFeS3FeS2FeS2FeSFeS3FeS2FeS2FeSFeS3FeS2FeS2FeSFeS3FeS2FeS2FeSFeS3FeS2FeS2FeSFeS3FeS2FeS2FeSFeS3FeS2FeS2FeSFeS3FeS2FeS2FeSFeS3FeS2FeS2FeSFeS3FeS2FeS2FeSFeS3FeS2FeS2FeSFeS3FeS2FeS2FeSFeS3FeS2FeS2FeSFeS3FeS2FeS2FeSFeS3FeS2FeS2FeSFeS3FeS2FeS2FeSFeS3FeS2FeS2FeSFeS3FeS2FeS2FeSFeS3FeS2FeS2FeSFeS3FeS2FeS2FeSFeS3FeS2FeS2FeSFeS3FeS2FeS2FeSFeS3FeS2FeS2FeSFeS3C6H4C6H4C6H4C6H4C6H4C6H4C6H4C6H4C6H4C6H4C6H4C6H4C6H4C6H4C6H4C6H4C6H4C6H4C6H4C6H4C6H4C6H4C6H4C6H4C6H4C6H4C6H4C6H4C6H4C6H4C6H4C6H4C6H4C6H4C6H4C6H4C6H4C6H4C6H4C6H4C6H4C6H4C6H4C6H4C6H4C6H4C6H4C6H4NC4H12NC4H12NC4H12NC4H12NC4H12NC4H12NC4H12NC4H12NC4H12NC4H12NC4H12NC4H12NC4H12NC4H12NC4H12NC4H12NC4H12NC4H12NC4H12NC4H12NC4H12NC4H12NC4H12NC4H12NC4H12NC4H12NC4H12NC4H12NC4H12NC4H12NC4H12NC4H12NC4H12NC4H12NC4H12NC4H12NC4H12NC4H12NC4H12NC4H12NC4H12NC4H12NC4H12NC4H12NC4H12NC4H12NC4H12NC4H12
_chemical_formula_sum              "Fe96 S192 C480 H768 N48"
_cell_length_a       54.21698712737656
_cell_length_b       56.21929562808811
_cell_length_c       23.506497609244555
_cell_angle_alpha    89.77020447753522
_cell_angle_beta     89.81425723271386
_cell_angle_gamma    88.92730034278648

_space_group_name_H-M_alt    "P 1"
_space_group_IT_number       1

loop_
  _space_group_symop_operation_xyz
  'x, y, z'

loop_
  _atom_site_type_symbol
  _atom_site_label
  _atom_site_symmetry_multiplicity
  _atom_site_fract_x
  _atom_site_fract_y
  _atom_site_fract_z
  _atom_site_occupancy
  Fe  Fe1       1.0  0.2881134520377368  0.5177552704078074  0.42165240289540956  1.0000
  S   S1        1.0  0.3280274898059982  0.5220925237000653  0.40126912086854444  1.0000
  S   S2        1.0  0.27518870123352396  0.49255351447495493  0.48944279777398286  1.0000
  Fe  Fe2       1.0  0.27195101741037647  0.5564719185367709  0.3386374295375626  1.0000
  S   S3        1.0  0.3106882732980504  0.5642599870689746  0.3114152814623846  1.0000
  S   S4        1.0  0.24115637451455216  0.5781845036677052  0.30056086773104856  1.0000
  Fe  Fe3       1.0  0.3153082057055131  0.5245459370384856  0.3107724147121199  1.0000
  S   S5        1.0  0.33571402228246405  0.5034421700188715  0.2442957220090429  1.0000
  Fe  Fe4       1.0  0.31942710512892036  0.5612379248565715  0.40440075163503314  1.0000
  S   S6        1.0  0.341606701633284  0.5847272423403092  0.4610748256331225  1.0000
  S   S7        1.0  0.2757246562319641  0.5168890466563111  0.3309853226402915  1.0000
  S   S8        1.0  0.2802348111946882  0.5567972155795825  0.4316867122516945  1.0000
  Fe  Fe5       1.0  0.28928836839657485  0.036834589306235364  0.9693191551209936  1.0000
  S   S9        1.0  0.32110535561873227  0.03636344959000291  0.03006781524157942  1.0000
  S   S10       1.0  0.28192805027532736  0.06426078173707718  0.9011119896377604  1.0000
  Fe  Fe6       1.0  0.26526001667406895  0.9943470470902187  0.024424939962923276  1.0000
  S   S11       1.0  0.29438843506770107  0.9906988848907732  0.09093821104419608  1.0000
  S   S12       1.0  0.23398645068668805  0.9685841720982634  0.02704343021205724  1.0000
  Fe  Fe7       1.0  0.29240961952481315  0.030263231706735026  0.0969964364101572  1.0000
  S   S13       1.0  0.2990012192070166  0.04661966780905425  0.1825349080869838  1.0000
  Fe  Fe8       1.0  0.3208286717866801  0.9967281885706923  0.01922538473783053  1.0000
  S   S14       1.0  0.3559658465626243  0.9745965402512932  0.017402280120239366  1.0000
  S   S15       1.0  0.26031959406994454  0.03367859591298848  0.037334967522077545  1.0000
  S   S16       1.0  0.29177439283445117  0.9976614644990325  0.9513481046567712  1.0000
  Fe  Fe9       1.0  0.36837196773266  0.7154275462397461  0.43635269092782375  1.0000
  S   S17       1.0  0.361904632922238  0.70965744414634  0.5296131535116305  1.0000
  S   S18       1.0  0.3617755020229462  0.6883191524467573  0.3679717736014309  1.0000
  Fe  Fe10      1.0  0.3805666959689885  0.7676927920587866  0.4516298458863694  1.0000
  S   S19       1.0  0.37447534835819146  0.7665655877971983  0.5458809526499977  1.0000
  S   S20       1.0  0.3888830745364567  0.8020006705652875  0.4070365616833287  1.0000
  Fe  Fe11      1.0  0.3954664561829508  0.7318902073286027  0.5410423390877772  1.0000
  S   S21       1.0  0.4265628014716733  0.7224413719152357  0.6002095064062966  1.0000
  Fe  Fe12      1.0  0.3416363549909565  0.7446168483618036  0.5254069689289338  1.0000
  S   S22       1.0  0.3045927172956757  0.7488735799030949  0.5671178776556791  1.0000
  S   S23       1.0  0.40398428478027293  0.7344794605834449  0.4477784401229013  1.0000
  S   S24       1.0  0.34574698553407507  0.7491394745012054  0.43118340421641504  1.0000
  Fe  Fe13      1.0  0.39500917630929755  0.8007131341914945  0.09412285143606192  1.0000
  S   S25       1.0  0.38602309367846716  0.7783833020252581  0.01869810475694078  1.0000
  S   S26       1.0  0.4235918898557911  0.7862276369039168  0.15398492944024844  1.0000
  Fe  Fe14      1.0  0.3561069970084154  0.8380832019851695  0.065918806671446  1.0000
  S   S27       1.0  0.343722129739399  0.8189580659030171  0.9877321384342808  1.0000
  S   S28       1.0  0.3334900600707155  0.8695858063076602  0.09496654261788273  1.0000
  Fe  Fe15      1.0  0.3465758460849815  0.7861325881834315  0.04166435236362753  1.0000
  S   S29       1.0  0.3198838186661544  0.7563306447546922  0.05116425461709584  1.0000
  Fe  Fe16      1.0  0.38434652804541436  0.8132226335584052  0.9722832709603576  1.0000
  S   S30       1.0  0.4015083438223802  0.8182967219653209  0.886027602875543  1.0000
  S   S31       1.0  0.355691409806313  0.8055773934309415  0.12132965361789116  1.0000
  S   S32       1.0  0.39653165738481005  0.8352740145416234  0.04614888650401361  1.0000
  Fe  Fe17      1.0  0.16896552025757539  0.6592035572314634  0.4895900385638738  1.0000
  S   S33       1.0  0.16163435110325336  0.6818897353567093  0.4123618821607021  1.0000
  S   S34       1.0  0.17086726236106403  0.6192956180716109  0.4921834409200423  1.0000
  Fe  Fe18      1.0  0.1768677033823092  0.7015625028470109  0.566960433163981  1.0000
  S   S35       1.0  0.17040051969015835  0.7279710899080059  0.49679319342395445  1.0000
  S   S36       1.0  0.18474391792592806  0.7107762124972329  0.6580280401567304  1.0000
  Fe  Fe19      1.0  0.13919528174896725  0.7047312175862332  0.47216904953271516  1.0000
  S   S37       1.0  0.10266476570060504  0.722797704690486  0.45444573081409567  1.0000
  Fe  Fe20      1.0  0.19344571653722298  0.7029911157202784  0.4441067412292288  1.0000
  S   S38       1.0  0.2254026947185226  0.7144712297451973  0.39104534303553046  1.0000
  S   S39       1.0  0.14360829287677446  0.6801339273834701  0.5469081248501437  1.0000
  S   S40       1.0  0.20267640414599608  0.6784654778875013  0.5164819702116639  1.0000
  Fe  Fe21      1.0  0.20304508650010022  0.8032145464568013  0.9229482179928861  1.0000
  S   S41       1.0  0.2300114093903461  0.8138715776327876  0.8556849600959049  1.0000
  S   S42       1.0  0.20844321862560733  0.7710169441177893  0.9778353386799163  1.0000
  Fe  Fe22      1.0  0.17157481117723006  0.8480571521042756  0.909298963239127  1.0000
  S   S43       1.0  0.19636305811625207  0.8630944116265789  0.8421488753653613  1.0000
  S   S44       1.0  0.14037662581432395  0.8693908476406838  0.9476737031916385  1.0000
  Fe  Fe23      1.0  0.1964614443903038  0.8259144826109589  0.8074700365871408  1.0000
  S   S45       1.0  0.1942190108292349  0.819792319369502  0.7134498304709208  1.0000
  Fe  Fe24      1.0  0.22730185779073792  0.8496040283140844  0.8971178799552614  1.0000
  S   S46       1.0  0.26155028678228703  0.869545835071815  0.9174030273730938  1.0000
  S   S47       1.0  0.16936628278494778  0.8116989088795491  0.8711125537877615  1.0000
  S   S48       1.0  0.20256732863512847  0.8380664666241836  0.9675124515899108  1.0000
  Fe  Fe25      1.0  0.5708267585668136  0.7720469826990006  0.7141407878467297  1.0000
  S   S49       1.0  0.5677013472343895  0.8070142927903585  0.6676698981226349  1.0000
  S   S50       1.0  0.5955252505799853  0.7436236301661082  0.6761372162427898  1.0000
  Fe  Fe26      1.0  0.532539865567834  0.7868479094991859  0.8032235459695176  1.0000
  S   S51       1.0  0.5265952404667684  0.8226158537773912  0.7637451222146062  1.0000
  S   S52       1.0  0.511522503519179  0.7789678835230822  0.8834226278639368  1.0000
  Fe  Fe27      1.0  0.5270002465784109  0.8028826097490293  0.6813823969384435  1.0000
  S   S53       1.0  0.4961724569212228  0.8106113537880598  0.6202568754005786  1.0000
  Fe  Fe28      1.0  0.5676339164179843  0.8228799243408684  0.7552764741721111  1.0000
  S   S54       1.0  0.5871940929263552  0.8539812531396956  0.7925892684389538  1.0000
  S   S55       1.0  0.5299527942795969  0.7667883180278658  0.7215994973338954  1.0000
  S   S56       1.0  0.57383758770286  0.7882044256797199  0.8007724022876392  1.0000
  Fe  Fe29      1.0  0.024280418712971708  0.8292876258920905  0.19402752620230476  1.0000
  S   S57       1.0  0.003076043431651909  0.809540357549551  0.1281860652989376  1.0000
  S   S58       1.0  0.008437390669296496  0.8638512786797417  0.22631317384852692  1.0000
  Fe  Fe30      1.0  0.06646067798972624  0.7929329345563878  0.19661684411779026  1.0000
  S   S59       1.0  0.048681338549148995  0.7701261021687068  0.13124714342644794  1.0000
  S   S60       1.0  0.1043810721680424  0.781159013353983  0.22526965863357612  1.0000
  Fe  Fe31      1.0  0.0400706148930865  0.8044736332434451  0.08617519430746069  1.0000
  S   S61       1.0  0.04758371059574906  0.8060046474909287  0.9921408045217831  1.0000
  Fe  Fe32      1.0  0.013684114491536059  0.7772567489687828  0.17959175013788956  1.0000
  S   S62       1.0  0.9884134785427833  0.7481632839667584  0.20791022754891955  1.0000
  S   S63       1.0  0.06056641595387854  0.8268897694813826  0.14800735818210364  1.0000
  S   S64       1.0  0.032134408182611596  0.7974179659606002  0.24909132783348184  1.0000
  Fe  Fe33      1.0  0.7071837650797872  0.8986414505859155  0.7012718082634771  1.0000
  S   S65       1.0  0.7139659403985226  0.8825405384905454  0.7874347522221953  1.0000
  S   S66       1.0  0.675742378682674  0.8901175775413054  0.6434450955167645  1.0000
  Fe  Fe34      1.0  0.7566340209756124  0.9232261225347066  0.6981649442723055  1.0000
  S   S67       1.0  0.7678714483133132  0.9094058637863788  0.7835657175122962  1.0000
  S   S68       1.0  0.7806493834393515  0.9468058105846463  0.6451790886402541  1.0000
  Fe  Fe35      1.0  0.7521536997475505  0.874859522807465  0.7545747436985337  1.0000
  S   S69       1.0  0.7716096809148755  0.8399853172473046  0.7730308408385155  1.0000
  Fe  Fe36      1.0  0.7288752164322102  0.9184553439748332  0.8088590496979884  1.0000
  S   S70       1.0  0.719130580977971  0.9386130760588419  0.8884150438869254  1.0000
  S   S71       1.0  0.7440558366840585  0.8880080513214837  0.6667382168179203  1.0000
  S   S72       1.0  0.7188010135976632  0.9352816538010518  0.7250130694027122  1.0000
  Fe  Fe37      1.0  0.8821107384337756  0.8777371875736429  0.33870134250139755  1.0000
  S   S73       1.0  0.8840699549927811  0.902845416628417  0.26460446325032594  1.0000
  S   S74       1.0  0.9087831485295962  0.8480339784524566  0.35867029190193633  1.0000
  Fe  Fe38      1.0  0.8308786400669438  0.894404578815082  0.3723358308823374  1.0000
  S   S75       1.0  0.8275529097518426  0.9212272916566605  0.30167437537114306  1.0000
  S   S76       1.0  0.8016591728602447  0.8831082433644583  0.43351523170940504  1.0000
  Fe  Fe39      1.0  0.8451774229933317  0.8929723769904754  0.24790844359510983  1.0000
  S   S77       1.0  0.8330324381454466  0.8831598413116363  0.16084331287728554  1.0000
  Fe  Fe40      1.0  0.8667304183176877  0.9293094902480149  0.32448177524422744  1.0000
  S   S78       1.0  0.8816464500837273  0.9660803516158993  0.3185223057291709  1.0000
  S   S79       1.0  0.8447354999115647  0.8652439348117394  0.3160660314453246  1.0000
  S   S80       1.0  0.868502382474778  0.9051133266095318  0.4007864160675682  1.0000
  Fe  Fe41      1.0  0.7852675987433354  0.7012421825997444  0.73392126793445  1.0000
  S   S81       1.0  0.7912415199093235  0.6985727489220521  0.6394604597829069  1.0000
  S   S82       1.0  0.815941400595751  0.6960868056710782  0.7972744897981904  1.0000
  Fe  Fe42      1.0  0.7318871544112383  0.7178210395357669  0.7227231993401327  1.0000
  S   S83       1.0  0.7328055109268231  0.7166016103048448  0.6273415691880168  1.0000
  S   S84       1.0  0.7023643496971625  0.7327687684675985  0.7807209333034681  1.0000
  Fe  Fe43      1.0  0.7538209750766813  0.6820825721424365  0.6397085291531923  1.0000
  S   S85       1.0  0.7434627552334405  0.6506078619844982  0.5864965185466778  1.0000
  Fe  Fe44      1.0  0.7699911429748725  0.7330312825411579  0.6344765551643514  1.0000
  S   S86       1.0  0.7801019711459781  0.7641716940539246  0.5791635400729397  1.0000
  S   S87       1.0  0.749568572700812  0.6817681774152102  0.7347895924129383  1.0000
  S   S88       1.0  0.7673021540424039  0.7372542752203365  0.7288485229487098  1.0000
  Fe  Fe45      1.0  0.8543421847539435  0.7385226487338931  0.12622401032783237  1.0000
  S   S89       1.0  0.8495654717429708  0.7434082210553273  0.22023038432054481  1.0000
  S   S90       1.0  0.8867326782118933  0.7523156357181339  0.07736921443372835  1.0000
  Fe  Fe46      1.0  0.8046494788016523  0.7159817118060366  0.1116418032412456  1.0000
  S   S91       1.0  0.7951690492679246  0.7189496131154107  0.20426493500294435  1.0000
  S   S92       1.0  0.7774309148360596  0.7009169479215399  0.05060317250981128  1.0000
  Fe  Fe47      1.0  0.8111422198674555  0.755239724364705  0.19802535932230944  1.0000
  S   S93       1.0  0.79323089642493  0.7855602291734423  0.24526550653839393  1.0000
  Fe  Fe48      1.0  0.8341776316769539  0.7066629201687247  0.21812325148388004  1.0000
  S   S94       1.0  0.8428647607541238  0.6795428245123935  0.2856426759184234  1.0000
  S   S95       1.0  0.8169621469778834  0.753506662418693  0.10359751709546129  1.0000
  S   S96       1.0  0.8425290711074863  0.7004657825658783  0.1257749671051664  1.0000
  Fe  Fe49      1.0  0.7823093594180239  0.07215027735230076  0.03262740154540755  1.0000
  S   S97       1.0  0.8114226370465454  0.06152034925123948  0.9692385090011169  1.0000
  S   S98       1.0  0.749531550743529  0.09584688707219789  0.012195602692258056  1.0000
  Fe  Fe50      1.0  0.8067961495124142  0.04502888166055352  0.1296410970994626  1.0000
  S   S99       1.0  0.83893282954073  0.033289634917319955  0.07599300875862669  1.0000
  S   S100      1.0  0.798232164023666  0.0338105589102351  0.21911724122348342  1.0000
  Fe  Fe51      1.0  0.8376384493728602  0.07031427547980146  0.03959476643882609  1.0000
  S   S101      1.0  0.8709922199542671  0.09320751097663944  0.028856425925226636  1.0000
  Fe  Fe52      1.0  0.810156692172643  0.025578725795013524  0.01067034597172234  1.0000
  S   S102      1.0  0.8149648729895492  0.9904176459920785  0.9664469986690538  1.0000
  S   S103      1.0  0.8085400718661708  0.08282421850901832  0.10099946331037679  1.0000
  S   S104      1.0  0.7780063208008197  0.035115069149323386  0.06661375836719463  1.0000
  Fe  Fe53      1.0  0.804806821998528  0.5557835591282028  0.44067634281017676  1.0000
  S   S105      1.0  0.7688981882141322  0.5686503533894971  0.4039154905777582  1.0000
  S   S106      1.0  0.8241485280900082  0.5758977376269347  0.5091809719647009  1.0000
  Fe  Fe54      1.0  0.8084759083516428  0.5135008339677564  0.3619065894224448  1.0000
  S   S107      1.0  0.7730303424498725  0.5228589876888116  0.31723207305896656  1.0000
  S   S108      1.0  0.8316910082544492  0.4822319810815366  0.332973499342716  1.0000
  Fe  Fe55      1.0  0.7864275066577229  0.5603660576165205  0.3200301220484168  1.0000
  S   S109      1.0  0.7804970653103473  0.5871885280723872  0.2502544569618671  1.0000
  Fe  Fe56      1.0  0.7586211109098182  0.5302200416691158  0.4049594521352  1.0000
  S   S110      1.0  0.7221742039515433  0.5189192259728748  0.4408507338203293  1.0000
  S   S111      1.0  0.8233510699567488  0.5503036127466658  0.35633270988649807  1.0000
  S   S112      1.0  0.7929998044784077  0.5180462600414587  0.4499015729648303  1.0000
  Fe  Fe57      1.0  0.9300296644122314  0.34150353828297814  0.526755352806596  1.0000
  S   S113      1.0  0.9148664871778297  0.31601176038026046  0.4634135170190392  1.0000
  S   S114      1.0  0.9613700061445211  0.3314204458180427  0.5842867754514676  1.0000
  Fe  Fe58      1.0  0.8942055066994266  0.38125400900506795  0.4939556163165809  1.0000
  S   S115      1.0  0.8762487778133319  0.3595567825392774  0.4262648359637102  1.0000
  S   S116      1.0  0.8803724281648958  0.41717179582565617  0.5226510536812448  1.0000
  Fe  Fe59      1.0  0.877959322223088  0.3303266174985155  0.49125224480649554  1.0000
  S   S117      1.0  0.8444527652808834  0.30860701795172996  0.5082692065835104  1.0000
  Fe  Fe60      1.0  0.9148339205800226  0.3475101506772673  0.4045683941921077  1.0000
  S   S118      1.0  0.9281634629778078  0.3415807443853693  0.315078397490041  1.0000
  S   S119      1.0  0.893191795658655  0.35273198810105605  0.560761124184172  1.0000
  S   S120      1.0  0.9328480219891998  0.3722251552386265  0.46608401235704117  1.0000
  Fe  Fe61      1.0  0.8852799795849308  0.20230141924714307  0.8464584557482506  1.0000
  S   S121      1.0  0.8843141767797817  0.22476696516637024  0.9245987429690554  1.0000
  S   S122      1.0  0.8599530327030049  0.1716182882884246  0.8361252957631786  1.0000
  Fe  Fe62      1.0  0.9239883646068598  0.23161314575468817  0.7892686696695964  1.0000
  S   S123      1.0  0.9269166256204132  0.2570493243105796  0.862071005535569  1.0000
  S   S124      1.0  0.947173914757495  0.23374580174983733  0.710136738493919  1.0000
  Fe  Fe63      1.0  0.9255078643622198  0.22438516285814336  0.9172156492620148  1.0000
  S   S125      1.0  0.9453584879055769  0.22021771834231052  0.0008430107695935884  1.0000
  Fe  Fe64      1.0  0.8857091961474405  0.25557923898277723  0.8645590405052462  1.0000
  S   S126      1.0  0.8634080742733463  0.28776445669721473  0.8902129732222611  1.0000
  S   S127      1.0  0.9264572393149035  0.1988133045887968  0.8441639834963952  1.0000
  S   S128      1.0  0.8826297972230969  0.23330678411109979  0.7861321267230013  1.0000
  Fe  Fe65      1.0  0.7418985909148161  0.22816482585621506  0.06648576992032829  1.0000
  S   S129      1.0  0.7216826247085236  0.22411685185023753  0.9844207872210825  1.0000
  S   S130      1.0  0.7671185315735186  0.19976752445568585  0.1020173001048108  1.0000
  Fe  Fe66      1.0  0.7253388534782411  0.2793844787418838  0.08129444339601122  1.0000
  S   S131      1.0  0.7039945427097362  0.2801231699857334  0.9995144763552394  1.0000
  S   S132      1.0  0.725788875851391  0.3129657777891414  0.1329742192209127  1.0000
  Fe  Fe67      1.0  0.6910989968391574  0.2444115850096374  0.027921696138735852  1.0000
  S   S133      1.0  0.6520205812677651  0.23262907063326557  0.01912054458703505  1.0000
  Fe  Fe68      1.0  0.7362785704586857  0.26006379862977463  0.9631218547520901  1.0000
  S   S134      1.0  0.7501541065694455  0.2653973512976704  0.8739623352988246  1.0000
  S   S135      1.0  0.7098802126286515  0.2449942784637699  0.11267921913323553  1.0000
  S   S136      1.0  0.7591580710506048  0.2626923785285388  0.04201357219758273  1.0000
  Fe  Fe69      1.0  0.6963371966247343  0.33921747252789086  0.4376297696289153  1.0000
  S   S137      1.0  0.6996062536799734  0.3426349643876349  0.5325549772007954  1.0000
  S   S138      1.0  0.6997963558475778  0.30374613136732853  0.3940362935040885  1.0000
  Fe  Fe70      1.0  0.6905428492506123  0.3922076256373078  0.4181751661209349  1.0000
  S   S139      1.0  0.6932127276099858  0.40066322603876375  0.5107614648657861  1.0000
  S   S140      1.0  0.6893511872932838  0.4193629759734127  0.34786839180118156  1.0000
  Fe  Fe71      1.0  0.7237226313230614  0.3734304937889997  0.5127348873502756  1.0000
  S   S141      1.0  0.7587178065777225  0.38277291499690097  0.5567821122694429  1.0000
  Fe  Fe72      1.0  0.6686836452614261  0.36941511683217365  0.5231916114424163  1.0000
  S   S142      1.0  0.6391311907934923  0.373354318938711  0.5895641009746174  1.0000
  S   S143      1.0  0.7235558675060253  0.3676762089126875  0.41874875665997713  1.0000
  S   S144      1.0  0.6629886758017903  0.363242366662812  0.4297392656137146  1.0000
  Fe  Fe73      1.0  0.05558748594550056  0.29597056935479515  0.24199362583060371  1.0000
  S   S145      1.0  0.05277467250038148  0.32322228423719823  0.172494899543445  1.0000
  S   S146      1.0  0.037779797833551454  0.30244470388673933  0.32689305739299757  1.0000
  Fe  Fe74      1.0  0.0927590054019604  0.26538867887284656  0.17848291529873928  1.0000
  S   S147      1.0  0.09320021686413102  0.2900488910295251  0.10344026593928414  1.0000
  S   S148      1.0  0.11734098233514428  0.2327545796276829  0.17458691259087025  1.0000
  Fe  Fe75      1.0  0.0938768687229609  0.3192160820555503  0.16791600912232996  1.0000
  S   S149      1.0  0.1179403486244535  0.3512566278277201  0.1684793037194239  1.0000
  Fe  Fe76      1.0  0.052222605259287125  0.2917976739593592  0.11452351387003769  1.0000
  S   S150      1.0  0.030875035890620905  0.29323568046723053  0.03308420577228777  1.0000
  S   S151      1.0  0.09685631142684395  0.29452145223646486  0.2420240174142538  1.0000
  S   S152      1.0  0.051386375451216715  0.2644210924726256  0.18453235749176747  1.0000
  Fe  Fe77      1.0  0.5534370578055929  0.3001539555998451  0.8766812150558737  1.0000
  S   S153      1.0  0.5631186486412291  0.26535885164379874  0.8351936400900836  1.0000
  S   S154      1.0  0.572231837191638  0.3114550547191154  0.9567456125813102  1.0000
  Fe  Fe78      1.0  0.5206761152777463  0.31646880619686996  0.7794524343253898  1.0000
  S   S155      1.0  0.5281034447133217  0.28344010830882144  0.7289191941645992  1.0000
  S   S156      1.0  0.4968292505711862  0.3462148153240112  0.7449160787268132  1.0000
  Fe  Fe79      1.0  0.5230408184723628  0.26486164758812103  0.8124893425028996  1.0000
  S   S157      1.0  0.5003568268857591  0.23198016578540356  0.8120245059165242  1.0000
  Fe  Fe80      1.0  0.5674360432945248  0.28718847065848374  0.7562074768439065  1.0000
  S   S158      1.0  0.5995074758529993  0.27927520670111816  0.6977327344953417  1.0000
  S   S159      1.0  0.5126797231080381  0.2977614538602809  0.861591099749996  1.0000
  S   S160      1.0  0.560508600166608  0.3221855286108009  0.7989757920915264  1.0000
  Fe  Fe81      1.0  0.2674274301629018  0.397415743713515  0.143402029890535  1.0000
  S   S161      1.0  0.27209405333959036  0.377092952106385  0.062312961395454954  1.0000
  S   S162      1.0  0.25638479349151216  0.436031173586828  0.1419677499438088  1.0000
  Fe  Fe82      1.0  0.2769799663929282  0.35445425552935195  0.21820774338237744  1.0000
  S   S163      1.0  0.283114763199291  0.3300513966081737  0.14378182722633148  1.0000
  S   S164      1.0  0.27560127238340393  0.3422230245907393  0.3092258685264175  1.0000
  Fe  Fe83      1.0  0.30448185298485814  0.3601125650042112  0.10644381721195774  1.0000
  S   S165      1.0  0.3399311206127645  0.3563115229603425  0.05765909188719953  1.0000
  Fe  Fe84      1.0  0.25036381252086304  0.349005122730379  0.10625227782174651  1.0000
  S   S166      1.0  0.2224565243743428  0.3267726520619687  0.06235883532118836  1.0000
  S   S167      1.0  0.30166958342656225  0.38275366091649016  0.184771516445062  1.0000
  S   S168      1.0  0.24232932293937035  0.37093790662576565  0.1836100328226061  1.0000
  Fe  Fe85      1.0  0.3334973634108778  0.3822697474956481  0.6270670074482458  1.0000
  S   S169      1.0  0.36239351436451744  0.3843712428131765  0.6951632169975926  1.0000
  S   S170      1.0  0.33702982777163276  0.3983342956671289  0.5393049563065773  1.0000
  Fe  Fe86      1.0  0.30121539788255064  0.34984898594127734  0.6960989038741576  1.0000
  S   S171      1.0  0.32660310384593966  0.34902166547934504  0.771100675448918  1.0000
  S   S172      1.0  0.26521768848462274  0.33120089526255464  0.6876808390135972  1.0000
  Fe  Fe87      1.0  0.3301392467707722  0.3880583480616934  0.7547870732861328  1.0000
  S   S173      1.0  0.33163337344533717  0.41364029829141175  0.8275427957730394  1.0000
  Fe  Fe88      1.0  0.3568977532054457  0.34518488786488033  0.7063027590594021  1.0000
  S   S174      1.0  0.3855868036640331  0.3163455118767621  0.7207741726912901  1.0000
  S   S175      1.0  0.3016564716225619  0.38942190356706036  0.686037673574054  1.0000
  S   S176      1.0  0.3311124821137242  0.3425502632329641  0.632561187071695  1.0000
  Fe  Fe89      1.0  0.36449141207461144  0.22705917378233917  0.8107513188411947  1.0000
  S   S177      1.0  0.3351685250305094  0.2089664142656645  0.8613384883605046  1.0000
  S   S178      1.0  0.3876664379673806  0.2545737842517593  0.8530570566003572  1.0000
  Fe  Fe90      1.0  0.3535029346042868  0.19935721531535378  0.7032886187324084  1.0000
  S   S179      1.0  0.3233345444825382  0.17852955063390466  0.7444707814755515  1.0000
  S   S180      1.0  0.3646709654558732  0.1994949648726567  0.611484459331936  1.0000
  Fe  Fe91      1.0  0.3121000271785559  0.21367649193553162  0.7829114093052187  1.0000
  S   S181      1.0  0.2724168456407053  0.22623268486358802  0.7829470931020214  1.0000
  Fe  Fe92      1.0  0.3492131736659559  0.17568042939050946  0.8189952677680924  1.0000
  S   S182      1.0  0.36123460735704066  0.1441275748776467  0.8718489644477161  1.0000
  S   S183      1.0  0.3403776814925633  0.23463217874562073  0.7357645563862149  1.0000
  S   S184      1.0  0.3803256775774513  0.19346081753908717  0.7740083241770023  1.0000
  Fe  Fe93      1.0  0.26804989915246735  0.17158775445750452  0.39886199245184206  1.0000
  S   S185      1.0  0.2892087032321698  0.17043151559680536  0.3167176170121659  1.0000
  S   S186      1.0  0.2793600831067486  0.1508464081878356  0.4766705616475051  1.0000
  Fe  Fe94      1.0  0.22877267049277622  0.20544637241097993  0.3527733058983355  1.0000
  S   S187      1.0  0.24647807964779075  0.20729227968555083  0.2667653941282527  1.0000
  S   S188      1.0  0.19495755466229486  0.22718409644581633  0.37515256308733885  1.0000
  Fe  Fe95      1.0  0.2518542434029425  0.16784234886256386  0.27660542995747694  1.0000
  S   S189      1.0  0.24185128922608473  0.14455484040839084  0.20298178790934404  1.0000
  Fe  Fe96      1.0  0.28184041768983265  0.20981871403363617  0.31486480031723574  1.0000
  S   S190      1.0  0.31039401731263006  0.2353911346783493  0.28492933476600957  1.0000
  S   S191      1.0  0.23109862193298522  0.1657520000825898  0.3590791033429745  1.0000
  S   S192      1.0  0.2638080153778559  0.2113054668337381  0.40063129895304206  1.0000
  C   C1        1.0  0.3431503063514035  0.18424639300707102  0.5707326747927502  1.0000
  C   C2        1.0  0.3318454915041708  0.1640466768919294  0.5927925174755655  1.0000
  C   C3        1.0  0.3131771792497375  0.153026600583366  0.562027222953239  1.0000
  C   C4        1.0  0.3053618919390231  0.1625250167823448  0.509826290396353  1.0000
  C   C5        1.0  0.3171370350764266  0.1823495350852176  0.48699444284213284  1.0000
  C   C6        1.0  0.33620127760939156  0.19308368456417954  0.5172434934112188  1.0000
  H   H1        1.0  0.3375441031892276  0.1568402039859498  0.6334835466993671  1.0000
  H   H2        1.0  0.3043520820419259  0.13747138354710173  0.5793718694747831  1.0000
  H   H3        1.0  0.3114171014117581  0.1895521776918465  0.4462986741117375  1.0000
  H   H4        1.0  0.34501125373477526  0.20863381436296402  0.49989820018693193  1.0000
  C   C7        1.0  0.2672249252117818  0.3021178333532822  0.7144301011689069  1.0000
  C   C8        1.0  0.28892017726978136  0.293812966884171  0.7402447509237666  1.0000
  C   C9        1.0  0.2901942288948972  0.27080354848259086  0.7631707290084334  1.0000
  C   C10       1.0  0.2700676031596528  0.25575237202937584  0.7589418927978949  1.0000
  C   C11       1.0  0.24810274203740346  0.2642521862016517  0.7344476332143501  1.0000
  C   C12       1.0  0.24671581162753173  0.2873966855272395  0.7119221856589824  1.0000
  H   H5        1.0  0.3048064495075888  0.3050293765998689  0.7425343685594584  1.0000
  H   H6        1.0  0.3066814970297795  0.2648971031642658  0.7849800832197382  1.0000
  H   H7        1.0  0.23221239711983632  0.252944460677435  0.7326659971907091  1.0000
  H   H8        1.0  0.22975273210041777  0.2939142309221495  0.6927745154196184  1.0000
  C   C13       1.0  0.2874502606769533  0.3130512294318036  0.3088706637761466  1.0000
  C   C14       1.0  0.30624674104091276  0.30679873906123367  0.2706660929253008  1.0000
  C   C15       1.0  0.313772161501388  0.28295957796621074  0.2650025870543064  1.0000
  C   C16       1.0  0.30219334614941457  0.265252941413176  0.29672088243893546  1.0000
  C   C17       1.0  0.2837489515527026  0.2715733730229174  0.3359627163557893  1.0000
  C   C18       1.0  0.2766479900527934  0.2955337436793687  0.3427143258640932  1.0000
  H   H9        1.0  0.3149274939836908  0.32031861276401397  0.2450281962909368  1.0000
  H   H10       1.0  0.3281327880254001  0.2781444531725133  0.23485175454313398  1.0000
  H   H11       1.0  0.27480742134658226  0.25799432994215354  0.36065607009134715  1.0000
  H   H12       1.0  0.26198241794115923  0.3002077794039883  0.37202266620595564  1.0000
  C   C19       1.0  0.33727042182495814  0.372344640772348  0.9940301861154737  1.0000
  C   C20       1.0  0.3538981558278934  0.39039569148490355  0.9818220783533769  1.0000
  C   C21       1.0  0.35196825517421687  0.4032061475711585  0.9307501645565602  1.0000
  C   C22       1.0  0.3336907783587732  0.39767496510579065  0.8913765837951201  1.0000
  C   C23       1.0  0.3170624477150347  0.3795754290805949  0.9034515915631819  1.0000
  C   C24       1.0  0.31872775124705766  0.3670482474827639  0.9550808767316065  1.0000
  H   H13       1.0  0.3681381424514858  0.39462084978149614  0.01215279954410442  1.0000
  H   H14       1.0  0.3648574787609832  0.4171796340416527  0.9213986851346633  1.0000
  H   H15       1.0  0.30278502754177156  0.37545277373940483  0.8732035685623456  1.0000
  H   H16       1.0  0.30596024454842  0.35305231808786186  0.9645655841672192  1.0000
  C   C25       1.0  0.4659988011723856  0.3378270209056272  0.7378475081269624  1.0000
  C   C26       1.0  0.45910099356461836  0.31436109852819405  0.7483565354654402  1.0000
  C   C27       1.0  0.43437116463223074  0.30794256181137475  0.742533071666484  1.0000
  C   C28       1.0  0.4164321729406744  0.32496239709652724  0.726708625089961  1.0000
  C   C29       1.0  0.4233467673812426  0.34838665997768814  0.7161376471851707  1.0000
  C   C30       1.0  0.44811775243816243  0.354798188639209  0.7215699944956516  1.0000
  H   H17       1.0  0.4727743599274962  0.30116839796360234  0.7612878308606734  1.0000
  H   H18       1.0  0.4290505362065766  0.28989209829086904  0.7518354025650875  1.0000
  H   H19       1.0  0.4097276209078871  0.3615665828663945  0.7034315904944133  1.0000
  H   H20       1.0  0.45340828931423777  0.3729630460074912  0.7134011823246229  1.0000
  C   C31       1.0  0.46933746065626925  0.23997582690616034  0.8209052086335049  1.0000
  C   C32       1.0  0.46186646866684283  0.254561570766281  0.8660865848309143  1.0000
  C   C33       1.0  0.4367089122637753  0.25934692423667066  0.875362451915011  1.0000
  C   C34       1.0  0.41911399446343833  0.25012735967493793  0.8385343796823205  1.0000
  C   C35       1.0  0.4267143053415327  0.23612925948548744  0.7925004518082193  1.0000
  C   C36       1.0  0.4517548262257235  0.230675677562635  0.7842788651811794  1.0000
  H   H21       1.0  0.4754261640353118  0.26132621538575246  0.8952243178316142  1.0000
  H   H22       1.0  0.4308888226688987  0.269567929921287  0.9120069763687697  1.0000
  H   H23       1.0  0.4133392263567757  0.22944484831128792  0.7632939114584053  1.0000
  H   H24       1.0  0.4575796921246936  0.2193322599879225  0.7494724964190048  1.0000
  C   C37       1.0  0.14678457224172262  0.3446741040192383  0.13745451891013666  1.0000
  C   C38       1.0  0.15228916407702187  0.32176682624347214  0.11750421232102883  1.0000
  C   C39       1.0  0.17509059805274677  0.3166907737963317  0.09167416316000822  1.0000
  C   C40       1.0  0.19291344172040353  0.3342570837771216  0.08788818438173829  1.0000
  C   C41       1.0  0.18761219005120902  0.35713533614129256  0.10830670194994942  1.0000
  C   C42       1.0  0.16448804614409937  0.36238895770544466  0.13270341076826317  1.0000
  H   H25       1.0  0.13908809111467768  0.3078561080935761  0.12222857424086497  1.0000
  H   H26       1.0  0.17905128268387316  0.2989954327533545  0.07582320924367549  1.0000
  H   H27       1.0  0.20115075195482887  0.3709187307219666  0.10454121065107302  1.0000
  H   H28       1.0  0.1603267496051775  0.3801620588405315  0.14788587185233895  1.0000
  C   C43       1.0  0.13835816713764304  0.23043040301026482  0.23142831543853165  1.0000
  C   C44       1.0  0.13437258516999565  0.24316755920285765  0.28171490747338934  1.0000
  C   C45       1.0  0.15167740644899771  0.24186846284597077  0.3259078124935959  1.0000
  C   C46       1.0  0.17292910201304046  0.22755299464757398  0.32040365902056944  1.0000
  C   C47       1.0  0.17670415761890762  0.2143455319517955  0.2706803444609247  1.0000
  C   C48       1.0  0.15944883943907398  0.215800062579543  0.22625865486123733  1.0000
  H   H29       1.0  0.11767091653459719  0.2535610658884116  0.2873157364008965  1.0000
  H   H30       1.0  0.14848636303016077  0.25183993913895153  0.36459033289155063  1.0000
  H   H31       1.0  0.1927667338252762  0.20280727119565148  0.26655090896540135  1.0000
  H   H32       1.0  0.16248067047353318  0.20557772875043037  0.1878801437089588  1.0000
  C   C49       1.0  0.6326002988264856  0.34636637641567136  0.6231026827621383  1.0000
  C   C50       1.0  0.6347333829562876  0.32487607277970254  0.593579553304188  1.0000
  C   C51       1.0  0.625392070179501  0.30399488560980126  0.6177162802112849  1.0000
  C   C52       1.0  0.6138736258559968  0.30468820985527545  0.6711083212804606  1.0000
  C   C53       1.0  0.6131730489491365  0.32588989576585037  0.7019044904923352  1.0000
  C   C54       1.0  0.6224205409667879  0.3467254902227767  0.6778183328667406  1.0000
  H   H33       1.0  0.642581872503889  0.3245430783242213  0.5511843307973969  1.0000
  H   H34       1.0  0.6262496211766337  0.28752909745467187  0.5940262393564436  1.0000
  H   H35       1.0  0.6054191351566168  0.3263400706799723  0.744117987155657  1.0000
  H   H36       1.0  0.6212142453325058  0.3632960871850978  0.7010397702225755  1.0000
  C   C55       1.0  0.6298911107003557  0.2548080829755672  0.0033804526692842174  1.0000
  C   C56       1.0  0.6061697855580949  0.24817792544181333  0.9873973332066089  1.0000
  C   C57       1.0  0.5883130115766154  0.2655845723262683  0.9735761451133425  1.0000
  C   C58       1.0  0.594047083865528  0.2896830503379282  0.9764897447852178  1.0000
  C   C59       1.0  0.6176388416418251  0.29637580281734516  0.9933855633583688  1.0000
  C   C60       1.0  0.6356100564352215  0.27892627749821064  0.006270815254850071  1.0000
  H   H37       1.0  0.6016320930798502  0.22953404171280614  0.9851820881488256  1.0000
  H   H38       1.0  0.5700067980355177  0.26034841933508956  0.9611467114926087  1.0000
  H   H39       1.0  0.6221115593745509  0.3150376741562562  0.9952804617786885  1.0000
  H   H40       1.0  0.6537742951998516  0.2841802645858663  0.018692664599196274  1.0000
  C   C61       1.0  0.7196614085850455  0.31017583969932194  0.20597057311968467  1.0000
  C   C62       1.0  0.7133652102105374  0.3305516216703642  0.23729405141403723  1.0000
  C   C63       1.0  0.7071994428438715  0.3286803155559029  0.2951063512636125  1.0000
  C   C64       1.0  0.7073541174026738  0.3063990122790238  0.32176724377305044  1.0000
  C   C65       1.0  0.7140006466381827  0.2860590799098061  0.2906845962814799  1.0000
  C   C66       1.0  0.7202861645862046  0.2879563048670999  0.2329161022697165  1.0000
  H   H41       1.0  0.7128716568484051  0.34780316816461165  0.2166148483565944  1.0000
  H   H42       1.0  0.7018506696341101  0.34445203782417183  0.3186374871843952  1.0000
  H   H43       1.0  0.7143511965202536  0.26881879802844205  0.31137523363577574  1.0000
  H   H44       1.0  0.7256654721340643  0.2722310722265191  0.20937418180747985  1.0000
  C   C67       1.0  0.9693904503892323  0.24017721939261094  0.009819776766952781  1.0000
  C   C68       1.0  0.9786899592881914  0.2443106041798119  0.06439057709871343  1.0000
  C   C69       1.0  0.9974419973467493  0.26085181523347345  0.072263778207448  1.0000
  C   C70       1.0  0.006928040933971369  0.2731139235611361  0.025444102088171716  1.0000
  C   C71       1.0  0.9976471236901278  0.26891792201454023  0.9710239812744698  1.0000
  C   C72       1.0  0.9789973281781308  0.252380601041295  0.9631672495085672  1.0000
  H   H45       1.0  0.9712935171864316  0.23481621561941882  0.10056922817116165  1.0000
  H   H46       1.0  0.004433951411761283  0.2642052741185331  0.11443537007244353  1.0000
  H   H47       1.0  0.005062564745452525  0.27832671422400784  0.9347005798419197  1.0000
  H   H48       1.0  0.9723291352413652  0.24887625433366864  0.9208392392331222  1.0000
  C   C73       1.0  0.8317677458699146  0.2826229957372332  0.8835563284113934  1.0000
  C   C74       1.0  0.8229261877019083  0.26879175363834423  0.8389344083520237  1.0000
  C   C75       1.0  0.7975496353055966  0.26488438594325314  0.833943875139157  1.0000
  C   C76       1.0  0.7811555001441115  0.27374112587585037  0.8751903451284622  1.0000
  C   C77       1.0  0.7900079295439899  0.2876010598364502  0.9196831819472528  1.0000
  C   C78       1.0  0.8152413381147569  0.2924074855735414  0.9232570842062049  1.0000
  H   H49       1.0  0.8355723165250848  0.2612390731277423  0.808017243650633  1.0000
  H   H50       1.0  0.7907069954099766  0.25433529351992945  0.7992048319949699  1.0000
  H   H51       1.0  0.7773555064150406  0.2948202146320121  0.9511098622275986  1.0000
  H   H52       1.0  0.8219707167691777  0.30328201826782647  0.9575369331641633  1.0000
  C   C79       1.0  0.9588888872683601  0.33134587011223254  0.3170589419259089  1.0000
  C   C80       1.0  0.970508677654263  0.3227480817928292  0.2677090142297302  1.0000
  C   C81       1.0  0.994891071748224  0.3138761076344629  0.27008120837090976  1.0000
  C   C82       1.0  0.007632015188000496  0.31386404285620023  0.32173917187586487  1.0000
  C   C83       1.0  0.9962468698583562  0.3230640989651344  0.3705033208034011  1.0000
  C   C84       1.0  0.9718387178444718  0.3314866433924899  0.3683788250127119  1.0000
  H   H53       1.0  0.960543261371154  0.32266222706726355  0.22791376438023203  1.0000
  H   H54       1.0  0.0036581367859662706  0.3068207157762789  0.23217089362678708  1.0000
  H   H55       1.0  0.006317479549236671  0.32374417519439874  0.41001692501836345  1.0000
  H   H56       1.0  0.9630967318955883  0.3381711450536775  0.4065343908084968  1.0000
  C   C85       1.0  0.8204222630687573  0.32877292388319523  0.5237557827033156  1.0000
  C   C86       1.0  0.8253935182705363  0.35297946041715167  0.5286503166739184  1.0000
  C   C87       1.0  0.8063939984669558  0.3693237140574739  0.5404686747022444  1.0000
  C   C88       1.0  0.7821414195557456  0.36166960121159886  0.5451997858900259  1.0000
  C   C89       1.0  0.7769369201870286  0.33749047536393223  0.5397517814173979  1.0000
  C   C90       1.0  0.7962250830012496  0.3209335755361772  0.5302014642270125  1.0000
  H   H57       1.0  0.8439145429889477  0.35929659588531804  0.5239808823528701  1.0000
  H   H58       1.0  0.8105093032879228  0.38799627390349845  0.5449792985141582  1.0000
  H   H59       1.0  0.7581386567906868  0.33155291901026507  0.5439463189390612  1.0000
  H   H60       1.0  0.7923406497538187  0.3021771032667066  0.526972971535296  1.0000
  C   C91       1.0  0.95572200939046  0.30573891889596166  0.624293742405552  1.0000
  C   C92       1.0  0.9339420172212611  0.29313336341203095  0.6170544858452909  1.0000
  C   C93       1.0  0.9306839412028421  0.2714634158853875  0.6458454536113064  1.0000
  C   C94       1.0  0.9491743524079733  0.26249472248083816  0.6819175104925415  1.0000
  C   C95       1.0  0.9707811709070163  0.2752720168128709  0.6895359566352723  1.0000
  C   C96       1.0  0.9739817515065092  0.2969357635842394  0.6610508900438424  1.0000
  H   H61       1.0  0.9199942476924003  0.2996869678936825  0.5879132528445344  1.0000
  H   H62       1.0  0.9143631306738724  0.26115052691857316  0.6384593100125484  1.0000
  H   H63       1.0  0.9852467716447683  0.26818210586940616  0.7167102374356671  1.0000
  H   H64       1.0  0.9908553366497913  0.3066336668033855  0.6666241788701407  1.0000
  C   C97       1.0  0.8448730165479951  0.46397547054825167  0.3858479384700857  1.0000
  C   C98       1.0  0.8582281486215457  0.4434507177579784  0.3702133136884322  1.0000
  C   C99       1.0  0.8690033515018023  0.42873473633473586  0.4120254632985208  1.0000
  C   C100      1.0  0.8665543649985082  0.43467182097919654  0.46948546679556047  1.0000
  C   C101      1.0  0.8531224700278909  0.455126620133001  0.4850899994092622  1.0000
  C   C102      1.0  0.8421940000205349  0.469672377716705  0.443360556597363  1.0000
  H   H65       1.0  0.8603670773789279  0.4389713010766967  0.3256987849839384  1.0000
  H   H66       1.0  0.8795568672826639  0.4130523959287186  0.39974192647022627  1.0000
  H   H67       1.0  0.8511429644561702  0.4596246664545414  0.5296186951147558  1.0000
  H   H68       1.0  0.8319580589321401  0.4853779578350444  0.45576542680195553  1.0000
  C   C103      1.0  0.7110114602823903  0.4923840375688187  0.41233950401668745  1.0000
  C   C104      1.0  0.7179826693393276  0.4849455901485398  0.35782363685662455  1.0000
  C   C105      1.0  0.71027401119028  0.46293179495251935  0.3371828939351844  1.0000
  C   C106      1.0  0.6958439434165286  0.4481560081864963  0.37128477369595747  1.0000
  C   C107      1.0  0.6881669541332995  0.45593217527583085  0.42506834838241203  1.0000
  C   C108      1.0  0.6956139336489211  0.47811033345696363  0.44541264522685636  1.0000
  H   H69       1.0  0.7293089411115063  0.4960881698370086  0.3314438798025116  1.0000
  H   H70       1.0  0.716044300845108  0.4570567219841012  0.2953304309490659  1.0000
  H   H71       1.0  0.6766576486488394  0.4447677340271769  0.4511746280551392  1.0000
  H   H72       1.0  0.6899985702037368  0.4838517217067347  0.48746168993324107  1.0000
  C   C109      1.0  0.7544972188847805  0.125494773236989  0.031857617463265875  1.0000
  C   C110      1.0  0.7782075394506512  0.13289920083384135  0.04541783787532783  1.0000
  C   C111      1.0  0.7817369644145723  0.15544109113023657  0.06876193615399528  1.0000
  C   C112      1.0  0.7618041007396977  0.1713562338959816  0.07496241327478836  1.0000
  C   C113      1.0  0.7382074570864446  0.16458518435843036  0.05818754983648078  1.0000
  C   C114      1.0  0.7345092647882258  0.1415097688224324  0.037379359081780805  1.0000
  H   H73       1.0  0.7939232451423094  0.12129565337757967  0.037899076080389005  1.0000
  H   H74       1.0  0.8000575174114269  0.160649598359291  0.08123191175754685  1.0000
  H   H75       1.0  0.7227403949992696  0.17690506661996036  0.06249345375133619  1.0000
  H   H76       1.0  0.7161388939817812  0.13598385334389126  0.026205454858738264  1.0000
  C   C115      1.0  0.8685681834997845  0.1146527984595453  0.9741288894082987  1.0000
  C   C116      1.0  0.8515202009037258  0.1121425156958397  0.9301593115491109  1.0000
  C   C117      1.0  0.8495384864194673  0.1293530552001448  0.8870693508189653  1.0000
  C   C118      1.0  0.8644431667786173  0.1493766650785602  0.8879251258344915  1.0000
  C   C119      1.0  0.8816646989826085  0.1519716271195795  0.9315868733747554  1.0000
  C   C120      1.0  0.8838364539463929  0.13451916392234675  0.9744131204341318  1.0000
  H   H77       1.0  0.8401323625584343  0.09675881286779495  0.9285872282238569  1.0000
  H   H78       1.0  0.8362666571492894  0.12723220472454522  0.8532877709597332  1.0000
  H   H79       1.0  0.8932766514312314  0.16739627478943864  0.9325204026559107  1.0000
  H   H80       1.0  0.8971748966262366  0.13653096722392885  0.008108571813040477  1.0000
  C   C121      1.0  0.797011619289145  0.6131804646283128  0.2625356916344164  1.0000
  C   C122      1.0  0.7930128099611551  0.6330102374610288  0.22747535454228476  1.0000
  C   C123      1.0  0.8071823002628953  0.6533949280918749  0.23419361958007492  1.0000
  C   C124      1.0  0.8251576231684312  0.6541132739993271  0.27664489340955933  1.0000
  C   C125      1.0  0.8286278590500076  0.6345853882894199  0.31297830304649804  1.0000
  C   C126      1.0  0.8144910242542776  0.6141663794071877  0.3060722394024795  1.0000
  H   H81       1.0  0.7789811460786935  0.6325361955545397  0.19502473741574541  1.0000
  H   H82       1.0  0.8042936030709659  0.6684435722610987  0.2062017502058736  1.0000
  H   H83       1.0  0.8424129960214916  0.6351527344474666  0.3461190865388004  1.0000
  H   H84       1.0  0.8173549997345934  0.5991708488721073  0.33410247444718716  1.0000
  C   C127      1.0  0.7665552298562227  0.6287079005369559  0.5762154221423771  1.0000
  C   C128      1.0  0.7916458961974076  0.6335788757709763  0.5824535716859567  1.0000
  C   C129      1.0  0.8096040407365429  0.6168843219832313  0.5642246242163428  1.0000
  C   C130      1.0  0.8023952709861037  0.595250603339323  0.5406696497627579  1.0000
  C   C131      1.0  0.7774092288983807  0.5897452152005042  0.5387392712046315  1.0000
  C   C132      1.0  0.7595811202898696  0.6064944339653494  0.556131695880651  1.0000
  H   H85       1.0  0.7972812827489937  0.6504111673131147  0.5994392070686897  1.0000
  H   H86       1.0  0.8289721683599885  0.6210460223224251  0.5667342470852769  1.0000
  H   H87       1.0  0.7718265956661526  0.5725370281444639  0.5237378862548286  1.0000
  H   H88       1.0  0.7403312271305176  0.6022945757313432  0.5540471904024984  1.0000
  C   C133      1.0  0.8056145774819207  0.6960158119657962  0.868082153152974  1.0000
  C   C134      1.0  0.7811079037795682  0.6908271534951163  0.8810766054815299  1.0000
  C   C135      1.0  0.7726553333956316  0.6921554778301062  0.9373832500198663  1.0000
  C   C136      1.0  0.788489188108059  0.6993121808414374  0.9806648413624249  1.0000
  C   C137      1.0  0.8129542519251122  0.7047618486337082  0.9677847359109807  1.0000
  C   C138      1.0  0.8216149701201143  0.7027069374263556  0.9116459387590917  1.0000
  H   H89       1.0  0.7686357779892904  0.6857246728668784  0.8477917813078483  1.0000
  H   H90       1.0  0.7536963718759261  0.6879726045697322  0.9471944323665845  1.0000
  H   H91       1.0  0.8252692876839243  0.7104267640853641  0.001009891069644997  1.0000
  H   H92       1.0  0.8405407590182427  0.7069674947961108  0.9016625990072712  1.0000
  C   C139      1.0  0.8587334491028491  0.9857337261287975  0.29319655526218785  1.0000
  C   C140      1.0  0.8646543221986692  0.00285413832167003  0.2522268656563408  1.0000
  C   C141      1.0  0.8461096204845932  0.01772484175340483  0.2293216775720038  1.0000
  C   C142      1.0  0.8217469048876114  0.015816853205132153  0.24827839382204842  1.0000
  C   C143      1.0  0.8159314373856434  0.9990261446109541  0.29010420164362405  1.0000
  C   C144      1.0  0.8343738016235472  0.9838408782207363  0.31218184853596703  1.0000
  H   H93       1.0  0.8834845490344367  0.004423731204877601  0.2375564268688354  1.0000
  H   H94       1.0  0.8507753173653612  0.03097265364959423  0.19782115545214526  1.0000
  H   H95       1.0  0.7971289503742377  0.9976211544513973  0.30511047464270424  1.0000
  H   H96       1.0  0.8298255602547739  0.9709488936119339  0.34465167635700633  1.0000
  C   C145      1.0  0.8176466662606479  0.856755856218109  0.1745684753629996  1.0000
  C   C146      1.0  0.800956468081042  0.8559097389464969  0.22000062922514055  1.0000
  C   C147      1.0  0.792572555202075  0.8339839210541999  0.2398774997969048  1.0000
  C   C148      1.0  0.801367660677438  0.8128696740623013  0.21525984228657857  1.0000
  C   C149      1.0  0.8176041596377499  0.8137885580595251  0.1689064269007054  1.0000
  C   C150      1.0  0.8253813090982612  0.8357651620977977  0.14781835827307277  1.0000
  H   H97       1.0  0.7952143865817938  0.8721284080196705  0.2412915603261385  1.0000
  H   H98       1.0  0.779967963461017  0.8333604833423374  0.27558241865171745  1.0000
  H   H99       1.0  0.8248821951203165  0.797619290754354  0.1505185905733974  1.0000
  H   H100      1.0  0.8385631859860625  0.836382572948908  0.11324228692190841  1.0000
  C   C151      1.0  0.7451760361407894  0.9518175385958841  0.9176667013302261  1.0000
  C   C152      1.0  0.743323442474561  0.974735964315571  0.9406418781566716  1.0000
  C   C153      1.0  0.7646496735966631  0.9865465937822391  0.9576269565295371  1.0000
  C   C154      1.0  0.7877551781888479  0.975296631632994  0.9521356873362758  1.0000
  C   C155      1.0  0.7894445183591625  0.9520141532278878  0.9316085955600508  1.0000
  C   C156      1.0  0.7681858313460761  0.9402803091639556  0.9145365736113318  1.0000
  H   H101      1.0  0.7255133405670806  0.9837066889838754  0.943098496437253  1.0000
  H   H102      1.0  0.7632245628375242  0.004628581215403882  0.972809792786409  1.0000
  H   H103      1.0  0.8072752766543451  0.9431660146602242  0.927786324666931  1.0000
  H   H104      1.0  0.769597642259836  0.922263854883138  0.898976944097398  1.0000
  C   C157      1.0  0.7777251599541641  0.8217549958899695  0.7138643966142033  1.0000
  C   C158      1.0  0.7658746982753097  0.8256087654516476  0.6617065196142013  1.0000
  C   C159      1.0  0.7680584213669611  0.8086896218850846  0.6181416843549196  1.0000
  C   C160      1.0  0.7820883982550326  0.7878778287741287  0.6269030249471489  1.0000
  C   C161      1.0  0.7952496009361654  0.7848024314910557  0.6775056405809652  1.0000
  C   C162      1.0  0.7931260843875412  0.8017606356123892  0.7207949949673823  1.0000
  H   H105      1.0  0.7538634091965489  0.8408087377404597  0.655918066496556  1.0000
  H   H106      1.0  0.757701583305834  0.811035016369527  0.5792095586647624  1.0000
  H   H107      1.0  0.8065361022723039  0.7689388225600675  0.6839568242149693  1.0000
  H   H108      1.0  0.8030004978811001  0.7991172142372448  0.7601854631948526  1.0000
  C   C163      1.0  0.7927888954284635  0.9296652836045676  0.5892772215087001  1.0000
  C   C164      1.0  0.7978687237625784  0.9401974691431332  0.5365486057428058  1.0000
  C   C165      1.0  0.8027049208656618  0.9258323460818505  0.4888905543302825  1.0000
  C   C166      1.0  0.8017333106273496  0.9010442362078068  0.49402491872164833  1.0000
  C   C167      1.0  0.7981041701159741  0.8906136771875449  0.5473367857074974  1.0000
  C   C168      1.0  0.7942710969767187  0.9049509080593763  0.5951171852228835  1.0000
  H   H109      1.0  0.796961199637197  0.9593514356511869  0.5319648415647193  1.0000
  H   H110      1.0  0.8056706410041194  0.9339298788071809  0.4476409518256756  1.0000
  H   H111      1.0  0.7979069593573139  0.8714532099207274  0.5517302497733095  1.0000
  H   H112      1.0  0.792033968433208  0.8968289206418475  0.6364612907960847  1.0000
  C   C169      1.0  0.9605037781201637  0.7481986857832335  0.17020539917270122  1.0000
  C   C170      1.0  0.9398507811956784  0.7371320627898554  0.1936868590960793  1.0000
  C   C171      1.0  0.9171658726340312  0.737902200052035  0.1649511955190525  1.0000
  C   C172      1.0  0.9152086345217152  0.749500101449131  0.11234980379264373  1.0000
  C   C173      1.0  0.9360333365587563  0.7599972298016027  0.08824543081735459  1.0000
  C   C174      1.0  0.9585952814325597  0.7594911428956568  0.11727378974781791  1.0000
  H   H113      1.0  0.9412803305524958  0.7282720014894416  0.23451416521979018  1.0000
  H   H114      1.0  0.9012436937325133  0.7295297504656946  0.18351555840529107  1.0000
  H   H115      1.0  0.934680175553669  0.7687237637940926  0.04722026368791599  1.0000
  H   H116      1.0  0.9745812257683182  0.76756025047092  0.09824553018436677  1.0000
  C   C175      1.0  0.9812116447584366  0.8592213956548209  0.2647562121656895  1.0000
  C   C176      1.0  0.9653808927337351  0.8785509599319851  0.27587821211633085  1.0000
  C   C177      1.0  0.9432150453608652  0.8752142066538479  0.3054058441489496  1.0000
  C   C178      1.0  0.937080805094813  0.8525436071387461  0.3247597351479428  1.0000
  C   C179      1.0  0.9531191118257307  0.8332300955035943  0.3146761958195335  1.0000
  C   C180      1.0  0.9749855146676608  0.836502459264472  0.2838344331851707  1.0000
  H   H117      1.0  0.9702934086062331  0.8959666346933419  0.2609660510578894  1.0000
  H   H118      1.0  0.9310236894093926  0.8901618136913723  0.3139669094295526  1.0000
  H   H119      1.0  0.9484861357216617  0.8156668932710884  0.3298501320388349  1.0000
  H   H120      1.0  0.9870341057512738  0.8214605772069541  0.2752548176018022  1.0000
  C   C181      1.0  0.6105643785082521  0.8655229474170733  0.7494574294791543  1.0000
  C   C182      1.0  0.6116487604214772  0.8604853747544211  0.6912677392428426  1.0000
  C   C183      1.0  0.6310817782802353  0.8691542899317758  0.6580047137340033  1.0000
  C   C184      1.0  0.6496618278818304  0.882468050945055  0.6831960277293146  1.0000
  C   C185      1.0  0.6482780164910306  0.8879303157886993  0.7410860448414478  1.0000
  C   C186      1.0  0.6286619960444512  0.8795812237200626  0.7740940364872823  1.0000
  H   H121      1.0  0.5975348359556455  0.849943367944896  0.671876290859842  1.0000
  H   H122      1.0  0.632087747421687  0.8649192147539975  0.6131974430623539  1.0000
  H   H123      1.0  0.6623778493605293  0.8984982283577606  0.7606038350168841  1.0000
  H   H124      1.0  0.6277800562184657  0.8836716608168607  0.8190073217564522  1.0000
  C   C187      1.0  0.6247389890962319  0.7393300151749256  0.7071252199933845  1.0000
  C   C188      1.0  0.629649240258544  0.7474571765789639  0.7620028277968308  1.0000
  C   C189      1.0  0.653283664263529  0.7442903349653139  0.7853334968308536  1.0000
  C   C190      1.0  0.6722228385605535  0.7334292517611054  0.7534915854562536  1.0000
  C   C191      1.0  0.6672455485517568  0.7249453106777145  0.6989862314989603  1.0000
  C   C192      1.0  0.6434898988909842  0.7277668351006445  0.6760095966616115  1.0000
  H   H125      1.0  0.61518251436724  0.7558860488857565  0.7867447465876629  1.0000
  H   H126      1.0  0.6569631213618521  0.750535385224166  0.8278792390238572  1.0000
  H   H127      1.0  0.6816890859641643  0.716352407202312  0.6743588093780517  1.0000
  H   H128      1.0  0.6397067557602162  0.7212748185072629  0.6337110343752597  1.0000
  C   C193      1.0  0.11304641572619158  0.8533614757078363  0.9552636952138553  1.0000
  C   C194      1.0  0.10852099198715423  0.8336731048895435  0.920918599222865  1.0000
  C   C195      1.0  0.0875961700093705  0.81988625603556  0.9304905196090197  1.0000
  C   C196      1.0  0.07125484270388689  0.8256338269544027  0.9747753329016909  1.0000
  C   C197      1.0  0.0751734393605646  0.8459636346945676  0.007431463775290803  1.0000
  C   C198      1.0  0.0960386022178241  0.8598250986987857  0.9976438039905616  1.0000
  H   H129      1.0  0.12098769634629414  0.8291351223892699  0.8866825503467729  1.0000
  H   H130      1.0  0.08441993991390828  0.8043679899829446  0.904625084437706  1.0000
  H   H131      1.0  0.0621866052865885  0.8509388900714189  0.040445246927354184  1.0000
  H   H132      1.0  0.09925016383130858  0.875234397485637  0.023844527145011174  1.0000
  C   C199      1.0  0.10455862872545359  0.7410602094132975  0.3941191605485253  1.0000
  C   C200      1.0  0.08489825431368925  0.756530625130132  0.3807638721815548  1.0000
  C   C201      1.0  0.0851689663707311  0.769581066517976  0.3298552391369911  1.0000
  C   C202      1.0  0.10500375261736515  0.7671014462345167  0.29204777142779104  1.0000
  C   C203      1.0  0.12511147636553302  0.7523413013337444  0.3065346720892004  1.0000
  C   C204      1.0  0.12491036505482073  0.7393430794566713  0.3575918351945303  1.0000
  H   H133      1.0  0.06927516203373929  0.7581747364823945  0.40932254911761184  1.0000
  H   H134      1.0  0.07001253753124626  0.7815180729478173  0.3199278763645383  1.0000
  H   H135      1.0  0.14062753352099486  0.7505110219741417  0.27770326618685015  1.0000
  H   H136      1.0  0.14027373761394996  0.7275930307833436  0.3678789868468604  1.0000
  C   C205      1.0  0.18703460907246763  0.7411671090081712  0.6723637604830414  1.0000
  C   C206      1.0  0.19157473087923674  0.7575641289510934  0.6288695100422527  1.0000
  C   C207      1.0  0.1932502380247914  0.7818435336722049  0.6414394647456302  1.0000
  C   C208      1.0  0.19099439256286505  0.7896402127442222  0.6977357867412564  1.0000
  C   C209      1.0  0.18679174735864715  0.7731863877510547  0.7412431587749279  1.0000
  C   C210      1.0  0.1846821503041866  0.7489976142681162  0.7285185650426823  1.0000
  H   H137      1.0  0.19437108511658133  0.7515371896294114  0.5857978481547562  1.0000
  H   H138      1.0  0.1969116720774924  0.7945075439228985  0.60777819716678  1.0000
  H   H139      1.0  0.18531629888184414  0.7790045402416821  0.7848194100928544  1.0000
  H   H140      1.0  0.1813559364374705  0.7363096850799813  0.7623380692096382  1.0000
  C   C211      1.0  0.43249996120786316  0.8086395997003518  0.8861410700041865  1.0000
  C   C212      1.0  0.4464704679578068  0.8097805037928483  0.8360321790345779  1.0000
  C   C213      1.0  0.4708954252642166  0.8010654777888849  0.8350904639797869  1.0000
  C   C214      1.0  0.4813906631379737  0.7910460960556807  0.8842013437060761  1.0000
  C   C215      1.0  0.4675458512366869  0.7902808939777792  0.9345152287155818  1.0000
  C   C216      1.0  0.44318730406602463  0.7991494450033713  0.935562240756214  1.0000
  H   H141      1.0  0.43828758796056877  0.8170832352350011  0.7976555230524836  1.0000
  H   H142      1.0  0.4812647007036966  0.8015279123139835  0.7958219019173567  1.0000
  H   H143      1.0  0.4755495227608043  0.7826043359227125  0.9726958551387033  1.0000
  H   H144      1.0  0.43264151950460317  0.7983807083593815  0.9745999033338911  1.0000
  C   C217      1.0  0.28913442747292784  0.761089249875219  0.03007730905760919  1.0000
  C   C218      1.0  0.28176650035234235  0.7814570433571402  0.9997214144985902  1.0000
  C   C219      1.0  0.2569849134304391  0.7845906470257966  0.9834829469597187  1.0000
  C   C220      1.0  0.23954471199934207  0.7674191342388852  0.9976609355835265  1.0000
  C   C221      1.0  0.24695297631590923  0.7471985159086301  0.028348641367536898  1.0000
  C   C222      1.0  0.27168338814518644  0.7440050081117491  0.044309730081195875  1.0000
  H   H145      1.0  0.2951650406786112  0.7946114694051044  0.9881374812171101  1.0000
  H   H146      1.0  0.2514204136766267  0.8003588736380108  0.9602985534967375  1.0000
  H   H147      1.0  0.23360544521834076  0.7338582110880376  0.039420161016340494  1.0000
  H   H148      1.0  0.2772960790409627  0.7281933627795314  0.06767321801866122  1.0000
  C   C223      1.0  0.44584136519750844  0.7468275949867159  0.6083691940309756  1.0000
  C   C224      1.0  0.47146588320356453  0.7434285794359995  0.607643992623257  1.0000
  C   C225      1.0  0.48700366008678564  0.7629971161847398  0.6121711826656413  1.0000
  C   C226      1.0  0.47692455862998495  0.7859431533311252  0.6181579102562211  1.0000
  C   C227      1.0  0.45130086544495507  0.7892594113962904  0.620235891406746  1.0000
  C   C228      1.0  0.4357814683566095  0.7697231824030916  0.6153202028931208  1.0000
  H   H149      1.0  0.4793150868582467  0.7257346442798259  0.6021736733684104  1.0000
  H   H150      1.0  0.5067946270045531  0.7603707768845757  0.6094891155172605  1.0000
  H   H151      1.0  0.4434314189506791  0.8069470584463609  0.6256162257348005  1.0000
  H   H152      1.0  0.4160394554762644  0.7723916261947688  0.617554826864067  1.0000
  C   C229      1.0  0.28246572466255304  0.738744594583405  0.5190864299369141  1.0000
  C   C230      1.0  0.2897460963583021  0.7251650254117854  0.47191997381082784  1.0000
  C   C231      1.0  0.2723623457994456  0.7185616349983356  0.4312394038478618  1.0000
  C   C232      1.0  0.24743980328289236  0.7244706219479854  0.43921013647851886  1.0000
  C   C233      1.0  0.24000076504747175  0.7371770269901309  0.48756393174647306  1.0000
  C   C234      1.0  0.2575126294393815  0.7445905605976519  0.527102189978568  1.0000
  H   H153      1.0  0.3087334165356316  0.719512942829354  0.46694602354824244  1.0000
  H   H154      1.0  0.27817405181247223  0.7084979455224938  0.3943160731618325  1.0000
  H   H155      1.0  0.22081069995291314  0.7418805576515114  0.4937529664976049  1.0000
  H   H156      1.0  0.25166849593603985  0.7551265615235943  0.5632122100128357  1.0000
  C   C235      1.0  0.39826222078071694  0.7974307030806838  0.33661576303331353  1.0000
  C   C236      1.0  0.4122656775715793  0.7772130219034458  0.321997781091668  1.0000
  C   C237      1.0  0.4208490633064826  0.7743194220417113  0.26616472538138425  1.0000
  C   C238      1.0  0.41453529629110025  0.7911096023570647  0.224379967038284  1.0000
  C   C239      1.0  0.40034410663831826  0.8112321677216171  0.2387940641918607  1.0000
  C   C240      1.0  0.39258205266284724  0.8145934615253274  0.29519003919859427  1.0000
  H   H157      1.0  0.417033643086853  0.7640829535958787  0.3538594372944509  1.0000
  H   H158      1.0  0.4319013902480618  0.7587883506425774  0.25497803301891814  1.0000
  H   H159      1.0  0.3956157341081341  0.824342074222292  0.20661087851443113  1.0000
  H   H160      1.0  0.3819018866621339  0.8303373558658809  0.306541068328208  1.0000
  C   C241      1.0  0.3406068233437313  0.898282662877878  0.07158619206355343  1.0000
  C   C242      1.0  0.3649158272943219  0.9050817319160342  0.06094437612149983  1.0000
  C   C243      1.0  0.36972010473908806  0.9285016566627272  0.04333871267785372  1.0000
  C   C244      1.0  0.3502109878519541  0.9449527543409872  0.036037077174727594  1.0000
  C   C245      1.0  0.32603036574160515  0.9378360263638414  0.04547608925226343  1.0000
  C   C246      1.0  0.3212476808227306  0.9147356525629422  0.06400700830511141  1.0000
  H   H161      1.0  0.37997382263674573  0.8924521019507193  0.06728958388494544  1.0000
  H   H162      1.0  0.3885105244318968  0.9339479286966359  0.03607447485979809  1.0000
  H   H163      1.0  0.31087365661767735  0.950068494236727  0.03815540316631916  1.0000
  H   H164      1.0  0.3023861329290219  0.9096087418700898  0.07159111419023323  1.0000
  C   C247      1.0  0.2428366638895218  0.9402639975792983  0.002475043623064721  1.0000
  C   C248      1.0  0.22650150167836322  0.921350462870482  0.007335337377450957  1.0000
  C   C249      1.0  0.23223848216499954  0.8994015580443633  0.9818372157740649  1.0000
  C   C250      1.0  0.25460438682170317  0.8961877768905175  0.9527617944259397  1.0000
  C   C251      1.0  0.2713974832950152  0.9146891660664124  0.9504309731680916  1.0000
  C   C252      1.0  0.26544442053889594  0.9367265821773246  0.9748566666456465  1.0000
  H   H165      1.0  0.2091407900096351  0.9238801050358155  0.029548481238767188  1.0000
  H   H166      1.0  0.21921129863593555  0.8851743663260897  0.9841766226978522  1.0000
  H   H167      1.0  0.2886192110947828  0.9123126256648276  0.9279038348545018  1.0000
  H   H168      1.0  0.27813793173069423  0.9511155286617391  0.9710130521801262  1.0000
  C   C253      1.0  0.30484494950176927  0.08537406463658177  0.8891873968812959  1.0000
  C   C254      1.0  0.3283801458563803  0.08249417336741348  0.9126366316230856  1.0000
  C   C255      1.0  0.3458587617227234  0.10037118572866853  0.905777084287629  1.0000
  C   C256      1.0  0.3398401226104017  0.12116910008652433  0.8754593309640919  1.0000
  C   C257      1.0  0.31645398743710706  0.12390449305060533  0.8511859759837446  1.0000
  C   C258      1.0  0.29900157697170293  0.10598504915592352  0.8579521918474197  1.0000
  H   H169      1.0  0.3331769619778601  0.06645909126605254  0.9357506002595911  1.0000
  H   H170      1.0  0.3639858948612953  0.09813871827982615  0.9243563706901303  1.0000
  H   H171      1.0  0.31165350695436966  0.1399350853119108  0.8279319961532653  1.0000
  H   H172      1.0  0.28081542558635547  0.10823010684152301  0.8396262644054864  1.0000
  C   C259      1.0  0.2808514484100275  0.07229771715991515  0.1944580119477998  1.0000
  C   C260      1.0  0.28808138499784797  0.08882930881341662  0.2352774338105088  1.0000
  C   C261      1.0  0.27524146254409093  0.11063662161976956  0.2406703035605587  1.0000
  C   C262      1.0  0.25516748394255584  0.1158919649989189  0.20524140682677752  1.0000
  C   C263      1.0  0.24712619029256908  0.09877337086995287  0.16675818623072383  1.0000
  C   C264      1.0  0.25996957827438444  0.07703662773121583  0.16134487284033738  1.0000
  H   H173      1.0  0.30405767573029013  0.08513207742717087  0.26154786512062866  1.0000
  H   H174      1.0  0.28138662952244275  0.1236133847146319  0.2709489795690878  1.0000
  H   H175      1.0  0.23126808033509783  0.10254553203090547  0.14015367038661006  1.0000
  H   H176      1.0  0.2537680518792619  0.06405720880923488  0.13125361274449027  1.0000
  C   C265      1.0  0.34837487675698475  0.6130027620344951  0.4335953383358406  1.0000
  C   C266      1.0  0.34315956829289307  0.6190310267691315  0.37705394302883116  1.0000
  C   C267      1.0  0.3475906968526311  0.6421228156731474  0.3569655022025704  1.0000
  C   C268      1.0  0.3573447261495888  0.6592341135897286  0.3932869448283275  1.0000
  C   C269      1.0  0.3630874846925179  0.6530134999239068  0.4494017340991613  1.0000
  C   C270      1.0  0.3585744865378914  0.6299733699707958  0.4695410572342779  1.0000
  H   H177      1.0  0.33575435588448893  0.6059525987021829  0.34868295919937503  1.0000
  H   H178      1.0  0.34340124667885696  0.646731979121776  0.313276477590828  1.0000
  H   H179      1.0  0.3713877517347083  0.6657927298279956  0.47713735049344275  1.0000
  H   H180      1.0  0.36294939278999516  0.6253562110454618  0.5131241466688337  1.0000
  C   C271      1.0  0.22036032382138473  0.5886092553254046  0.35236852566522314  1.0000
  C   C272      1.0  0.21681475386340496  0.5759081460540394  0.40293354272284426  1.0000
  C   C273      1.0  0.20101331094513897  0.5851106464536149  0.44519173857612504  1.0000
  C   C274      1.0  0.1892821522225445  0.607299922805021  0.43755117621262096  1.0000
  C   C275      1.0  0.19282985614585302  0.6199340452280506  0.3869135412058933  1.0000
  C   C276      1.0  0.20804645103152944  0.6104235804296017  0.34401404922648016  1.0000
  H   H181      1.0  0.22596200216441556  0.5588546807205577  0.40918135458454175  1.0000
  H   H182      1.0  0.19819508737962127  0.5752427865057472  0.4842179268820818  1.0000
  H   H183      1.0  0.18362925690117218  0.6369040139567214  0.3804438957142144  1.0000
  H   H184      1.0  0.2106771234970794  0.6202253440613725  0.3048097316470044  1.0000
  C   C277      1.0  0.3148096464305495  0.48603880413635764  0.20736074020492662  1.0000
  C   C278      1.0  0.32168269438572705  0.46298460154203314  0.1907499665700555  1.0000
  C   C279      1.0  0.3039173304107859  0.44761115536594365  0.16941571480091178  1.0000
  C   C280      1.0  0.2793919824635261  0.4554341471859945  0.1637182105070556  1.0000
  C   C281      1.0  0.2729359416441546  0.4789919033644355  0.17666658697524487  1.0000
  C   C282      1.0  0.2905943659732004  0.4942331327077114  0.19887914048427313  1.0000
  H   H185      1.0  0.34048410732511164  0.45668849928817934  0.1969186686023748  1.0000
  H   H186      1.0  0.3093163330117499  0.42976659912652265  0.15775904105676358  1.0000
  H   H187      1.0  0.25408919237671046  0.48529962413423305  0.17132544493807034  1.0000
  H   H188      1.0  0.2854131441705032  0.5123063875213408  0.2100137835240651  1.0000
  C   C283      1.0  0.2928863226246829  0.466703500845207  0.5027405608127888  1.0000
  C   C284      1.0  0.28625536932441753  0.45202607962251506  0.548243842640316  1.0000
  C   C285      1.0  0.2999462556510251  0.43123056842314056  0.5601824742297046  1.0000
  C   C286      1.0  0.32016750765296476  0.4247930336157495  0.5262287343980456  1.0000
  C   C287      1.0  0.3266208372909257  0.4393177428154162  0.4801157830217828  1.0000
  C   C288      1.0  0.3131780834829441  0.46039989323916625  0.46875208037586225  1.0000
  H   H189      1.0  0.2705257231492895  0.4568105565188262  0.574599249534745  1.0000
  H   H190      1.0  0.29456538320334386  0.4201064985594899  0.595259241349579  1.0000
  H   H191      1.0  0.3422702210750467  0.434417503621924  0.45362979371626694  1.0000
  H   H192      1.0  0.3186007523107027  0.471721606096126  0.4338131689971606  1.0000
  N   N1        1.0  0.2651274922111465  0.8419667848297597  0.10994867833554145  1.0000
  C   C289      1.0  0.24674903541798102  0.8343012191521525  0.0680329501676773  1.0000
  C   C290      1.0  0.2552628415330254  0.8386438576240222  0.16807029554423747  1.0000
  C   C291      1.0  0.27039962695641834  0.8673869765586225  0.10034506473169924  1.0000
  C   C292      1.0  0.2880045793236243  0.8275305539417983  0.10306560600028258  1.0000
  H   H193      1.0  0.2536580758646503  0.8367947301356264  0.023701785631011996  1.0000
  H   H194      1.0  0.2292527029672251  0.8447924904874026  0.07226627775911743  1.0000
  H   H195      1.0  0.2422906361496321  0.8151621600570553  0.07344935082392956  1.0000
  H   H196      1.0  0.26879583585064976  0.8442402607299038  0.200731472135242  1.0000
  H   H197      1.0  0.2380052369965377  0.8493276150761805  0.17476137762178245  1.0000
  H   H198      1.0  0.2509805024699113  0.8196427899936086  0.17646068636063195  1.0000
  H   H199      1.0  0.28366060718777175  0.8740923391099191  0.13228207600675712  1.0000
  H   H200      1.0  0.2533841904775518  0.8787255706040759  0.10295036949080161  1.0000
  H   H201      1.0  0.2786742223095497  0.8703497350939438  0.05744885373745223  1.0000
  H   H202      1.0  0.3021322729804401  0.8324389794097122  0.134973427251722  1.0000
  H   H203      1.0  0.2963353271117379  0.8302227920609282  0.06022183374516055  1.0000
  H   H204      1.0  0.28455113863057613  0.808161957426518  0.10805214625875204  1.0000
  N   N2        1.0  0.7839009446450989  0.6768504945582545  0.43305108715347534  1.0000
  C   C293      1.0  0.7963576203865816  0.6902114945354421  0.3873092041882545  1.0000
  C   C294      1.0  0.7915457870116498  0.6861073242777419  0.48891265762984076  1.0000
  C   C295      1.0  0.7907876139902831  0.6513326097736785  0.42887154909343606  1.0000
  C   C296      1.0  0.7568756363170421  0.6797542868807386  0.4272299997361751  1.0000
  H   H205      1.0  0.8168017601603865  0.6884525050576765  0.39078871909182256  1.0000
  H   H206      1.0  0.7915175805906103  0.7095201656223612  0.3886680143901363  1.0000
  H   H207      1.0  0.7912643393715278  0.6835785238581078  0.34440913116244654  1.0000
  H   H208      1.0  0.8116918204358443  0.6833505931711014  0.49603087815679353  1.0000
  H   H209      1.0  0.7873231167049992  0.7054996188836993  0.4929767958967054  1.0000
  H   H210      1.0  0.7816995638186972  0.6770373561292389  0.5241547799102434  1.0000
  H   H211      1.0  0.7815761321649732  0.640648839680351  0.46242779987983135  1.0000
  H   H212      1.0  0.8110484902818066  0.6483948404618393  0.43370569930381725  1.0000
  H   H213      1.0  0.7854967372084536  0.6438507910886186  0.3869519060641685  1.0000
  H   H214      1.0  0.747007772364031  0.6698948746316318  0.4614423229848012  1.0000
  H   H215      1.0  0.750447061747229  0.6729937521834815  0.38547977754698703  1.0000
  H   H216      1.0  0.7510366892851223  0.6987987408859402  0.4304742182148266  1.0000
  N   N3        1.0  0.06190848679325933  0.37518070110139473  0.2946918894412527  1.0000
  C   C297      1.0  0.06574869067125566  0.3935612200389152  0.338375814448981  1.0000
  C   C298      1.0  0.03557660298296894  0.3687677957973766  0.2937853304804856  1.0000
  C   C299      1.0  0.07713307568607464  0.3538605325229322  0.3084778060787909  1.0000
  C   C300      1.0  0.06922559401189066  0.3845182729232092  0.23831079864314753  1.0000
  H   H217      1.0  0.08544259361273876  0.39878164530408594  0.34016855775621824  1.0000
  H   H218      1.0  0.0604361008231149  0.38703637765203147  0.38143585865624396  1.0000
  H   H219      1.0  0.05448893726248616  0.4099029248602219  0.32937777454387585  1.0000
  H   H220      1.0  0.03200644702086142  0.3547678871427051  0.26166575179098794  1.0000
  H   H221      1.0  0.029500870060710227  0.3615708346004709  0.3356485564535669  1.0000
  H   H222      1.0  0.02343905451885031  0.384341481741404  0.2833250652110867  1.0000
  H   H223      1.0  0.07445280935761622  0.33961083080397403  0.2767432257071433  1.0000
  H   H224      1.0  0.0721419887079342  0.34620965234157014  0.35065840848352636  1.0000
  H   H225      1.0  0.09717752253042478  0.3578242139077817  0.30844151420163457  1.0000
  H   H226      1.0  0.06663403251138456  0.37110975189243767  0.2042624644549641  1.0000
  H   H227      1.0  0.08911371098259302  0.38916774810208327  0.2371851283425349  1.0000
  H   H228      1.0  0.05822291130003476  0.40066182371710685  0.226379679077502  1.0000
  N   N4        1.0  0.29804582719823547  0.45519431654322245  0.9888165364994305  1.0000
  C   C301      1.0  0.3074430797134037  0.4556688289756388  0.9297210875404568  1.0000
  C   C302      1.0  0.30963440080256993  0.4742771946010995  0.02196013680596476  1.0000
  C   C303      1.0  0.30411163478579273  0.4318437723214864  0.01484391786433692  1.0000
  C   C304      1.0  0.27097697614088456  0.4589333379958709  0.9886800396687555  1.0000
  H   H229      1.0  0.2987861024669845  0.44172539929038945  0.9032482987107012  1.0000
  H   H230      1.0  0.32774304514602814  0.45228336908850575  0.9280799650365149  1.0000
  H   H231      1.0  0.30361332762984494  0.47312115806770116  0.9087933404394372  1.0000
  H   H232      1.0  0.3027368807329046  0.4746242801034254  0.06657127104093519  1.0000
  H   H233      1.0  0.3300443581896528  0.4718313065274805  0.02382764238129531  1.0000
  H   H234      1.0  0.3056059332259201  0.4921420361456023  0.0032708288746312597  1.0000
  H   H235      1.0  0.29574845861063764  0.4301268559177975  0.05779987371629325  1.0000
  H   H236      1.0  0.32436677430181643  0.4291294184656125  0.01965485846256887  1.0000
  H   H237      1.0  0.2971590347521338  0.41694328113748  0.9887145546751551  1.0000
  H   H238      1.0  0.2633468850916337  0.4591027566388188  0.032773336112689844  1.0000
  H   H239      1.0  0.261593761676741  0.44451289485650997  0.9652825654648909  1.0000
  H   H240      1.0  0.26564776736842866  0.476198526386915  0.9684663346664827  1.0000
  N   N5        1.0  0.7915109422648953  0.9957413857451042  0.776400170240674  1.0000
  C   C305      1.0  0.7944975154010051  0.014547770800552584  0.8195121065774594  1.0000
  C   C306      1.0  0.8100935701094438  0.9765609833148502  0.7858698565543347  1.0000
  C   C307      1.0  0.794940165109217  0.00602647067106954  0.7190108125922345  1.0000
  C   C308      1.0  0.7665268240282134  0.9857963221036795  0.7811375803827999  1.0000
  H   H241      1.0  0.7810692043216373  0.029520170611195926  0.8130908026941617  1.0000
  H   H242      1.0  0.813404394218134  0.021941430073192377  0.8185043510961519  1.0000
  H   H243      1.0  0.7914799025353577  0.007573762288268781  0.8631906910719671  1.0000
  H   H244      1.0  0.8082605786147429  0.9686588423964692  0.8291050267861519  1.0000
  H   H245      1.0  0.8080612866210413  0.9619024586040418  0.7544846883285448  1.0000
  H   H246      1.0  0.8292034020555895  0.9832775998697255  0.7820593521419525  1.0000
  H   H247      1.0  0.813556395008285  0.013819288131337478  0.7141810686417193  1.0000
  H   H248      1.0  0.7809766179874682  0.020292131535750046  0.7100396917854582  1.0000
  H   H249      1.0  0.7931294626205446  0.9922683178308843  0.6854334198326815  1.0000
  H   H250      1.0  0.7519221370388114  0.9997098406049653  0.7749352978427739  1.0000
  H   H251      1.0  0.7634809033158102  0.9776138885913801  0.82368020843546  1.0000
  H   H252      1.0  0.7636123279788517  0.9716536283294037  0.7489553793838813  1.0000
  N   N6        1.0  0.9029851307747192  0.820681211988206  0.175202514617402  1.0000
  C   C309      1.0  0.8845972747524006  0.8356590956222247  0.20563808399226885  1.0000
  C   C310      1.0  0.9101604474198778  0.800134443875484  0.2113701642459312  1.0000
  C   C311      1.0  0.9250473939503059  0.8348127497296944  0.16218405382029977  1.0000
  C   C312      1.0  0.8921309012154742  0.8121181405710464  0.12163594604497437  1.0000
  H   H253      1.0  0.8782150540935323  0.8510180764832123  0.17912542212729435  1.0000
  H   H254      1.0  0.892382649514325  0.8429795960651656  0.24541019125216065  1.0000
  H   H255      1.0  0.868055148657783  0.8253141645296355  0.21768446353415094  1.0000
  H   H256      1.0  0.9251556698467911  0.7892877908446003  0.19126338707700224  1.0000
  H   H257      1.0  0.9170097997130481  0.8059773947211897  0.25355104354773245  1.0000
  H   H258      1.0  0.8943597043848532  0.7881394341168351  0.2189499514079792  1.0000
  H   H259      1.0  0.9394157590079251  0.8239254671761413  0.13968567337161344  1.0000
  H   H260      1.0  0.9336444154497519  0.8416240822045729  0.20165662397315967  1.0000
  H   H261      1.0  0.9203802853954108  0.8504176857803958  0.13477342796505945  1.0000
  H   H262      1.0  0.875862271188849  0.8007610670771089  0.12985236291607882  1.0000
  H   H263      1.0  0.9056583005855133  0.8011885791250584  0.09689807402087959  1.0000
  H   H264      1.0  0.885957452762498  0.8271302884763537  0.09386531670043753  1.0000
  N   N7        1.0  0.4121936055497995  0.2576657416234159  0.6155278505617507  1.0000
  C   C313      1.0  0.4367915948436048  0.2517355393887723  0.6392225955952346  1.0000
  C   C314      1.0  0.3932002140289945  0.25440125970000615  0.6599823652021873  1.0000
  C   C315      1.0  0.40716346001254167  0.24179966807234238  0.5670703615408187  1.0000
  C   C316      1.0  0.4115739454827602  0.2826686611317731  0.5958582296880925  1.0000
  H   H265      1.0  0.4516103287007587  0.2539928772748231  0.6069142249670672  1.0000
  H   H266      1.0  0.4377773105416494  0.2329875003792327  0.6546182510195993  1.0000
  H   H267      1.0  0.4412026184507123  0.2632956594928789  0.6760178279465342  1.0000
  H   H268      1.0  0.3966681137038739  0.2656327179560583  0.6979851909051735  1.0000
  H   H269      1.0  0.37444904512036353  0.25926023702916323  0.6440862215832682  1.0000
  H   H270      1.0  0.3925793126677515  0.23554791820964516  0.674332093334121  1.0000
  H   H271      1.0  0.40866127922321366  0.2227296474595173  0.5798753121095549  1.0000
  H   H272      1.0  0.4203630323514769  0.24453400420782365  0.5314403385275012  1.0000
  H   H273      1.0  0.38812799393030617  0.24471695091749862  0.5503699717186795  1.0000
  H   H274      1.0  0.4157799346006099  0.29503339055978023  0.6311443348993979  1.0000
  H   H275      1.0  0.39301865200388103  0.2879161568641175  0.5793776847621817  1.0000
  H   H276      1.0  0.42532331063670137  0.28575976648795126  0.5615392554217845  1.0000
  N   N8        1.0  0.954171736076965  0.9569942528360915  0.2791035732871825  1.0000
  C   C317      1.0  0.9805622121590666  0.9539619147968414  0.2641295080854089  1.0000
  C   C318      1.0  0.9493771201688292  0.9454108321156384  0.3345604115683478  1.0000
  C   C319      1.0  0.9388628860082907  0.946024457759138  0.23471488698271492  1.0000
  C   C320      1.0  0.9478779653475616  0.9826533501884368  0.2830042568118192  1.0000
  H   H277      1.0  0.9926432275541314  0.9619472306891876  0.2968577702037245  1.0000
  H   H278      1.0  0.9848550067375378  0.9625155917041144  0.22254791686533792  1.0000
  H   H279      1.0  0.986012558202644  0.9348207164895339  0.2606275018412789  1.0000
  H   H280      1.0  0.9294840497229465  0.946738103624154  0.34641377521718963  1.0000
  H   H281      1.0  0.9545865572589776  0.9261843782363302  0.333827288651412  1.0000
  H   H282      1.0  0.9600043950351164  0.9537410970238042  0.3693901344421118  1.0000
  H   H283      1.0  0.9188430993162621  0.9483374271224864  0.24426671443494197  1.0000
  H   H284      1.0  0.9426785936269106  0.9265817971425869  0.23122809395055732  1.0000
  H   H285      1.0  0.9422159947433559  0.9541301858536528  0.19218951598673018  1.0000
  H   H286      1.0  0.9281464996854796  0.9855964538869315  0.2948282527590367  1.0000
  H   H287      1.0  0.9509166240789899  0.9919389918785854  0.2417335655792896  1.0000
  H   H288      1.0  0.9591246617670397  0.9915836703246279  0.3158692239808629  1.0000
  N   N9        1.0  0.9877863549193995  0.2663458566370609  0.48407408417259346  1.0000
  C   C321      1.0  0.9965447349570133  0.2896878495481311  0.5034050164357421  1.0000
  C   C322      1.0  0.006763935331772775  0.24785410812164352  0.4965380416177192  1.0000
  C   C323      1.0  0.9831498694414329  0.26729948561779393  0.4221403978176228  1.0000
  C   C324      1.0  0.9647107983284791  0.2606025333781204  0.5143704226107984  1.0000
  H   H289      1.0  0.9992571843768687  0.29000796478125207  0.5503381609663003  1.0000
  H   H290      1.0  0.9829857158444046  0.3041886924012002  0.49303072763352496  1.0000
  H   H291      1.0  0.014386824263684872  0.29426533009718214  0.4829742983478201  1.0000
  H   H292      1.0  0.0006565639854769767  0.22994646923843545  0.48306481098911486  1.0000
  H   H293      1.0  0.02439062916007262  0.25157142395268  0.4739750956396959  1.0000
  H   H294      1.0  0.01079780657773699  0.2468884451456811  0.5429683036821502  1.0000
  H   H295      1.0  0.9765703136604804  0.24998685672109178  0.40590432973493745  1.0000
  H   H296      1.0  0.00019996824156631732  0.27175254907683116  0.39800453068612407  1.0000
  H   H297      1.0  0.968873194451235  0.2811048948819468  0.4113581093256505  1.0000
  H   H298      1.0  0.9571170589291762  0.24340244639105474  0.4999830221343787  1.0000
  H   H299      1.0  0.9502633099881422  0.27465772853683623  0.507542012601971  1.0000
  H   H300      1.0  0.9677706951431806  0.25911516504658577  0.5611067786981228  1.0000
  N   N10       1.0  0.9025344205946725  0.28157080434277204  0.054491112420266274  1.0000
  C   C325      1.0  0.9080364018488943  0.2596051492972304  0.08723965718012217  1.0000
  C   C326      1.0  0.8761577606735914  0.2822410687088545  0.03860429500242679  1.0000
  C   C327      1.0  0.9178246867215926  0.281780296125791  0.002383849026889706  1.0000
  C   C328      1.0  0.9081896859201315  0.30257168292013675  0.08942921536320059  1.0000
  H   H301      1.0  0.9037262168867188  0.24340873169837451  0.06217415661858183  1.0000
  H   H302      1.0  0.8971821976673869  0.2589110483794423  0.1274133307048253  1.0000
  H   H303      1.0  0.9279522939853054  0.2581837293466322  0.09841203715886615  1.0000
  H   H304      1.0  0.8713265653703937  0.2986293598376918  0.013916828300850392  1.0000
  H   H305      1.0  0.8714801653129955  0.26686938419656525  0.011121541838554405  1.0000
  H   H306      1.0  0.8639605226495645  0.2817421045409656  0.07670304773905223  1.0000
  H   H307      1.0  0.9130953339192929  0.2972259564214214  0.9743999575840995  1.0000
  H   H308      1.0  0.9150646555825399  0.26539243873162055  0.9771857026197677  1.0000
  H   H309      1.0  0.9378539788638315  0.28249133496184453  0.012432787766813558  1.0000
  H   H310      1.0  0.9279647121015909  0.30246788879921277  0.10228409849505304  1.0000
  H   H311      1.0  0.8968926067235155  0.30310588841937747  0.1290529793483577  1.0000
  H   H312      1.0  0.90449357908558  0.31941761964874826  0.06559230422346962  1.0000
  N   N11       1.0  0.35032946468507403  0.7394226621876264  0.2425023655136651  1.0000
  C   C329      1.0  0.34980820013940467  0.7649158823024601  0.25767248829107253  1.0000
  C   C330      1.0  0.3307536266724421  0.7270048729809362  0.27416421531999624  1.0000
  C   C331      1.0  0.3746615704249219  0.7288716132186218  0.25728972915763426  1.0000
  C   C332      1.0  0.34610712244492337  0.7369284501575063  0.18074992572628648  1.0000
  H   H313      1.0  0.3641936120641717  0.7747701772080328  0.23395229641525095  1.0000
  H   H314      1.0  0.3533186344944144  0.7675251242097989  0.30389692271877355  1.0000
  H   H315      1.0  0.3316717472468142  0.7734507960767221  0.24754466314747456  1.0000
  H   H316      1.0  0.3310060896370611  0.7076028130562377  0.2647036688453234  1.0000
  H   H317      1.0  0.33322066799216976  0.7287117509550888  0.32089677560104163  1.0000
  H   H318      1.0  0.3120935332830043  0.7342726601600932  0.26355625989161147  1.0000
  H   H319      1.0  0.3753725180551101  0.709383129737235  0.2489434249003302  1.0000
  H   H320      1.0  0.3788562384464129  0.7312481163210977  0.3032672575010157  1.0000
  H   H321      1.0  0.3897294684619022  0.7371540293638894  0.23228122975966284  1.0000
  H   H322      1.0  0.34672833235780537  0.7179460344768005  0.1674906124103194  1.0000
  H   H323      1.0  0.36025178774629213  0.7464490015194115  0.15528304450848676  1.0000
  H   H324      1.0  0.3277508687914208  0.7444071733277939  0.16825305080643763  1.0000
  N   N12       1.0  0.6428646190738242  0.3001688802511261  0.173852870884335  1.0000
  C   C333      1.0  0.6449679534118291  0.30681488271250906  0.23442236410950867  1.0000
  C   C334      1.0  0.6166559354006461  0.2965714171018163  0.15962822326919968  1.0000
  C   C335      1.0  0.6570731671025821  0.27789307979503486  0.16362073500077678  1.0000
  C   C336      1.0  0.6528546664637142  0.31939175957110993  0.13788824357732188  1.0000
  H   H325      1.0  0.6645390299098486  0.30941217257052145  0.24652106057057277  1.0000
  H   H326      1.0  0.6376385692246378  0.29277827750139906  0.26304162117347407  1.0000
  H   H327      1.0  0.6347814424499928  0.3237319253449476  0.24377899992213137  1.0000
  H   H328      1.0  0.6144245696551708  0.2913162493720777  0.11434448621826299  1.0000
  H   H329      1.0  0.6085468921821319  0.2822345206079279  0.18613781152219278  1.0000
  H   H330      1.0  0.6054055094793808  0.3130997465724576  0.16628342333996393  1.0000
  H   H331      1.0  0.6770117057577499  0.28025297150332823  0.1724083795599236  1.0000
  H   H332      1.0  0.6554926330329253  0.2719069813466742  0.11874298265035521  1.0000
  H   H333      1.0  0.6505666386481657  0.2631212889495391  0.1911476090813098  1.0000
  H   H334      1.0  0.6726120395987373  0.3225917717116372  0.14761771738342033  1.0000
  H   H335      1.0  0.6426041421070106  0.33650052990913526  0.14445733183552645  1.0000
  H   H336      1.0  0.6517904446162638  0.3149630420182298  0.09192414765839674  1.0000
  N   N13       1.0  0.8838136697715165  0.529835458776054  0.47398841077362164  1.0000
  C   C337      1.0  0.9067956741502041  0.5253424436222853  0.5062637927954087  1.0000
  C   C338      1.0  0.8822514001156031  0.5551794748588441  0.45704579530576933  1.0000
  C   C339      1.0  0.8623934956409663  0.5240981048192094  0.5102423544857608  1.0000
  C   C340      1.0  0.8837988375752143  0.5147232271720965  0.4226050504907104  1.0000
  H   H337      1.0  0.9084554218731534  0.5063627180601254  0.5198930518864592  1.0000
  H   H338      1.0  0.907379541240743  0.5364808592677675  0.5453029721036603  1.0000
  H   H339      1.0  0.9233726929010263  0.5294134189482016  0.48018103967708403  1.0000
  H   H340      1.0  0.8982229442376698  0.5603445971407129  0.4301919796316421  1.0000
  H   H341      1.0  0.8651818301686509  0.5591308578943067  0.4323435427432322  1.0000
  H   H342      1.0  0.8815918009030014  0.5670802159210775  0.49484982316624204  1.0000
  H   H343      1.0  0.8447668316477867  0.5270483025413741  0.48698831761945194  1.0000
  H   H344      1.0  0.861432243963265  0.5356137003006657  0.5486923675679465  1.0000
  H   H345      1.0  0.8631125406504533  0.5052375382167363  0.524764947727947  1.0000
  H   H346      1.0  0.899176952244269  0.5191399825647729  0.39319749655268993  1.0000
  H   H347      1.0  0.8662856995515017  0.5169033007569872  0.39827281005005166  1.0000
  H   H348      1.0  0.8858355775919816  0.4955055209321207  0.43370250925609927  1.0000
  N   N14       1.0  0.45061323962896105  0.7330554915967196  0.7885570420169126  1.0000
  C   C341      1.0  0.4357404368989628  0.7472683859719808  0.829352303164876  1.0000
  C   C342      1.0  0.4341388860196122  0.7224388184687554  0.7460688368495073  1.0000
  C   C343      1.0  0.46421159629195335  0.7139937313271569  0.8194000658324503  1.0000
  C   C344      1.0  0.4684429428415408  0.7485146926012753  0.7593481941999756  1.0000
  H   H349      1.0  0.42149035728486434  0.7363667680749457  0.8507139256920254  1.0000
  H   H350      1.0  0.42606236813911685  0.7624899257324013  0.8079592754272888  1.0000
  H   H351      1.0  0.44747796119503896  0.7547498591563512  0.8632993526064424  1.0000
  H   H352      1.0  0.44474092723585856  0.7117445896315173  0.7141772237040954  1.0000
  H   H353      1.0  0.4204751094523809  0.7105181110368435  0.7662233320340546  1.0000
  H   H354      1.0  0.42363664955368757  0.7364114089904902  0.7220513608801613  1.0000
  H   H355      1.0  0.4756084677713158  0.7029350209635107  0.7897352268146779  1.0000
  H   H356      1.0  0.451402422377712  0.7019943387403167  0.8422522013107855  1.0000
  H   H357      1.0  0.4769620842282395  0.7215483836347064  0.8515131286808467  1.0000
  H   H358      1.0  0.4794472864143803  0.738469524777211  0.7270724505347512  1.0000
  H   H359      1.0  0.4817722124965546  0.7561010665579397  0.7898783042481397  1.0000
  H   H360      1.0  0.45902530333941755  0.7636120335395358  0.736924245841826  1.0000
  N   N15       1.0  0.8221190495995774  0.8104206162717739  0.4352842253141436  1.0000
  C   C345      1.0  0.8441144398223185  0.8253441202480383  0.4417997967773556  1.0000
  C   C346      1.0  0.829688434929373  0.7850257711330906  0.43584993078384665  1.0000
  C   C347      1.0  0.8098722475433083  0.8161756133715343  0.38067499330260235  1.0000
  C   C348      1.0  0.8047803532210122  0.8151137408381445  0.4828213798603371  1.0000
  H   H361      1.0  0.8390054616657419  0.8446282236888135  0.4420023422733324  1.0000
  H   H362      1.0  0.8575643010424704  0.8224880583216401  0.4064027351661071  1.0000
  H   H363      1.0  0.8539238445288976  0.8214159388914339  0.48237176393839304  1.0000
  H   H364      1.0  0.813475852037111  0.7733263424445637  0.4310721995126801  1.0000
  H   H365      1.0  0.8427461599677465  0.7808430139005383  0.4004354887409847  1.0000
  H   H366      1.0  0.838900418460945  0.7800351594881657  0.47658434162594954  1.0000
  H   H367      1.0  0.8037824879734772  0.8351907349650538  0.37880817397365213  1.0000
  H   H368      1.0  0.793317409306745  0.8051208714319421  0.37384915556165704  1.0000
  H   H369      1.0  0.8224317734075919  0.8129320157339849  0.34379011092451167  1.0000
  H   H370      1.0  0.7880650968741121  0.8039807742959039  0.4796432676317494  1.0000
  H   H371      1.0  0.7985906399247196  0.834111111032842  0.48350721744126535  1.0000
  H   H372      1.0  0.8134226935354336  0.8110054094797335  0.5247528872808616  1.0000
  N   N16       1.0  0.656168166067494  0.2760306349141929  0.8288233356048584  1.0000
  C   C349      1.0  0.6654717198315114  0.29697964509802544  0.8592710493910697  1.0000
  C   C350      1.0  0.629017190536363  0.2753691305068486  0.8342328136194517  1.0000
  C   C351      1.0  0.6672084111612122  0.2541332717545981  0.8538186035155495  1.0000
  C   C352      1.0  0.6629562919980106  0.2776729016850318  0.7679708764526081  1.0000
  H   H373      1.0  0.6859633745192031  0.29789191233225154  0.8563967694990261  1.0000
  H   H374      1.0  0.6604808083509106  0.29637472963460215  0.9051988609128307  1.0000
  H   H375      1.0  0.65759762940086  0.31384057479115723  0.8413891695231344  1.0000
  H   H376      1.0  0.6231503458353788  0.27371317975405374  0.8793845058443649  1.0000
  H   H377      1.0  0.6200549645606424  0.2917683021394964  0.816577371334179  1.0000
  H   H378      1.0  0.6213098461580396  0.2600235572809617  0.8108018735218594  1.0000
  H   H379      1.0  0.6622711316749462  0.2522862767569891  0.8996677687526986  1.0000
  H   H380      1.0  0.6877423563140936  0.25411757152647413  0.8509402137264578  1.0000
  H   H381      1.0  0.6606404879038387  0.23795208353811775  0.8318274718296379  1.0000
  H   H382      1.0  0.6833382655462404  0.2777387786901237  0.7620191540916649  1.0000
  H   H383      1.0  0.6552443834015182  0.29422557072330013  0.7481554710628852  1.0000
  H   H384      1.0  0.6555640086776761  0.2625046816178705  0.7433233318633902  1.0000
  N   N17       1.0  0.7764966650684527  0.7717652765880638  0.8896042701380948  1.0000
  C   C353      1.0  0.7688816865685941  0.7593969301570582  0.9422965508874577  1.0000
  C   C354      1.0  0.7547017506089883  0.7760958447192611  0.8530515582395677  1.0000
  C   C355      1.0  0.7947146591501612  0.7567344995225834  0.8588456937174441  1.0000
  C   C356      1.0  0.7877251408898164  0.794716836536939  0.9040924470652685  1.0000
  H   H385      1.0  0.7849598186362486  0.7552858537363394  0.9703437646471756  1.0000
  H   H386      1.0  0.7600271271003038  0.7421536851084565  0.9326509270630361  1.0000
  H   H387      1.0  0.7554189521791158  0.7702775018706268  0.9673486533090606  1.0000
  H   H388      1.0  0.7406433093435326  0.7875269088247895  0.8747674731197779  1.0000
  H   H389      1.0  0.759894900604951  0.7851853350841163  0.8126611094116286  1.0000
  H   H390      1.0  0.7456944710508921  0.7591024082308605  0.8415128555639724  1.0000
  H   H391      1.0  0.8012507950028144  0.7654032555528948  0.8191701396096968  1.0000
  H   H392      1.0  0.7865876027059813  0.7395661744535622  0.8462415292905965  1.0000
  H   H393      1.0  0.811206781760276  0.7525531212403894  0.8854205014726885  1.0000
  H   H394      1.0  0.804411526341634  0.7920584384481489  0.9310620006430715  1.0000
  H   H395      1.0  0.7745544555831543  0.8064756541792892  0.9277413748722421  1.0000
  H   H396      1.0  0.7933927936942705  0.8046137440992489  0.8651239233426437  1.0000
  N   N18       1.0  0.1152125151227537  0.7638516390733336  0.5986365768509808  1.0000
  C   C357      1.0  0.12165229060083037  0.7384569292116756  0.6076572160201166  1.0000
  C   C358      1.0  0.12978954047929964  0.7733021315377335  0.550609873724834  1.0000
  C   C359      1.0  0.12075791101654239  0.7773290064416064  0.6508118523667724  1.0000
  C   C360      1.0  0.08865111480981068  0.7662503777583105  0.5853400626513372  1.0000
  H   H397      1.0  0.11163814801304897  0.7308613186668883  0.6446845610377732  1.0000
  H   H398      1.0  0.14168865157814123  0.7358223082355223  0.6156986588180312  1.0000
  H   H399      1.0  0.11706916527749403  0.7276140890011118  0.5698232717958027  1.0000
  H   H400      1.0  0.12524307155343994  0.7923707722769929  0.5422388215323595  1.0000
  H   H401      1.0  0.14993328180378926  0.7719141857586307  0.5592296963864785  1.0000
  H   H402      1.0  0.12624104311180004  0.7633528492079272  0.5106310569789524  1.0000
  H   H403      1.0  0.14060071077929817  0.7754688536110471  0.6623786512442948  1.0000
  H   H404      1.0  0.10988781424691292  0.7708656806899618  0.6878332884084148  1.0000
  H   H405      1.0  0.11661033175412526  0.7966673533764178  0.6453606596000043  1.0000
  H   H406      1.0  0.08404816450845348  0.7563320753357917  0.5458582596522616  1.0000
  H   H407      1.0  0.08306111829003254  0.785188330671187  0.5784488572645856  1.0000
  H   H408      1.0  0.0770675088260586  0.7590398538959726  0.6203310260317791  1.0000
  N   N19       1.0  0.7728098947188856  0.4381405484463651  0.4429677069819379  1.0000
  C   C361      1.0  0.7737254990845984  0.45942594425847205  0.4060659203159172  1.0000
  C   C362      1.0  0.7475729460237883  0.42877257402307656  0.4422883542134539  1.0000
  C   C363      1.0  0.7794160765891515  0.44463582934359064  0.5017957634510439  1.0000
  C   C364      1.0  0.7903570844608021  0.4197692213225386  0.4217684904761886  1.0000
  H   H409      1.0  0.7925238706525679  0.4667852516131075  0.404577021500647  1.0000
  H   H410      1.0  0.7610083003766451  0.473739354363431  0.42169458388003694  1.0000
  H   H411      1.0  0.7683683548806847  0.4553261417133183  0.3615216522672736  1.0000
  H   H412      1.0  0.746172070316619  0.41240539622591016  0.4683430570569887  1.0000
  H   H413      1.0  0.7340720584422727  0.4418633157991671  0.4601360813194266  1.0000
  H   H414      1.0  0.7415793984638837  0.4243297766087657  0.3983977833087284  1.0000
  H   H415      1.0  0.7786465867882514  0.4289572745681077  0.5308453480348335  1.0000
  H   H416      1.0  0.7665272596560739  0.4584826532000448  0.519105045984939  1.0000
  H   H417      1.0  0.7984255128578549  0.4516636227740341  0.503952353732088  1.0000
  H   H418      1.0  0.8096702790096677  0.4261714320433384  0.4225311006284619  1.0000
  H   H419      1.0  0.7860967760985371  0.4147495749595919  0.3771877998364313  1.0000
  H   H420      1.0  0.7897416978209336  0.4033798131580034  0.44849925259034196  1.0000
  N   N20       1.0  0.798360815578167  0.19798578808974643  0.9215653972395902  1.0000
  C   C365      1.0  0.7965699979161168  0.2205195803464018  0.9535523264519689  1.0000
  C   C366      1.0  0.7741268981799632  0.18637877368278247  0.9217869457882502  1.0000
  C   C367      1.0  0.816955267986153  0.18213324474242845  0.9486434420624346  1.0000
  C   C368      1.0  0.8057362366622457  0.2028962079080904  0.8621821805397968  1.0000
  H   H421      1.0  0.79219670472509  0.21730914837234286  0.999227353280183  1.0000
  H   H422      1.0  0.7816820204226377  0.2322779757263452  0.9364178808378469  1.0000
  H   H423      1.0  0.8141147378171237  0.23046626406175935  0.9514394064373868  1.0000
  H   H424      1.0  0.7749982692947007  0.16891430052162987  0.8996261610277948  1.0000
  H   H425      1.0  0.7676307520974428  0.1830542601318052  0.9657946969931219  1.0000
  H   H426      1.0  0.7597975720540866  0.19768309115879223  0.9004735583203989  1.0000
  H   H427      1.0  0.8175993272078981  0.1643662137106515  0.9280692471869642  1.0000
  H   H428      1.0  0.8128590424716049  0.17925884134240835  0.9944100177524965  1.0000
  H   H429      1.0  0.8357999378948819  0.18958939088875262  0.945576233693463  1.0000
  H   H430      1.0  0.7918096519616742  0.21437653914343233  0.8401983145487015  1.0000
  H   H431      1.0  0.8078799776738147  0.18613131567100616  0.8374001722489937  1.0000
  H   H432      1.0  0.8237825050599068  0.21202043041354643  0.8601243945221908  1.0000
  N   N21       1.0  0.13799041998520065  0.7891007713509355  0.06201017495363637  1.0000
  C   C369      1.0  0.14899399555407775  0.7728962809862683  0.10504843722039038  1.0000
  C   C370      1.0  0.13448830252984612  0.7760969033738201  0.008183875175778565  1.0000
  C   C371      1.0  0.15454390867615608  0.8092743163465387  0.051917725199524874  1.0000
  C   C372      1.0  0.11391358094925932  0.7982058609308396  0.082883085252508  1.0000
  H   H433      1.0  0.13679290105456096  0.7576024087950265  0.11400421498524535  1.0000
  H   H434      1.0  0.15168732877926533  0.7821562825485153  0.14633303915892815  1.0000
  H   H435      1.0  0.16723236206268563  0.7656356365523981  0.09067064566029415  1.0000
  H   H436      1.0  0.152365948943705  0.7689542080116746  0.9912703304328434  1.0000
  H   H437      1.0  0.12187933547444756  0.7608811745868814  0.01407551596768464  1.0000
  H   H438      1.0  0.12627376062181106  0.7878902570290939  0.9748233694869186  1.0000
  H   H439      1.0  0.1729750154575336  0.8029505965525915  0.036736187143802786  1.0000
  H   H440      1.0  0.157261609214203  0.8197304820663667  0.09140729405245863  1.0000
  H   H441      1.0  0.14686223932971373  0.8217048086360921  0.01913900841724048  1.0000
  H   H442      1.0  0.10086908243006955  0.7835292363488577  0.09108229287411018  1.0000
  H   H443      1.0  0.10511580841862316  0.8104379822867358  0.05160855147286925  1.0000
  H   H444      1.0  0.11584889301041669  0.8082484369926747  0.12329290743690957  1.0000
  N   N22       1.0  0.25402820903374845  0.1998255574551709  0.6115364662458712  1.0000
  C   C373      1.0  0.24940685383067684  0.20449086002523872  0.5505238278152232  1.0000
  C   C374      1.0  0.25268770179533595  0.17399231857599468  0.6228324365939412  1.0000
  C   C375      1.0  0.23522176682294438  0.21250800741359321  0.6461317873766667  1.0000
  C   C376      1.0  0.2787959090540437  0.20830069546906296  0.6267379953308712  1.0000
  H   H445      1.0  0.2498858073389747  0.2238160644704272  0.5403833201619874  1.0000
  H   H446      1.0  0.23117877885913463  0.19773242348865414  0.5369149743191705  1.0000
  H   H447      1.0  0.26360461644266286  0.19549613220237  0.5234824830304724  1.0000
  H   H448      1.0  0.26611078364268104  0.16381011486633335  0.5961657902986303  1.0000
  H   H449      1.0  0.2568312527457779  0.16970410472172762  0.6681337117881897  1.0000
  H   H450      1.0  0.23412675325331733  0.16705417232991768  0.612730067328556  1.0000
  H   H451      1.0  0.23835822495496384  0.20942333413498143  0.6924518808433638  1.0000
  H   H452      1.0  0.2163035519430616  0.20650551525364721  0.6359333732699615  1.0000
  H   H453      1.0  0.23572309364076838  0.23204136308735393  0.6385567305659793  1.0000
  H   H454      1.0  0.28317134655582343  0.20450056149710785  0.6721199165645017  1.0000
  H   H455      1.0  0.2803102021473305  0.2278302186864153  0.6202392473214557  1.0000
  H   H456      1.0  0.29338993392470836  0.19949470773789024  0.6005361679208627  1.0000
  N   N23       1.0  0.35308106885864166  0.9920544395148946  0.20311804904735697  1.0000
  C   C377      1.0  0.3552528049675227  0.010811442397603342  0.15924102156745049  1.0000
  C   C378      1.0  0.3745143739844478  0.9929382251713941  0.24166162057419957  1.0000
  C   C379      1.0  0.35248404118998056  0.9685066329332687  0.17537286001738  1.0000
  C   C380      1.0  0.3301172570283077  0.9960301005119012  0.23616461094968516  1.0000
  H   H457      1.0  0.3394067421909247  0.010620159214231205  0.12959019768555438  1.0000
  H   H458      1.0  0.3722181497187048  0.00833646472122651  0.13294109536876297  1.0000
  H   H459      1.0  0.35538559279909004  0.028897442567944905  0.1784166687239501  1.0000
  H   H460      1.0  0.3734648982324464  0.9790533605354242  0.2754385610638532  1.0000
  H   H461      1.0  0.3921304213870201  0.9900107239020424  0.2180016757405664  1.0000
  H   H462      1.0  0.3754768415363914  0.010532106230785708  0.26310930930644083  1.0000
  H   H463      1.0  0.35123125426049084  0.9538113558055669  0.20701699719159355  1.0000
  H   H464      1.0  0.3692099490265418  0.9651910224789133  0.1486919352573115  1.0000
  H   H465      1.0  0.3363365574357883  0.9671458991323523  0.14659587169246133  1.0000
  H   H466      1.0  0.32977675818439683  0.013809692043471598  0.2570166817811793  1.0000
  H   H467      1.0  0.32779513363662177  0.9822805274346879  0.26979773582104943  1.0000
  H   H468      1.0  0.31353682469373717  0.9956152375338202  0.20838472648825365  1.0000
  N   N24       1.0  0.2886090238250614  0.12786671218468526  0.04008967135669339  1.0000
  C   C381      1.0  0.3034969136177916  0.12506950450905446  0.09233707467510399  1.0000
  C   C382      1.0  0.2662894882906563  0.14248649353441167  0.05236643025794829  1.0000
  C   C383      1.0  0.281265093812232  0.10418008791342102  0.0197666484047454  1.0000
  C   C384      1.0  0.30343299828305903  0.13972194743650654  0.9958068794404857  1.0000
  H   H469      1.0  0.3206473178320493  0.11439849093006055  0.08438035823540813  1.0000
  H   H470      1.0  0.2931041683831007  0.11569900785655327  0.12610717989309306  1.0000
  H   H471      1.0  0.30876756172218484  0.14258662251087675  0.11001711014722959  1.0000
  H   H472      1.0  0.2549050928895914  0.14533811523733733  0.013558632943359461  1.0000
  H   H473      1.0  0.2543844662929537  0.13383143795345476  0.0846693326042478  1.0000
  H   H474      1.0  0.2710388276491607  0.1602053799944581  0.06974936115015673  1.0000
  H   H475      1.0  0.26957029897644935  0.09491508623914971  0.051493146296573755  1.0000
  H   H476      1.0  0.2976016157423304  0.09242362550953415  0.01142273721567566  1.0000
  H   H477      1.0  0.27053244748492256  0.10546475984724914  0.9795137431799623  1.0000
  H   H478      1.0  0.30892625780694155  0.15781694666120388  0.009227965432471175  1.0000
  H   H479      1.0  0.29302825114990705  0.14159205770051697  0.9552209063644201  1.0000
  H   H480      1.0  0.3206168084819608  0.12935847289400274  0.9863037322926129  1.0000
  N   N25       1.0  0.2703637886330565  0.6412743731723387  0.4257443394190114  1.0000
  C   C385      1.0  0.29099000506230477  0.6544459595051266  0.4508979404220763  1.0000
  C   C386      1.0  0.2524906184345289  0.6582909728945935  0.40017317628069554  1.0000
  C   C387      1.0  0.25788820399074047  0.6273619552473709  0.4705113146000222  1.0000
  C   C388      1.0  0.27996768832275715  0.6249947806367475  0.3813929169199823  1.0000
  H   H481      1.0  0.30473666776656116  0.6421402971824703  0.47105027664242827  1.0000
  H   H482      1.0  0.2843236162221265  0.6671962354136076  0.4839417320287398  1.0000
  H   H483      1.0  0.30097489423066665  0.6649369123665391  0.41807969506803205  1.0000
  H   H484      1.0  0.23660261045855405  0.6490900102835643  0.38090242389768186  1.0000
  H   H485      1.0  0.24482401044847912  0.6707160799747267  0.43266120023242044  1.0000
  H   H486      1.0  0.2610784969116216  0.669213610816863  0.3661662801189946  1.0000
  H   H487      1.0  0.25004742537237906  0.639108144729906  0.5043287279349543  1.0000
  H   H488      1.0  0.2707890422456525  0.6143028152800402  0.4908985959499769  1.0000
  H   H489      1.0  0.24230761696744485  0.617192057250837  0.4526638453167579  1.0000
  H   H490      1.0  0.2647827039299766  0.6154683290080362  0.360144008561374  1.0000
  H   H491      1.0  0.2927163931093372  0.611266351490336  0.3996812978114585  1.0000
  H   H492      1.0  0.29017086822074417  0.634756367496462  0.34773989650339565  1.0000
  N   N26       1.0  0.05971948060639841  0.21363854036813856  0.03587779610974118  1.0000
  C   C389      1.0  0.03331801591806748  0.2100794484847009  0.04857870968182909  1.0000
  C   C390      1.0  0.06403785624601793  0.2392015348071909  0.026056165983876278  1.0000
  C   C391      1.0  0.06672317654818263  0.20012233975577026  0.9843295387657564  1.0000
  C   C392      1.0  0.0747884184267647  0.20523546868255538  0.08454702277700976  1.0000
  H   H493      1.0  0.029184973384786872  0.19094296912659958  0.05504204920917011  1.0000
  H   H494      1.0  0.021340092656782828  0.2168330307103204  0.013351236863438976  1.0000
  H   H495      1.0  0.027572554373963998  0.2196770095599924  0.08792137995915827  1.0000
  H   H496      1.0  0.0584936409475965  0.24994064482659886  0.06369973406596396  1.0000
  H   H497      1.0  0.08384726340971517  0.2427450854581193  0.017609632072414172  1.0000
  H   H498      1.0  0.05315133120021784  0.24624773673446712  0.9893413232979192  1.0000
  H   H499      1.0  0.06376863824960573  0.1807245584862526  0.9902774473690481  1.0000
  H   H500      1.0  0.08652199580998235  0.20254876804811597  0.9734212204363443  1.0000
  H   H501      1.0  0.05557030788424218  0.20605316664346462  0.9469540119016739  1.0000
  H   H502      1.0  0.09485321424198205  0.2077478102874994  0.07664640841846304  1.0000
  H   H503      1.0  0.07200984736225059  0.1860362712809886  0.09361444425091303  1.0000
  H   H504      1.0  0.07012220412367404  0.21525337571977277  0.12408289266353423  1.0000
  N   N27       1.0  0.7502463783644976  0.10318468389011531  0.20987241052088446  1.0000
  C   C393      1.0  0.741872453029127  0.0890955128941606  0.16083897579325446  1.0000
  C   C394      1.0  0.7288254399499736  0.10942826655274812  0.24622938903531777  1.0000
  C   C395      1.0  0.7618296408355161  0.12519988764450715  0.18921599149630564  1.0000
  C   C396      1.0  0.7684377607034069  0.08904650882419113  0.24312655490223034  1.0000
  H   H505      1.0  0.7329320565021115  0.07237402768880498  0.17462549939338134  1.0000
  H   H506      1.0  0.7575356033950145  0.08388363200552015  0.13271690145838733  1.0000
  H   H507      1.0  0.7285221966165559  0.099355104917203  0.13389887936338574  1.0000
  H   H508      1.0  0.7197088647964303  0.09319887470748546  0.26270107292833944  1.0000
  H   H509      1.0  0.7344323584282368  0.12020242671106009  0.28349617141903316  1.0000
  H   H510      1.0  0.7147705310176389  0.12005189120222912  0.22210824315532207  1.0000
  H   H511      1.0  0.7682002518851997  0.13645093623762375  0.22490774303211603  1.0000
  H   H512      1.0  0.7487645855074919  0.13617446678768175  0.16320610562653037  1.0000
  H   H513      1.0  0.7781963853276781  0.121129424848531  0.16202514858734673  1.0000
  H   H514      1.0  0.7748428967444141  0.09886785005601482  0.28113855234401774  1.0000
  H   H515      1.0  0.785092886366275  0.0845198535163493  0.2172166293093103  1.0000
  H   H516      1.0  0.7606992546349607  0.07186977804331261  0.2579001655176656  1.0000
  N   N28       1.0  0.3394517523081901  0.5268112388192046  0.5798111007498323  1.0000
  C   C397      1.0  0.3604613462446928  0.5384439730558379  0.5514962474287789  1.0000
  C   C398      1.0  0.3161081711672571  0.5382835636625822  0.5609872693955342  1.0000
  C   C399      1.0  0.3417559194058381  0.529204308664582  0.6421273829883877  1.0000
  C   C400      1.0  0.3394177177039889  0.5013297654411122  0.5645308099235166  1.0000
  H   H517      1.0  0.3591937476602225  0.5371272484908209  0.5043101485098404  1.0000
  H   H518      1.0  0.37843015102406996  0.5302692385166101  0.5644346031672288  1.0000
  H   H519      1.0  0.36093372482720504  0.557786559233014  0.5615604022810259  1.0000
  H   H520      1.0  0.3156072869898764  0.5576732958407098  0.5705832972971427  1.0000
  H   H521      1.0  0.31375852294513606  0.536573614266985  0.5143764952178698  1.0000
  H   H522      1.0  0.29974975495174655  0.5299733114319269  0.5811811961457622  1.0000
  H   H523      1.0  0.3261600438922805  0.5205792417330805  0.6646476130785315  1.0000
  H   H524      1.0  0.3417577211185331  0.5482607522084564  0.6549318713729207  1.0000
  H   H525      1.0  0.3591956726159912  0.520758605849781  0.6578192313567732  1.0000
  H   H526      1.0  0.323472375172619  0.49208109352485074  0.5840852514549265  1.0000
  H   H527      1.0  0.35658539035669784  0.4919154276222069  0.578608709866812  1.0000
  H   H528      1.0  0.3379951563870509  0.4989895372866751  0.5176865005391208  1.0000
  N   N29       1.0  0.2788083885005931  0.34873142956513664  0.49820717887848365  1.0000
  C   C401      1.0  0.2765641006410339  0.326081997188549  0.5298793224121114  1.0000
  C   C402      1.0  0.30267889582152524  0.3489533859826578  0.4675455980393035  1.0000
  C   C403      1.0  0.2775079797758071  0.3688509575825862  0.5384545417046408  1.0000
  C   C404      1.0  0.2584176092330257  0.3510593500275364  0.4568892672529811  1.0000
  H   H529      1.0  0.291567775203505  0.3237540221113443  0.5616921372577419  1.0000
  H   H530      1.0  0.2774993297279134  0.310496746540584  0.5008119118044816  1.0000
  H   H531      1.0  0.25884459070355914  0.3253786950738278  0.5539322324624  1.0000
  H   H532      1.0  0.3052202840921594  0.3659995085869547  0.4441435475391632  1.0000
  H   H533      1.0  0.3185214036472325  0.34699439738925447  0.49739267788134334  1.0000
  H   H534      1.0  0.30408990262208935  0.3343152956223167  0.43576977642395887  1.0000
  H   H535      1.0  0.2787485898937314  0.3862479757810664  0.5159995196358022  1.0000
  H   H536      1.0  0.29301625927901076  0.3680022693754685  0.569150082695938  1.0000
  H   H537      1.0  0.2601275516436323  0.36883274184711773  0.5638401232045019  1.0000
  H   H538      1.0  0.26004037051314716  0.36749643126101456  0.4307193148391186  1.0000
  H   H539      1.0  0.24014321471627617  0.3515481832282855  0.4785939773166059  1.0000
  H   H540      1.0  0.2585068572000839  0.33586379186689674  0.4267491044230384  1.0000
  N   N30       1.0  0.2663606885091798  0.7506627563682141  0.7200221112115319  1.0000
  C   C405      1.0  0.2576806541424483  0.7303580621330698  0.6861502275597499  1.0000
  C   C406      1.0  0.2616140953561183  0.7730699471191955  0.6884290267586212  1.0000
  C   C407      1.0  0.29312503496669373  0.7477889832180352  0.7304373386496791  1.0000
  C   C408      1.0  0.2530661023085901  0.7514519157602914  0.7750294454271628  1.0000
  H   H541      1.0  0.2678049871347355  0.7288628893135971  0.6450057373330802  1.0000
  H   H542      1.0  0.23772203020651828  0.7322527240464257  0.6758751405239425  1.0000
  H   H543      1.0  0.26027743906762285  0.7131919532964238  0.7092196837070954  1.0000
  H   H544      1.0  0.26739222033316656  0.7888474264294936  0.7131212413585388  1.0000
  H   H545      1.0  0.27175458124339635  0.773278983662237  0.6471478364277979  1.0000
  H   H546      1.0  0.24168543094162825  0.7755553935266972  0.6787164993971604  1.0000
  H   H547      1.0  0.3003069078627101  0.7628218586843608  0.7557709181783903  1.0000
  H   H548      1.0  0.30368955463080194  0.7472035753947024  0.6896884798142857  1.0000
  H   H549      1.0  0.2974078755686534  0.7309911092835977  0.7538788315267351  1.0000
  H   H550      1.0  0.23284662053303196  0.7535120422286762  0.7686267151449537  1.0000
  H   H551      1.0  0.2589813089943843  0.7666699068361321  0.8015674248794559  1.0000
  H   H552      1.0  0.25621340555069677  0.734848840321917  0.800130645166528  1.0000
  N   N31       1.0  0.26630334466673355  0.4377241626789634  0.3374201508465835  1.0000
  C   C409      1.0  0.28937284413617714  0.45122895281134967  0.3341154004362815  1.0000
  C   C410      1.0  0.26107579417844595  0.431777707152841  0.39751465542844394  1.0000
  C   C411      1.0  0.26906895777701006  0.4156344691587172  0.3038564554339893  1.0000
  C   C412      1.0  0.24575425796588957  0.4524121635072213  0.31417285290523633  1.0000
  H   H553      1.0  0.28807941197004727  0.4677585746554328  0.35982408185964293  1.0000
  H   H554      1.0  0.29351538349871864  0.4566677476727362  0.28974478055692937  1.0000
  H   H555      1.0  0.30548727236221024  0.44058974157334885  0.3498571650422312  1.0000
  H   H556      1.0  0.2767118936647215  0.42160319004948266  0.4171234668567103  1.0000
  H   H557      1.0  0.25812605570027936  0.44819937847559294  0.42332531373674365  1.0000
  H   H558      1.0  0.2441569864676149  0.42101809648511096  0.401618208722742  1.0000
  H   H559      1.0  0.2519428441747932  0.405027231006184  0.3047399584493323  1.0000
  H   H560      1.0  0.28442386306251644  0.40406268500993736  0.3200399268220517  1.0000
  H   H561      1.0  0.27313501511002813  0.41968983388544945  0.25841352851498145  1.0000
  H   H562      1.0  0.22794144428168808  0.44295418124710667  0.3165571940201564  1.0000
  H   H563      1.0  0.24894674864559213  0.4569616340310284  0.2686352423663038  1.0000
  H   H564      1.0  0.2435084770619996  0.46950213564710036  0.3376817839814256  1.0000
  N   N32       1.0  0.4290308256457453  0.17535110911658602  0.909217454187087  1.0000
  C   C413      1.0  0.4262432665690001  0.15437720706471555  0.9466492177876892  1.0000
  C   C414      1.0  0.4077722219590821  0.19182980214815307  0.9176291219901065  1.0000
  C   C415      1.0  0.4299521254064262  0.16752686659852675  0.8492722988449427  1.0000
  C   C416      1.0  0.4520947735570249  0.1876571650578335  0.9232031292475855  1.0000
  H   H565      1.0  0.44194003928280146  0.14152042508250406  0.9414540969784908  1.0000
  H   H566      1.0  0.40898226388618447  0.1447323049100602  0.9367030349365036  1.0000
  H   H567      1.0  0.42529873675932617  0.15959619508761216  0.9922279473928957  1.0000
  H   H568      1.0  0.40669524096898624  0.19843544615904754  0.9621172008898193  1.0000
  H   H569      1.0  0.4089664397436072  0.20760705180286404  0.8893023651368284  1.0000
  H   H570      1.0  0.3900148805823146  0.18311629351462727  0.9080347957496947  1.0000
  H   H571      1.0  0.43196746871606756  0.18291348466873214  0.8197591389906134  1.0000
  H   H572      1.0  0.4128282832029292  0.1580932177035663  0.8372951616812006  1.0000
  H   H573      1.0  0.4458106126512307  0.15511854849596057  0.8413662188859258  1.0000
  H   H574      1.0  0.4686055066924252  0.17588955966170053  0.9167866501195165  1.0000
  H   H575      1.0  0.45213346116725145  0.1938430244856462  0.9681041199469776  1.0000
  H   H576      1.0  0.4546064451373488  0.2036013007115226  0.8956946550411892  1.0000
  N   N33       1.0  0.3961469570471572  0.33038761517840537  0.9083412967054073  1.0000
  C   C417      1.0  0.4055252549274056  0.349471814968849  0.9450046416366417  1.0000
  C   C418      1.0  0.3846219734657727  0.31194224044888563  0.9440994910213076  1.0000
  C   C419      1.0  0.4168050481472168  0.31971301813851727  0.8756052955739155  1.0000
  C   C420      1.0  0.3776305930025428  0.3403595696245115  0.8684111724773395  1.0000
  H   H577      1.0  0.4132326953850267  0.3642652080893825  0.9192494374272612  1.0000
  H   H578      1.0  0.4203530819713541  0.34267985574670423  0.9737654503875481  1.0000
  H   H579      1.0  0.39064740121084757  0.35703035700171754  0.9725155743126371  1.0000
  H   H580      1.0  0.3770921962076287  0.2973999433397262  0.9175977797822137  1.0000
  H   H581      1.0  0.3981822132270782  0.30365946959499407  0.9739569431289622  1.0000
  H   H582      1.0  0.3691167807244561  0.3195191082553539  0.9699836048752608  1.0000
  H   H583      1.0  0.4103013584204261  0.3050451812862082  0.8479730782438782  1.0000
  H   H584      1.0  0.431401782827339  0.3122166349959321  0.9039200867124904  1.0000
  H   H585      1.0  0.4256842439177923  0.33310641140354785  0.847593012467633  1.0000
  H   H586      1.0  0.370217081894635  0.3262411528378696  0.8404058751051436  1.0000
  H   H587      1.0  0.3857122133789387  0.3540884696497393  0.8399777242993874  1.0000
  H   H588      1.0  0.36182673525488956  0.3487767169965788  0.8914196456469182  1.0000
  N   N34       1.0  0.8094856728831996  0.6297047833947551  0.051155756412147646  1.0000
  C   C421      1.0  0.8226411688877467  0.6476324527124849  0.01702036188457412  1.0000
  C   C422      1.0  0.7855867512452761  0.6398796018691059  0.0705774427731023  1.0000
  C   C423      1.0  0.8245807308393459  0.6228446063742669  0.10109721489743606  1.0000
  C   C424      1.0  0.8050776405213397  0.6085079153114495  0.015887847103057684  1.0000
  H   H589      1.0  0.8411699456588296  0.6410057681698361  0.0032519041900866963  1.0000
  H   H590      1.0  0.8252907437676057  0.6642572365762548  0.04164389748356623  1.0000
  H   H591      1.0  0.8121309659403391  0.6526532869517087  0.9779860689128175  1.0000
  H   H592      1.0  0.7743329551641204  0.6467281340809677  0.034236548370645936  1.0000
  H   H593      1.0  0.7744831238611986  0.6264761429619583  0.09374404692638638  1.0000
  H   H594      1.0  0.7882667562733927  0.6551426714194851  0.09985590020635882  1.0000
  H   H595      1.0  0.8425722471069375  0.6146744047157697  0.08815171367121466  1.0000
  H   H596      1.0  0.8149290734892011  0.6097600747141825  0.12868483818874266  1.0000
  H   H597      1.0  0.8286950984792947  0.6385779659150321  0.12790340832641123  1.0000
  H   H598      1.0  0.7954469476090855  0.594493925839715  0.040639936065467896  1.0000
  H   H599      1.0  0.8227076539585656  0.6005882408431076  0.9997272806568456  1.0000
  H   H600      1.0  0.7934080468084078  0.6130866335448509  0.9783228437535534  1.0000
  N   N35       1.0  0.6925010682890981  0.5852315809610193  0.46517606167602593  1.0000
  C   C425      1.0  0.6934239785531612  0.5725922559398513  0.41012169245929575  1.0000
  C   C426      1.0  0.7038359794995712  0.5700266638320537  0.5098169288035336  1.0000
  C   C427      1.0  0.6665280533555344  0.5905839488195803  0.4805013635792881  1.0000
  C   C428      1.0  0.7061752932033468  0.6076730132734385  0.4602979188029502  1.0000
  H   H601      1.0  0.6835695832522884  0.5553849836123924  0.4124455798353812  1.0000
  H   H602      1.0  0.7127647214705648  0.5682022388184786  0.3973063395843241  1.0000
  H   H603      1.0  0.6849502548888807  0.5833944631858797  0.37532275197271636  1.0000
  H   H604      1.0  0.7031817905902358  0.578782957307207  0.5521893885917095  1.0000
  H   H605      1.0  0.6942662444979227  0.5527261022368254  0.5138468791363976  1.0000
  H   H606      1.0  0.7235194139797471  0.5657021732816002  0.49986936987204406  1.0000
  H   H607      1.0  0.6573333475804412  0.6019845226353094  0.44773067173292996  1.0000
  H   H608      1.0  0.6651703556688041  0.6001255998279925  0.5218863363923272  1.0000
  H   H609      1.0  0.6557564505002075  0.5739747529375127  0.48461241403753363  1.0000
  H   H610      1.0  0.6983220298338798  0.6194223617722532  0.42646047230505174  1.0000
  H   H611      1.0  0.7259516159589618  0.6041902171679688  0.44960122706348815  1.0000
  H   H612      1.0  0.7056159788910611  0.6178700610897093  0.5009085725548699  1.0000
  N   N36       1.0  0.2567853289452267  0.3133244767058787  0.9064202785844593  1.0000
  C   C429      1.0  0.2832790546933165  0.3084084609569457  0.8956534062940507  1.0000
  C   C430      1.0  0.25363704605410126  0.3370111241817284  0.9328045063537992  1.0000
  C   C431      1.0  0.24697778404381013  0.29496797206511555  0.9451604839794742  1.0000
  C   C432      1.0  0.24319330454528762  0.3128645702242381  0.8520657599608357  1.0000
  H   H613      1.0  0.29414013308525666  0.3088710982758871  0.9357537428899393  1.0000
  H   H614      1.0  0.2911900221964856  0.3216944915650285  0.8657673511243736  1.0000
  H   H615      1.0  0.2862770712976996  0.29051430109110177  0.8763520303937596  1.0000
  H   H616      1.0  0.2631840058685376  0.33775432217608936  0.9745924166653647  1.0000
  H   H617      1.0  0.2610966389584042  0.35130815548759287  0.905150122391579  1.0000
  H   H618      1.0  0.2338082115452536  0.34131692822981297  0.9412165276883816  1.0000
  H   H619      1.0  0.227001538606115  0.29817574223744886  0.954239113136499  1.0000
  H   H620      1.0  0.2566287621883116  0.29498186974956436  0.9869326023421713  1.0000
  H   H621      1.0  0.24908910359837266  0.276817088497013  0.9267295445112569  1.0000
  H   H622      1.0  0.22320147725138126  0.31693449011752395  0.8583890138148781  1.0000
  H   H623      1.0  0.24474268861674747  0.29504473385083424  0.8318474898031238  1.0000
  H   H624      1.0  0.25045849997550446  0.3260887759019387  0.8210831916793673  1.0000
  N   N37       1.0  0.3481784717990597  0.8838034262232276  0.8899093960668356  1.0000
  C   C433      1.0  0.3595168860583319  0.8822066839479894  0.8327569494777909  1.0000
  C   C434      1.0  0.3657263321867206  0.8742575676957149  0.932547347414366  1.0000
  C   C435      1.0  0.3254152673304154  0.8697249141227321  0.8914052030541275  1.0000
  C   C436      1.0  0.3420891504660515  0.9089167239309017  0.9031694625732918  1.0000
  H   H625      1.0  0.34669655801657145  0.8890280476246704  0.7993220883185929  1.0000
  H   H626      1.0  0.36457961126810756  0.8634294646699434  0.8219338076112442  1.0000
  H   H627      1.0  0.3767184425435264  0.8926749250241718  0.8302676448328772  1.0000
  H   H628      1.0  0.35715615732269784  0.8734572303838148  0.9754415394859645  1.0000
  H   H629      1.0  0.37184204577006136  0.8558700796305071  0.9218512165018374  1.0000
  H   H630      1.0  0.3825304698089585  0.8852432737644117  0.9354782539781937  1.0000
  H   H631      1.0  0.31650143359092553  0.8703484008167831  0.9342118759967538  1.0000
  H   H632      1.0  0.32926674317442545  0.8506761818727552  0.8813683952444195  1.0000
  H   H633      1.0  0.3115012910413779  0.8765374402729021  0.8603153074753748  1.0000
  H   H634      1.0  0.3332547681669537  0.9105382884763322  0.9457430143138287  1.0000
  H   H635      1.0  0.3290403616995585  0.9168329384164376  0.871587352721519  1.0000
  H   H636      1.0  0.3588492324437222  0.9200667505003793  0.903785287864066  1.0000
  N   N38       1.0  0.8529086762706819  0.3140810736328108  0.6946408116592463  1.0000
  C   C437      1.0  0.8581882995915553  0.3117906246079847  0.7560469368817437  1.0000
  C   C438      1.0  0.8476189960129324  0.3392923720326593  0.6804412859457701  1.0000
  C   C439      1.0  0.831335649008329  0.29959992519745215  0.6802010906166969  1.0000
  C   C440      1.0  0.8745909044299857  0.305559077323182  0.6618456099456795  1.0000
  H   H637      1.0  0.8420385560594578  0.3173561988456717  0.782555401083458  1.0000
  H   H638      1.0  0.8740701743466324  0.3228229208208433  0.7688157274842627  1.0000
  H   H639      1.0  0.8629983371816469  0.29307108385912595  0.7677168597945002  1.0000
  H   H640      1.0  0.8436913961178452  0.34156876615648835  0.634330943368  1.0000
  H   H641      1.0  0.8312811354539101  0.34630885332293193  0.7042672920709544  1.0000
  H   H642      1.0  0.8635638597154137  0.3507336643712182  0.6904923775007671  1.0000
  H   H643      1.0  0.827038332921428  0.3007926336840874  0.6339124354042074  1.0000
  H   H644      1.0  0.814564425486394  0.3056066839665048  0.703995799517425  1.0000
  H   H645      1.0  0.8346913654398856  0.28047874940814554  0.6906592823430288  1.0000
  H   H646      1.0  0.8712711439553956  0.30680873264657693  0.6152115791116255  1.0000
  H   H647      1.0  0.8791602318679894  0.2866197545963418  0.6718266559859049  1.0000
  H   H648      1.0  0.8912155872312845  0.3161630330120604  0.671449819983103  1.0000
  N   N39       1.0  0.7192926495040827  0.9079667894682611  0.5029764417997159  1.0000
  C   C441      1.0  0.7268371770035171  0.8837936960895251  0.5218070319229312  1.0000
  C   C442      1.0  0.7341144678352045  0.9147756844399781  0.45280051281579325  1.0000
  C   C443      1.0  0.7233913498221768  0.9250539506552773  0.5495096120623478  1.0000
  C   C444      1.0  0.692844268129239  0.9082208819745418  0.48785251276259933  1.0000
  H   H649      1.0  0.715790040161573  0.8779720275952295  0.5592302105157122  1.0000
  H   H650      1.0  0.7466394904034562  0.8830613075414228  0.5342701411778974  1.0000
  H   H651      1.0  0.7243533314302611  0.87048558226729  0.4875066255169377  1.0000
  H   H652      1.0  0.7541153002543269  0.9148081028604865  0.46303855103363994  1.0000
  H   H653      1.0  0.7317921626854615  0.9021026646276449  0.41703822339069824  1.0000
  H   H654      1.0  0.7289957830900017  0.9329204651830422  0.43729985510087094  1.0000
  H   H655      1.0  0.7183344812163663  0.9435599433225027  0.5366348716124323  1.0000
  H   H656      1.0  0.7430702963589444  0.9250218068479166  0.5627594149044034  1.0000
  H   H657      1.0  0.7122089816316851  0.920654615661778  0.5878206016604303  1.0000
  H   H658      1.0  0.6864804882472776  0.9262199978901524  0.47373973715263124  1.0000
  H   H659      1.0  0.6811865582838244  0.9031451857902945  0.5249699787122308  1.0000
  H   H660      1.0  0.6890374511652687  0.8954684015352289  0.4530260738513918  1.0000
  N   N40       1.0  0.04587676341735647  0.706189334226714  0.2801998688500741  1.0000
  C   C445      1.0  0.05591069124856096  0.6879078631663517  0.24100673227682237  1.0000
  C   C446      1.0  0.049574420380870565  0.7300151718131649  0.2552160171433177  1.0000
  C   C447      1.0  0.058826605628960804  0.704402067371881  0.3353361978229768  1.0000
  C   C448      1.0  0.019196769199518737  0.7024981016054966  0.2889601105318716  1.0000
  H   H661      1.0  0.04660177561952139  0.6888986074499965  0.1988433457040962  1.0000
  H   H662      1.0  0.05338347780221642  0.6696644476667307  0.2583632456077295  1.0000
  H   H663      1.0  0.07602503411042849  0.6902755152335981  0.2335506251354322  1.0000
  H   H664      1.0  0.04208830749578607  0.7443060173971354  0.28340244682018134  1.0000
  H   H665      1.0  0.06946558390676638  0.7335605063594605  0.2477528645232271  1.0000
  H   H666      1.0  0.03991188206748575  0.7319002964021887  0.213725597880759  1.0000
  H   H667      1.0  0.0517813918286405  0.7179899997075235  0.36595522904889527  1.0000
  H   H668      1.0  0.07900241890197979  0.7071891538351117  0.3301960005889355  1.0000
  H   H669      1.0  0.05655162679292669  0.6866460779981861  0.3555284345371369  1.0000
  H   H670      1.0  0.008996556526232657  0.7031389641162313  0.24786149961020124  1.0000
  H   H671      1.0  0.010827140441234562  0.7166716386131599  0.31628813309059517  1.0000
  H   H672      1.0  0.015612001851767143  0.68501725220603  0.3093628571333207  1.0000
  N   N41       1.0  0.6856611956254796  0.8067757662359833  0.7266808474081036  1.0000
  C   C449      1.0  0.682520757624729  0.7986661729411964  0.7860633654693402  1.0000
  C   C450      1.0  0.6699037706165193  0.8280741252757258  0.7167745994894217  1.0000
  C   C451      1.0  0.6784850716301785  0.7877344259798875  0.6871908583620663  1.0000
  C   C452      1.0  0.7117365793478108  0.8127136890702793  0.7166019025086602  1.0000
  H   H673      1.0  0.6940153808658909  0.782487589878889  0.7949736301995978  1.0000
  H   H674      1.0  0.662976130924252  0.7941477631688472  0.795049804823597  1.0000
  H   H675      1.0  0.6878875275102477  0.8126395354568857  0.8168055943994987  1.0000
  H   H676      1.0  0.6719167953512412  0.8348808048089702  0.6724987920293254  1.0000
  H   H677      1.0  0.6500291485987558  0.8242123211838008  0.7237119397660062  1.0000
  H   H678      1.0  0.6747438999581911  0.842808584623433  0.7459522881023061  1.0000
  H   H679      1.0  0.6591055229032691  0.7822147350477684  0.6946630272555377  1.0000
  H   H680      1.0  0.69058117479989  0.7716464363565126  0.6922622651940775  1.0000
  H   H681      1.0  0.6799238512025441  0.7935426031712762  0.64203708731723  1.0000
  H   H682      1.0  0.7146190017955771  0.818969774043378  0.6721823318688311  1.0000
  H   H683      1.0  0.7242055267818595  0.7969792888307382  0.723464504050185  1.0000
  H   H684      1.0  0.7179125214422958  0.8270619161978147  0.7455331718426802  1.0000
  N   N42       1.0  0.17796191343232426  0.9423329259300849  0.884288692587867  1.0000
  C   C453      1.0  0.16803306392561476  0.9205476899551807  0.9104575067500728  1.0000
  C   C454      1.0  0.17970617117529247  0.9610941416716203  0.9279250079964887  1.0000
  C   C455      1.0  0.16130220214817687  0.9505620270609424  0.8383087479161163  1.0000
  C   C456      1.0  0.2027284006208438  0.9370949313784142  0.8603572413589682  1.0000
  H   H685      1.0  0.1803739448975597  0.913322642514877  0.9443342646849052  1.0000
  H   H686      1.0  0.16576332444949637  0.9061935459243919  0.878531131030283  1.0000
  H   H687      1.0  0.1495984038785163  0.9238351689937044  0.9302653420254996  1.0000
  H   H688      1.0  0.1612792059693961  0.9660060731215167  0.9457667562327756  1.0000
  H   H689      1.0  0.1913982605740317  0.9551508837971212  0.9642243495521289  1.0000
  H   H690      1.0  0.18811743966743635  0.9775169369308001  0.9104877566671754  1.0000
  H   H691      1.0  0.14235790194278888  0.9543585089202012  0.8548065404798736  1.0000
  H   H692      1.0  0.15971732990731466  0.9368469205561128  0.8044938918711688  1.0000
  H   H693      1.0  0.16808348476012835  0.9671286846935501  0.8179402564116046  1.0000
  H   H694      1.0  0.2106742457186617  0.9530606201467798  0.8395969988863307  1.0000
  H   H695      1.0  0.20219339660018792  0.9225952372011436  0.8282646397982503  1.0000
  H   H696      1.0  0.21590918960170222  0.9312807581883793  0.8939826333614574  1.0000
  N   N43       1.0  0.81033066832735  0.9530016022031387  0.1280451932266089  1.0000
  C   C457      1.0  0.8347251869501983  0.9538297953870349  0.1558061817910934  1.0000
  C   C458      1.0  0.8013118027003763  0.9774932232284796  0.11642504674092136  1.0000
  C   C459      1.0  0.7927086230808346  0.9409293339638883  0.16601303211965202  1.0000
  C   C460      1.0  0.8125752079384625  0.9398269001169186  0.07390585804731375  1.0000
  H   H697      1.0  0.8421653551907962  0.9356125459136739  0.16486243668481482  1.0000
  H   H698      1.0  0.8336480693907866  0.9635439511486048  0.19690171589145744  1.0000
  H   H699      1.0  0.8483884484285366  0.9630799597154522  0.1285092511364927  1.0000
  H   H700      1.0  0.7833172556964128  0.9776131200373304  0.09372288420125408  1.0000
  H   H701      1.0  0.7988826775733694  0.9878693646312102  0.15634646039389488  1.0000
  H   H702      1.0  0.8145168756566595  0.987235976766055  0.08908494355547125  1.0000
  H   H703      1.0  0.790804085311649  0.9503408707581006  0.2074413959599435  1.0000
  H   H704      1.0  0.798862684951484  0.9223149068514831  0.17529705077551805  1.0000
  H   H705      1.0  0.7740907030209208  0.9401269442057757  0.14639304489755434  1.0000
  H   H706      1.0  0.8195183871966872  0.9212830489616187  0.08093788184249795  1.0000
  H   H707      1.0  0.8255423688043219  0.9486566907890449  0.04401482975923554  1.0000
  H   H708      1.0  0.7944711906292635  0.9387587889404642  0.05194484447194392  1.0000
  N   N44       1.0  0.4663877263345914  0.8010663355226132  0.4450994374632498  1.0000
  C   C461      1.0  0.46322015200409017  0.8071023903708004  0.3842622379002225  1.0000
  C   C462      1.0  0.4928978761089014  0.7974575669165495  0.45769477442094725  1.0000
  C   C463      1.0  0.45309471999692774  0.7789917723773715  0.4583138205936763  1.0000
  C   C464      1.0  0.45625045759484484  0.8207440286868817  0.4801463387565131  1.0000
  H   H709      1.0  0.46915165351542437  0.7921159222249496  0.356255318505565  1.0000
  H   H710      1.0  0.4740286881835301  0.8229674629614346  0.372112584343185  1.0000
  H   H711      1.0  0.4435643059241177  0.8113234907208121  0.37440064767724124  1.0000
  H   H712      1.0  0.4958526480639955  0.7925269254934103  0.5031477018268572  1.0000
  H   H713      1.0  0.5011767596475486  0.7829311866298889  0.43143183524214956  1.0000
  H   H714      1.0  0.503465587635378  0.8139208830302292  0.4497257274365659  1.0000
  H   H715      1.0  0.4329163637913494  0.7813384827786983  0.45152932993950157  1.0000
  H   H716      1.0  0.4557169827169196  0.7735406210822274  0.5033893963363656  1.0000
  H   H717      1.0  0.45957960544798554  0.7638869270001243  0.431374016296799  1.0000
  H   H718      1.0  0.43601493476678205  0.8232772174675682  0.4732974876473712  1.0000
  H   H719      1.0  0.4653152818756111  0.8378474981275612  0.47014415966407624  1.0000
  H   H720      1.0  0.4591127733932267  0.8172631810843816  0.5262187147420678  1.0000
  N   N45       1.0  0.5372397484024665  0.8484601005126473  0.9325795973227761  1.0000
  C   C465      1.0  0.5424102576672569  0.8558769492424668  0.9915048502512346  1.0000
  C   C466      1.0  0.51121200886676  0.8413355913902347  0.9280476240563984  1.0000
  C   C467      1.0  0.5535479124329404  0.8280795469857284  0.9175405298242015  1.0000
  C   C468      1.0  0.5418296810797676  0.8684528338975143  0.8931058727039063  1.0000
  H   H721      1.0  0.5619660069713225  0.8612529213143768  0.9962340822203978  1.0000
  H   H722      1.0  0.5390938132068813  0.8411194543555296  0.022202134940541463  1.0000
  H   H723      1.0  0.5304461234973503  0.8712545814883181  0.00431288434451127  1.0000
  H   H724      1.0  0.506717012705255  0.835804275867084  0.8838984205457104  1.0000
  H   H725      1.0  0.5072413277096323  0.8259073106135565  0.9563191893682996  1.0000
  H   H726      1.0  0.4982484133822343  0.8561050312798705  0.9396449332662378  1.0000
  H   H727      1.0  0.5499098682933296  0.8220042261562328  0.8736392865102806  1.0000
  H   H728      1.0  0.5505756594031102  0.8125163008497727  0.9460659926120326  1.0000
  H   H729      1.0  0.5733857506454421  0.8328265711959647  0.9191798168151021  1.0000
  H   H730      1.0  0.5298805183514191  0.8841977031530353  0.9029534486275039  1.0000
  H   H731      1.0  0.5382380774552936  0.8633474484448064  0.8481641511335944  1.0000
  H   H732      1.0  0.561412802045784  0.8740918440194677  0.8947726577189962  1.0000
  N   N46       1.0  0.5495804540108348  0.36017250442174087  0.624562872681939  1.0000
  C   C469      1.0  0.525473276534396  0.3703305922191652  0.606667890903712  1.0000
  C   C470      1.0  0.5476652065154927  0.3341169222531874  0.6314740519270898  1.0000
  C   C471      1.0  0.5567811121715142  0.37080824368472465  0.6793485553939346  1.0000
  C   C472      1.0  0.5683763036562604  0.36543043812235393  0.5808105101489683  1.0000
  H   H733      1.0  0.5193299183734505  0.3625607737849321  0.565758268326769  1.0000
  H   H734      1.0  0.526313773997222  0.3899649172167731  0.6010793093581545  1.0000
  H   H735      1.0  0.5108792253259513  0.3667709542272156  0.6389071332600523  1.0000
  H   H736      1.0  0.5334487247886077  0.32955644904664316  0.6637410041917764  1.0000
  H   H737      1.0  0.5425826263147292  0.3253847621830447  0.5909204901475675  1.0000
  H   H738      1.0  0.56544506519393  0.3258920260350481  0.6458154209048624  1.0000
  H   H739      1.0  0.5428247650229484  0.3674150351380115  0.7131497765130728  1.0000
  H   H740      1.0  0.5588556757235457  0.3904024334712976  0.6756592945233827  1.0000
  H   H741      1.0  0.5746258497211237  0.3632364656926532  0.6947053979060381  1.0000
  H   H742      1.0  0.5865020908378793  0.35720189595572543  0.5918439215267501  1.0000
  H   H743      1.0  0.5713233376538067  0.3848917612114648  0.5762538888835356  1.0000
  H   H744      1.0  0.5632011973514454  0.35836064658636096  0.5384618257094019  1.0000
  N   N47       1.0  0.21758963356799252  0.2810053660779914  0.22733988009911518  1.0000
  C   C473      1.0  0.21225035273577844  0.30688062806864064  0.22659610856309434  1.0000
  C   C474      1.0  0.21598195985072483  0.27206508487004655  0.2863402743496635  1.0000
  C   C475      1.0  0.24271194005430477  0.27641596508514044  0.20471947120615122  1.0000
  C   C476      1.0  0.19942447217782266  0.2686256812982533  0.19182775424311105  1.0000
  H   H745      1.0  0.22526516516815812  0.3166359825366847  0.2542636577216568  1.0000
  H   H746      1.0  0.1931067616593504  0.3109997884916551  0.2413313944177159  1.0000
  H   H747      1.0  0.21414182880738195  0.314320504578525  0.18300960377455608  1.0000
  H   H748      1.0  0.2205616318305517  0.2527385983944428  0.28863773839029255  1.0000
  H   H749      1.0  0.22896094776988402  0.28122933696498137  0.31487401764624356  1.0000
  H   H750      1.0  0.19705834866274705  0.2745292629187112  0.3041953863386284  1.0000
  H   H751      1.0  0.25683492320522644  0.28580938300837794  0.22991939830222263  1.0000
  H   H752      1.0  0.2444197814256716  0.2826495373865443  0.1598734026622874  1.0000
  H   H753      1.0  0.24769107361172377  0.2571079314612325  0.20592072772160872  1.0000
  H   H754      1.0  0.20278412877996838  0.24901010986760047  0.1923140722961773  1.0000
  H   H755      1.0  0.20025230040705835  0.27472745595243464  0.14682731691127446  1.0000
  H   H756      1.0  0.1801980735596324  0.2718017953195159  0.2073945633048271  1.0000
  N   N48       1.0  0.7852412644267233  0.31966305469843403  0.3554510822779591  1.0000
  C   C477      1.0  0.7918059453133434  0.34383020183668617  0.37404234971153705  1.0000
  C   C478      1.0  0.7784261964586293  0.32026881273368635  0.2945758032585297  1.0000
  C   C479      1.0  0.7640689811629516  0.3113081371336661  0.38927524344632314  1.0000
  C   C480      1.0  0.8065432434064348  0.30325801440866673  0.3640126419417775  1.0000
  H   H757      1.0  0.7967728878974375  0.3440515739259888  0.41990931762194283  1.0000
  H   H758      1.0  0.7761385586979126  0.3566703264641867  0.36808892095071677  1.0000
  H   H759      1.0  0.8079151460111357  0.35061002782533834  0.3498400109655224  1.0000
  H   H760      1.0  0.7728358067037356  0.302427440053174  0.27930968652146926  1.0000
  H   H761      1.0  0.7625128719007308  0.33266763501166036  0.28679265015907984  1.0000
  H   H762      1.0  0.7939977621831273  0.32622699183699294  0.2674151443671249  1.0000
  H   H763      1.0  0.7479453296910831  0.3236261412419926  0.38505166455553086  1.0000
  H   H764      1.0  0.7684661095188307  0.3100829354473058  0.43528400155376734  1.0000
  H   H765      1.0  0.757999643645775  0.29343085685270387  0.37543247473218  1.0000
  H   H766      1.0  0.8119585317141971  0.3023020233066509  0.4096775387736127  1.0000
  H   H767      1.0  0.8230175639179963  0.30913929115536454  0.33972999599362685  1.0000
  H   H768      1.0  0.8022548223473338  0.2848718979642212  0.35028699971505506  1.0000
