data_image0
_chemical_formula_structural       FeS2FeS2FeSFeS3FeS2FeS2FeSFeS3FeS2FeS2FeSFeS3FeS2FeS2FeSFeS3FeS2FeS2FeSFeS3FeS2FeS2FeSFeS3FeS2FeS2FeSFeS3FeS2FeS2FeSFeS3FeS2FeS2FeSFeS3FeS2FeS2FeSFeS3FeS2FeS2FeSFeS3FeS2FeS2FeSFeS3C6H4C6H4C6H4C6H4C6H4C6H4C6H4C6H4C6H4C6H4C6H4C6H4C6H4C6H4C6H4C6H4C6H4C6H4C6H4C6H4C6H4C6H4C6H4C6H4FeS2FeS2FeSFeS3FeS2FeS2FeSFeS3FeS2FeS2FeSFeS3FeS2FeS2FeSFeS3FeS2FeS2FeSFeS3FeS2FeS2FeSFeS3FeS2FeS2FeSFeS3FeS2FeS2FeSFeS3FeS2FeS2FeSFeS3FeS2FeS2FeSFeS3FeS2FeS2FeSFeS3FeS2FeS2FeSFeS3C6H4C6H4C6H4C6H4C6H4C6H4C6H4C6H4C6H4C6H4C6H4C6H4C6H4C6H4C6H4C6H4C6H4C6H4C6H4C6H4C6H4C6H4C6H4C6H4NC4H12NC4H12NC4H12NC4H12NC4H12NC4H12NC4H12NC4H12NC4H12NC4H12NC4H12NC4H12NC4H12NC4H12NC4H12NC4H12NC4H12NC4H12NC4H12NC4H12NC4H12NC4H12NC4H12NC4H12NC4H12NC4H12NC4H12NC4H12NC4H12NC4H12NC4H12NC4H12NC4H12NC4H12NC4H12NC4H12NC4H12NC4H12NC4H12NC4H12NC4H12NC4H12NC4H12NC4H12NC4H12NC4H12NC4H12NC4H12
_chemical_formula_sum              "Fe96 S192 C480 H768 N48"
_cell_length_a       39.94376140044794
_cell_length_b       39.64607104345953
_cell_length_c       47.260664852020035
_cell_angle_alpha    90.14424980994828
_cell_angle_beta     89.93796975890926
_cell_angle_gamma    89.94638938683013

_space_group_name_H-M_alt    "P 1"
_space_group_IT_number       1

loop_
  _space_group_symop_operation_xyz
  'x, y, z'

loop_
  _atom_site_type_symbol
  _atom_site_label
  _atom_site_symmetry_multiplicity
  _atom_site_fract_x
  _atom_site_fract_y
  _atom_site_fract_z
  _atom_site_occupancy
  Fe  Fe1       1.0  0.46379940993472346  0.486989696695724  0.0630925990169835  1.0000
  S   S1        1.0  0.5110618528896085  0.4561853116136996  0.05945641379898552  1.0000
  S   S2        1.0  0.4327322477279594  0.48260678513995753  0.10372494436173689  1.0000
  Fe  Fe2       1.0  0.4980063750597754  0.5398530969189685  0.49986592906105703  1.0000
  S   S3        1.0  0.5346671859733045  0.4999995143537688  0.5145996535040639  1.0000
  S   S4        1.0  0.5196834999352472  0.5716197905540614  0.4635034487538014  1.0000
  Fe  Fe3       1.0  0.4894037697964037  0.465936592163999  0.5176486208144042  1.0000
  S   S5        1.0  0.4825452017103007  0.4103000899682611  0.5051642020521607  1.0000
  Fe  Fe4       1.0  0.5374521456667575  0.5046650648826383  0.0500045334798064  1.0000
  S   S6        1.0  0.5900773699665819  0.5191219566406408  0.06474236944884135  1.0000
  S   S7        1.0  0.45348033113983255  0.504648224000174  0.5007359630462991  1.0000
  S   S8        1.0  0.49132894016981193  0.5360370033995393  0.056715046177534055  1.0000
  Fe  Fe5       1.0  0.2629319836823097  0.4437269176370276  0.18669617712104722  1.0000
  S   S9        1.0  0.2779519904942702  0.39346152795758516  0.20483778714713505  1.0000
  S   S10       1.0  0.2806435422257404  0.4594516253864592  0.14252443083605504  1.0000
  Fe  Fe6       1.0  0.21616372464509412  0.4597283794488407  0.23804044697153443  1.0000
  S   S11       1.0  0.22913371652944617  0.4113559195830035  0.2594339379709123  1.0000
  S   S12       1.0  0.1782552353075959  0.49545594873466003  0.25855928850744625  1.0000
  Fe  Fe7       1.0  0.2817399294278946  0.42184609360646885  0.24584951841052108  1.0000
  S   S13       1.0  0.32414025041462174  0.4167456353916402  0.2768090016513546  1.0000
  Fe  Fe8       1.0  0.22366846651667913  0.38815732489483873  0.21643820669642633  1.0000
  S   S14       1.0  0.19121702250360026  0.34197676980983666  0.21452575870145865  1.0000
  S   S15       1.0  0.26981847220873045  0.47267842442555413  0.22735260794020645  1.0000
  S   S16       1.0  0.2076132395974589  0.43598107267620423  0.1953635150763375  1.0000
  Fe  Fe9       1.0  0.9742763325804952  0.7300960961560049  0.07643273675966808  1.0000
  S   S17       1.0  0.9182780448206207  0.7306537017242265  0.07239896149239798  1.0000
  S   S18       1.0  0.00836433970275516  0.6908341383520084  0.055057908905099796  1.0000
  Fe  Fe10      1.0  0.9744382136640288  0.7977597761307434  0.1117972220392298  1.0000
  S   S19       1.0  0.9187716088675382  0.8025023623042449  0.10886470200382527  1.0000
  S   S20       1.0  0.0051317275554515  0.8406507026996252  0.1314161630025567  1.0000
  Fe  Fe11      1.0  0.9187998682767251  0.7467969979677417  0.11827926361621523  1.0000
  S   S21       1.0  0.889921981869579  0.728444416135034  0.1562790882528058  1.0000
  Fe  Fe12      1.0  0.9244009584971395  0.786177136736338  0.06356310553888966  1.0000
  S   S22       1.0  0.9078335832841773  0.8142225826860573  0.024387279864702273  1.0000
  S   S23       1.0  0.9746529298742795  0.742658106054556  0.12318173698516827  1.0000
  S   S24       1.0  0.980417732106746  0.7849475491370506  0.06558446943177228  1.0000
  Fe  Fe13      1.0  0.7855309341997573  0.9529329145957234  0.44560880427748417  1.0000
  S   S25       1.0  0.7661116204311519  0.9018239935967396  0.43291566575367174  1.0000
  S   S26       1.0  0.840067614081306  0.9665340692145918  0.4347877817612002  1.0000
  Fe  Fe14      1.0  0.7230493584209139  0.9664509912358871  0.48479029963252385  1.0000
  S   S27       1.0  0.6999991687253008  0.9166789560799518  0.47378348194593767  1.0000
  S   S28       1.0  0.7030573473205726  0.9982471175960931  0.5216975620959162  1.0000
  Fe  Fe15      1.0  0.7517680101536092  0.8955808064506885  0.47848059354358297  1.0000
  S   S29       1.0  0.7600104722190035  0.8516606688819336  0.5076804021153433  1.0000
  Fe  Fe16      1.0  0.7163821482637545  0.9281285109825498  0.4293745575907935  1.0000
  S   S30       1.0  0.6818084061309377  0.9195334212348456  0.39240184985767157  1.0000
  S   S31       1.0  0.774275090627159  0.94443852600804  0.491897878570538  1.0000
  S   S32       1.0  0.73626649558531  0.980103490634175  0.4395846949833142  1.0000
  Fe  Fe17      1.0  0.711635816653738  0.5345131348789466  0.19706600811990624  1.0000
  S   S33       1.0  0.7076086788665499  0.5908656040398795  0.19548900102508118  1.0000
  S   S34       1.0  0.6664108554752531  0.503220017207301  0.18300259576763953  1.0000
  Fe  Fe18      1.0  0.782325508022345  0.5373904406015243  0.22580096923463508  1.0000
  S   S35       1.0  0.7826046793449177  0.5939303484261149  0.2252766849618113  1.0000
  S   S36       1.0  0.8297649722778512  0.5092891015066282  0.2399195390094534  1.0000
  Fe  Fe19      1.0  0.7290521256420633  0.5898340183013399  0.23935399547266942  1.0000
  S   S37       1.0  0.7101448014181284  0.6183346327057527  0.2774828246760407  1.0000
  Fe  Fe20      1.0  0.7613444040473472  0.5892148022686573  0.18148429232055124  1.0000
  S   S38       1.0  0.7793710049039245  0.6156046745420948  0.14213192132928584  1.0000
  S   S39       1.0  0.7296258945405996  0.5333248596943315  0.2424761001138049  1.0000
  S   S40       1.0  0.76441538490597  0.532687025599202  0.1805204783779934  1.0000
  Fe  Fe21      1.0  0.09523634683465489  0.27596314008633854  0.09109047923198865  1.0000
  S   S41       1.0  0.04870135064689481  0.2934065772398696  0.11297679740548554  1.0000
  S   S42       1.0  0.14258527426047107  0.3065240680879329  0.09095534209113387  1.0000
  Fe  Fe22      1.0  0.059583862831629454  0.2188430317711575  0.061347275240090746  1.0000
  S   S43       1.0  0.009525405775973866  0.23270741834149056  0.08009882659036356  1.0000
  S   S44       1.0  0.066160090505716  0.17856597343309152  0.02797457387580639  1.0000
  Fe  Fe23      1.0  0.02424835952539514  0.2866147632731649  0.07045740121952823  1.0000
  S   S45       1.0  0.9921672638792862  0.32973381068023544  0.053109152128885596  1.0000
  Fe  Fe24      1.0  0.038750304031536585  0.23790572368972887  0.12079102858370462  1.0000
  S   S46       1.0  0.02170426144163695  0.22028720592544984  0.16470175435877535  1.0000
  S   S47       1.0  0.07149660636908876  0.2718035187342398  0.04847654407698066  1.0000
  S   S48       1.0  0.0880785353774898  0.2214992621886555  0.10229170281986058  1.0000
  Fe  Fe25      1.0  0.0023654454564163707  0.9635022930108212  0.2679639728151484  1.0000
  S   S49       1.0  0.9627556523912065  0.9997293988499895  0.25392336557984035  1.0000
  S   S50       1.0  0.9936264718555317  0.9086967150807188  0.25389668645754176  1.0000
  Fe  Fe26      1.0  0.03534326233983951  0.017586358195973074  0.3069497383994622  1.0000
  S   S51       1.0  0.9956862879572606  0.05589979097378416  0.29522467925900026  1.0000
  S   S52       1.0  0.0751426865039278  0.04403916397201135  0.3344512052822583  1.0000
  Fe  Fe27      1.0  0.9586308473229018  0.013421934116589226  0.30021853376086116  1.0000
  S   S53       1.0  0.9051281729323772  0.015893354747945843  0.3178071272707532  1.0000
  Fe  Fe28      1.0  0.003715801902076169  0.038506905112199924  0.25042683492052964  1.0000
  S   S54       1.0  0.01609739231563404  0.0678864994197113  0.2098884875582699  1.0000
  S   S55       1.0  0.9973002011993992  0.9762342029273179  0.3146811683987945  1.0000
  S   S56       1.0  0.04413473934485625  0.0011077861932038413  0.2617563254173227  1.0000
  Fe  Fe29      1.0  0.03128720928708534  0.4845141901703538  0.37931152453976513  1.0000
  S   S57       1.0  0.981045409414617  0.4578772359648759  0.3802442564570116  1.0000
  S   S58       1.0  0.07466466085416039  0.457294298088015  0.3568326243847988  1.0000
  Fe  Fe30      1.0  0.007308689544966773  0.5391270312705362  0.4211127806191728  1.0000
  S   S59       1.0  0.956674951133559  0.5159568011933763  0.42440966668263447  1.0000
  S   S60       1.0  0.021742732297679757  0.5868904072200604  0.44541892244654835  1.0000
  Fe  Fe31      1.0  0.9831262539592667  0.4659262761446728  0.4274522200925598  1.0000
  S   S61       1.0  0.9597434101443623  0.43165590793537373  0.46103569060301375  1.0000
  Fe  Fe32      1.0  0.9586410283250683  0.5099657204663116  0.3769732539975489  1.0000
  S   S62       1.0  0.9095241558995929  0.5276918249415034  0.35654223027960763  1.0000
  S   S63       1.0  0.034143113461544375  0.4895666432949346  0.42699905698714036  1.0000
  S   S64       1.0  0.008595429911895004  0.5362687919698832  0.3732979034160156  1.0000
  Fe  Fe33      1.0  0.5171893008627912  0.7905203508369676  0.31897932886309993  1.0000
  S   S65       1.0  0.5718235099481154  0.7811793732816412  0.31097456288789366  1.0000
  S   S66       1.0  0.4898193369354688  0.8375047747332819  0.3029617282938532  1.0000
  Fe  Fe34      1.0  0.510078595960491  0.7250328397388854  0.35496972383038655  1.0000
  S   S67       1.0  0.5638006178759913  0.7110545712916126  0.3482550304338215  1.0000
  S   S68       1.0  0.47584474228480406  0.695263128855911  0.3847021281329431  1.0000
  Fe  Fe35      1.0  0.5743791865791509  0.765731975492629  0.35656041778420816  1.0000
  S   S69       1.0  0.616369866714011  0.7743288652938983  0.38752943509732124  1.0000
  Fe  Fe36      1.0  0.5560963050989803  0.7275602255435403  0.30336800721692275  1.0000
  S   S70       1.0  0.5766442084017026  0.7021951606500858  0.26425212062985665  1.0000
  S   S71       1.0  0.5210803816142212  0.7793156500992653  0.3657630445022576  1.0000
  S   S72       1.0  0.5009789427679179  0.7373755192927242  0.30887642023528566  1.0000
  Fe  Fe37      1.0  0.4589263164005882  0.2888535176865446  0.36979117517750737  1.0000
  S   S73       1.0  0.41190449520172345  0.2694324742571978  0.3899384048528913  1.0000
  S   S74       1.0  0.4861925274975312  0.3362702050990872  0.3849247822768726  1.0000
  Fe  Fe38      1.0  0.45870944118003576  0.23225465184010008  0.3233423431170361  1.0000
  S   S75       1.0  0.4123978814907799  0.20906493772283088  0.34129743413643926  1.0000
  S   S76       1.0  0.480106755920882  0.2144502540799661  0.28088389707384087  1.0000
  Fe  Fe39      1.0  0.39352204179129147  0.2620522761129918  0.34545152627529907  1.0000
  S   S77       1.0  0.34162437285105995  0.2709422596080746  0.3285137032172838  1.0000
  Fe  Fe40      1.0  0.43560872896794817  0.21852117317471625  0.3837429398384801  1.0000
  S   S78       1.0  0.43425667878080526  0.17804854028747788  0.417037497156205  1.0000
  S   S79       1.0  0.4386083534296684  0.28536972425001694  0.32541765532976297  1.0000
  S   S80       1.0  0.48405215891137027  0.237911434745494  0.36582664263293924  1.0000
  Fe  Fe41      1.0  0.4808811275698673  0.040063801884399126  0.18446386137221882  1.0000
  S   S81       1.0  0.45459824474062066  0.9898238704040091  0.18197851028707662  1.0000
  S   S82       1.0  0.4661897689993717  0.06685951922424911  0.22593392164590217  1.0000
  Fe  Fe42      1.0  0.5213947737670654  0.023770236353360952  0.1305468186168343  1.0000
  S   S83       1.0  0.4980732842061856  0.9728043530648777  0.12512818150699592  1.0000
  S   S84       1.0  0.5594842226535702  0.046560578440957956  0.09981640464697687  1.0000
  Fe  Fe43      1.0  0.4491436526585442  0.9985682455072065  0.1350814015231528  1.0000
  S   S85       1.0  0.40086259215416764  0.9763879068171529  0.11650591129028538  1.0000
  Fe  Fe44      1.0  0.5045819783335335  0.967505881629518  0.17226970040793863  1.0000
  S   S86       1.0  0.5249227231121476  0.9179471814870406  0.1897413304824022  1.0000
  S   S87       1.0  0.47167040412835937  0.05062251087514869  0.1380466113783712  1.0000
  S   S88       1.0  0.5317806433195811  0.016807208875198095  0.17713939398672904  1.0000
  Fe  Fe45      1.0  0.22157768701287586  0.06959503266146329  0.5017353526929901  1.0000
  S   S89       1.0  0.23573075457797446  0.016682615990755902  0.48939386373932825  1.0000
  S   S90       1.0  0.18279025614435296  0.0787748894181258  0.5355175958931724  1.0000
  Fe  Fe46      1.0  0.26635574999912076  0.10055391723914708  0.4577046670001712  1.0000
  S   S91       1.0  0.2836467454264349  0.05037980600284819  0.4413504765991009  1.0000
  S   S92       1.0  0.28155771915230254  0.15117154122253715  0.4407441172358723  1.0000
  Fe  Fe47      1.0  0.22924753585840496  0.03514045838578069  0.44450793425125845  1.0000
  S   S93       1.0  0.20002623086019194  0.003123212335700787  0.4124427154852191  1.0000
  Fe  Fe48      1.0  0.2885201041550857  0.03682209615327264  0.4877106725692897  1.0000
  S   S94       1.0  0.3372546862981387  0.01154947723588351  0.5019683528127734  1.0000
  S   S95       1.0  0.2119321089914737  0.08662407633922432  0.45733222077972924  1.0000
  S   S96       1.0  0.2745060847795741  0.08840671664653509  0.5034728528423482  1.0000
  C   C1        1.0  0.3712893114077187  0.9814175228844833  0.08844757440686794  1.0000
  C   C2        1.0  0.37052961538734974  0.00878394761902603  0.06947345271688277  1.0000
  C   C3        1.0  0.3455598583505332  0.010476308995162503  0.04798385487732842  1.0000
  C   C4        1.0  0.32153392967614397  0.9846459237816771  0.045307200289413485  1.0000
  C   C5        1.0  0.3227056538931962  0.9576448920666889  0.06430538488909147  1.0000
  C   C6        1.0  0.34702015837523625  0.9561708246931354  0.08563300993800764  1.0000
  H   H1        1.0  0.3891048169955242  0.028498211057496937  0.07131866257517001  1.0000
  H   H2        1.0  0.3451971347227229  0.03142073877413592  0.03336715644090353  1.0000
  H   H3        1.0  0.4011481386033721  0.988417269431189  0.5219999197137465  1.0000
  H   H4        1.0  0.3471173655086066  0.9349774896491607  0.09999706640074177  1.0000
  C   C7        1.0  0.3248230049727833  0.1580710682104927  0.4386573174220845  1.0000
  C   C8        1.0  0.3364101070872051  0.19108578055541534  0.4352924847596867  1.0000
  C   C9        1.0  0.37010824720277397  0.197178353108078  0.4290969629737185  1.0000
  C   C10       1.0  0.3925583728190544  0.17031823504258872  0.4266410767810282  1.0000
  C   C11       1.0  0.38133676284527046  0.13726120894843147  0.4311132766205294  1.0000
  C   C12       1.0  0.3474280801649788  0.1311076115677321  0.4372123280667279  1.0000
  H   H5        1.0  0.31910114417952484  0.2120374361953002  0.4368228700584008  1.0000
  H   H6        1.0  0.37867219424715315  0.22275796330819084  0.4263055268104589  1.0000
  H   H7        1.0  0.3986009777410664  0.11638188828441522  0.42887322772391495  1.0000
  H   H8        1.0  0.3385231507228324  0.10549869967498798  0.4394897436657534  1.0000
  C   C13       1.0  0.47597802795750493  0.17328683289559474  0.2658261227674856  1.0000
  C   C14       1.0  0.45941106864512693  0.14717574080506957  0.2799512118424969  1.0000
  C   C15       1.0  0.4566997188225387  0.1149656637976071  0.2673179050537004  1.0000
  C   C16       1.0  0.4703388994195162  0.10831858792287494  0.24036683992592547  1.0000
  C   C17       1.0  0.4868836833816606  0.1344185359787961  0.22619756062614557  1.0000
  C   C18       1.0  0.4896701007731437  0.16665746771419548  0.2388795012013289  1.0000
  H   H9        1.0  0.44884521569389574  0.1517203566983499  0.30068882983543305  1.0000
  H   H10       1.0  0.4438764604567429  0.09503761221816528  0.27853309104282464  1.0000
  H   H11       1.0  0.497618731002085  0.1297811425115829  0.20552202551129786  1.0000
  H   H12       1.0  0.5026682332162855  0.18654741843144895  0.2277517526856202  1.0000
  C   C19       1.0  0.4997897604276427  0.8594968818378527  0.2713310816790071  1.0000
  C   C20       1.0  0.5261648663523899  0.8494196539473448  0.2537454326678229  1.0000
  C   C21       1.0  0.5334342694993779  0.867641219584842  0.22890877359639927  1.0000
  C   C22       1.0  0.514532106340061  0.8961478490072655  0.22134347796347786  1.0000
  C   C23       1.0  0.48793444880940906  0.9061230827376908  0.23874920511663886  1.0000
  C   C24       1.0  0.4807099511937359  0.8879364876154263  0.26365455195248566  1.0000
  H   H13       1.0  0.540967526054582  0.8275487217599022  0.2592936329447213  1.0000
  H   H14       1.0  0.5539623087612979  0.8595863373002532  0.21553237293051306  1.0000
  H   H15       1.0  0.47291184622757815  0.927738086034755  0.23304994816027164  1.0000
  H   H16       1.0  0.46013710205020014  0.8957800453456225  0.2770658728780325  1.0000
  C   C25       1.0  0.10916791113224154  0.0316224142210093  0.3565581623639598  1.0000
  C   C26       1.0  0.11934565390747566  0.9980225020841693  0.3593649755944247  1.0000
  C   C27       1.0  0.14708815370216166  0.989792757031581  0.3765800031385118  1.0000
  C   C28       1.0  0.16491974200567144  0.014910236161078508  0.3913385507316386  1.0000
  C   C29       1.0  0.15452812585775758  0.04848693275392528  0.3887494588117796  1.0000
  C   C30       1.0  0.12689352295493822  0.05673698288065134  0.37145644301321185  1.0000
  H   H17       1.0  0.10610350258777988  0.9783893615965408  0.34806297230119704  1.0000
  H   H18       1.0  0.15491951006435425  0.9637424577555959  0.37834979717650763  1.0000
  H   H19       1.0  0.16817292646292836  0.0681416415629728  0.39965245191762266  1.0000
  H   H20       1.0  0.1193409821524802  0.08282587451503229  0.36944176520178673  1.0000
  C   C31       1.0  0.10519003906309524  0.15811694846101085  0.02712969880177511  1.0000
  C   C32       1.0  0.12732482308278864  0.16083522904103664  0.04988553942517863  1.0000
  C   C33       1.0  0.15986664894079458  0.14790045738687127  0.04766720769148059  1.0000
  C   C34       1.0  0.16474889223994163  0.11912902523511337  0.5340029676432886  1.0000
  C   C35       1.0  0.177078060094358  0.1433421705167462  0.51523896131308  1.0000
  C   C36       1.0  0.16132328553529418  0.17486445837001227  0.51313875279161  1.0000
  H   H21       1.0  0.1195421599482449  0.17321969487744018  0.0690840970486441  1.0000
  H   H22       1.0  0.17709516963673433  0.1507897647773515  0.06514634333631295  1.0000
  H   H23       1.0  0.19874152533322023  0.13781432716599828  0.5022931787863113  1.0000
  H   H24       1.0  0.1708170042411167  0.19342976542231682  0.49842724948178907  1.0000
  C   C37       1.0  0.9752871757980393  0.34828260855426557  0.5284228365261832  1.0000
  C   C38       1.0  0.9448379968323819  0.36524991722529143  0.524782167999383  1.0000
  C   C39       1.0  0.9411202739124531  0.390252650996352  0.5040851102314539  1.0000
  C   C40       1.0  0.9677319104298516  0.39916220238373373  0.4863336547217894  1.0000
  C   C41       1.0  0.9986298752212935  0.38246310774769876  0.48974502204445974  1.0000
  C   C42       1.0  0.0024101758744020825  0.35705051344857136  0.5108026238164736  1.0000
  H   H25       1.0  0.9237232321650186  0.3589089365388929  0.5381029359724734  1.0000
  H   H26       1.0  0.9171951469875597  0.4027741091608783  0.5018428523487314  1.0000
  H   H27       1.0  0.01943602356677544  0.3888371899541302  0.47611457789385203  1.0000
  H   H28       1.0  0.026084728130245576  0.3441106448989672  0.5132381974619289  1.0000
  C   C43       1.0  0.019513102473092205  0.17768939333579314  0.1767102730764225  1.0000
  C   C44       1.0  0.030751951603362478  0.1506453325465123  0.16015123257551897  1.0000
  C   C45       1.0  0.029001847232671484  0.11734544311103383  0.17058818511579832  1.0000
  C   C46       1.0  0.01592416485361489  0.11046653563565292  0.19764684720062203  1.0000
  C   C47       1.0  0.0045847307010937755  0.1374990556218765  0.21423090598505115  1.0000
  C   C48       1.0  0.006528191448344378  0.17085963021633313  0.20384297700048012  1.0000
  H   H29       1.0  0.04072835387449161  0.15537632544496596  0.13924112100407085  1.0000
  H   H30       1.0  0.037812443160835055  0.09672926192963038  0.15750495061047337  1.0000
  H   H31       1.0  0.993954140755052  0.13276586084451591  0.23488432106112703  1.0000
  H   H32       1.0  0.9975209437175119  0.19152878730942144  0.21676400564953635  1.0000
  C   C49       1.0  0.673256170753762  0.6417928626147695  0.2734126887648537  1.0000
  C   C50       1.0  0.6538736945339737  0.6492447459529603  0.297326695040928  1.0000
  C   C51       1.0  0.6241278287784572  0.6677904975553536  0.29470363954147966  1.0000
  C   C52       1.0  0.6137247216637698  0.6790271480175077  0.2681325364971708  1.0000
  C   C53       1.0  0.633105743074151  0.6715561407413343  0.24417295959967109  1.0000
  C   C54       1.0  0.6629041870605951  0.6530249557089082  0.24681386393681964  1.0000
  H   H33       1.0  0.6616799163542384  0.6402595279138219  0.3179022840069153  1.0000
  H   H34       1.0  0.6090394898630141  0.6729049990423571  0.3131760126758136  1.0000
  H   H35       1.0  0.625175215147408  0.680352241019005  0.22357116381905345  1.0000
  H   H36       1.0  0.6780542100660738  0.6478355904054506  0.2283411229794505  1.0000
  C   C55       1.0  0.8521081443081424  0.5153278104336775  0.2721713672728753  1.0000
  C   C56       1.0  0.882386851399352  0.4978245608918774  0.2765427095143268  1.0000
  C   C57       1.0  0.9007303809265904  0.5016983640258494  0.30191391898507863  1.0000
  C   C58       1.0  0.888834319807754  0.523027221869881  0.32334096108420396  1.0000
  C   C59       1.0  0.8586177228273634  0.5405396162426522  0.3189060611353681  1.0000
  C   C60       1.0  0.8404560813906198  0.5368982391965538  0.29347524673019487  1.0000
  H   H37       1.0  0.8916252425039118  0.4810163830259506  0.26023761638318144  1.0000
  H   H38       1.0  0.9238762915130414  0.4880080185857853  0.3049460290390097  1.0000
  H   H39       1.0  0.8490884023688023  0.5570705276385804  0.33529832856850905  1.0000
  H   H40       1.0  0.8172276844754137  0.5505165261900424  0.29051108682889454  1.0000
  C   C61       1.0  0.6630745594644559  0.8794140093574078  0.3916178653556973  1.0000
  C   C62       1.0  0.6737876193313825  0.8539484213461851  0.4099348585885948  1.0000
  C   C63       1.0  0.6590200500951471  0.8218550044370505  0.4086828664111299  1.0000
  C   C64       1.0  0.6332575652348412  0.815202253032491  0.38935136135675685  1.0000
  C   C65       1.0  0.6223066138035641  0.8406938860679114  0.3711737266495385  1.0000
  C   C66       1.0  0.6373916736066801  0.872686761694962  0.37218310638100316  1.0000
  H   H41       1.0  0.6936597465276442  0.8589372847588286  0.424899916432584  1.0000
  H   H42       1.0  0.6676582330355747  0.802182006361368  0.4227191922244156  1.0000
  H   H43       1.0  0.6023117450757031  0.835809093703223  0.3562953317451709  1.0000
  H   H44       1.0  0.6289823326951315  0.8923849604262654  0.358061233088571  1.0000
  C   C67       1.0  0.8575264573929167  0.9784669553419488  0.4014702385454948  1.0000
  C   C68       1.0  0.8926068693211912  0.97876959168591  0.3981679532002927  1.0000
  C   C69       1.0  0.9076241444859542  0.9894040165504684  0.37259621807745136  1.0000
  C   C70       1.0  0.8877147057138612  0.0005396493902702915  0.3501180415590943  1.0000
  C   C71       1.0  0.8526532436134491  0.9998810364812523  0.3533124996801375  1.0000
  C   C72       1.0  0.8376264361992503  0.9886763388789582  0.3786875252816616  1.0000
  H   H45       1.0  0.9083205933763917  0.9710601636544168  0.4156035615213627  1.0000
  H   H46       1.0  0.9345959544584854  0.9898190840570543  0.37055943280991305  1.0000
  H   H47       1.0  0.8369268002125528  0.008603221670930639  0.33620029425347014  1.0000
  H   H48       1.0  0.8106550117424728  0.988843437886193  0.38088283898253894  1.0000
  C   C73       1.0  0.6560863789653304  0.02088143517360108  0.049851911079085064  1.0000
  C   C74       1.0  0.6469471912005768  0.0539249875130558  0.05689979924931719  1.0000
  C   C75       1.0  0.6175245110660799  0.06066250400072262  0.07209543257183479  1.0000
  C   C76       1.0  0.5967786760792096  0.03453084965893183  0.0814876691071403  1.0000
  C   C77       1.0  0.6057614532482996  0.0010522677827726756  0.07479631249997151  1.0000
  C   C78       1.0  0.6352573075115261  0.9942406637016874  0.05876863048231247  1.0000
  H   H49       1.0  0.6772142738816084  0.01994304462829972  0.5757373292639841  1.0000
  H   H50       1.0  0.6109995200993571  0.08654073806394712  0.0769775500296295  1.0000
  H   H51       1.0  0.5899333790008141  0.9805776006317564  0.08178535323077163  1.0000
  H   H52       1.0  0.6421333439866865  0.968506841412774  0.05382663781222856  1.0000
  C   C79       1.0  0.8657521602532938  0.8263167716305707  0.02112350437584465  1.0000
  C   C80       1.0  0.8413834917400252  0.8145245373882425  0.039886190234676114  1.0000
  C   C81       1.0  0.8080714861446852  0.8254437619010587  0.03716827235334907  1.0000
  C   C82       1.0  0.8013943687966343  0.8368131735900374  0.5087344420759607  1.0000
  C   C83       1.0  0.823587944595767  0.843121213869254  0.4864565658008717  1.0000
  C   C84       1.0  0.8568023863698002  0.8316296541604992  0.4880335079545629  1.0000
  H   H53       1.0  0.8482064550690697  0.7970629328509413  0.056491850959044555  1.0000
  H   H54       1.0  0.7892688812605629  0.816340160634007  0.05177389339715058  1.0000
  H   H55       1.0  0.8150483764938217  0.8565774884159572  0.46792879009588234  1.0000
  H   H56       1.0  0.873766672557893  0.8360949169120491  0.47060035171644427  1.0000
  C   C85       1.0  0.8588662681709125  0.6975717642786614  0.15178595010162652  1.0000
  C   C86       1.0  0.8409242847380782  0.6864477066102461  0.17551855587739512  1.0000
  C   C87       1.0  0.8162199943787285  0.6615107055709154  0.17271733952345278  1.0000
  C   C88       1.0  0.8094034753340962  0.6475900119370653  0.14614806672773242  1.0000
  C   C89       1.0  0.8272944493436184  0.6587406878121567  0.1224114822172555  1.0000
  C   C90       1.0  0.8520683814303838  0.683645540087852  0.1252140143516097  1.0000
  H   H57       1.0  0.8459852356392698  0.6973596111420538  0.19607760655762052  1.0000
  H   H58       1.0  0.8021064375583452  0.6534815336730772  0.1910034509277244  1.0000
  H   H59       1.0  0.8220363516387885  0.6480155290560751  0.1018124147597712  1.0000
  H   H60       1.0  0.865778644881913  0.6921052589935284  0.10683189786362884  1.0000
  C   C91       1.0  0.9720566220270909  0.6347191719778128  0.5241051453265666  1.0000
  C   C92       1.0  0.9588893139987567  0.6049748820038932  0.5121838927217709  1.0000
  C   C93       1.0  0.9729432525355802  0.5907220469517905  0.4874757557024925  1.0000
  C   C94       1.0  0.0010750858381287642  0.6054665453779691  0.47492741596700255  1.0000
  C   C95       1.0  0.014098428840773959  0.6352980494271717  0.4867385913986935  1.0000
  C   C96       1.0  0.9996278034924756  0.6499463370486274  0.5110884306513921  1.0000
  H   H61       1.0  0.04970872824280881  0.6472538885648983  0.020711702461858827  1.0000
  H   H62       1.0  0.9623921709661981  0.5680565939052457  0.4783938614677941  1.0000
  H   H63       1.0  0.036004939036617736  0.6467811675548409  0.4773218543756467  1.0000
  H   H64       1.0  0.010590247546988304  0.672325129868473  0.5203822401982692  1.0000
  C   C97       1.0  0.9977657122222099  0.8616911612348274  0.16427229805999635  1.0000
  C   C98       1.0  0.01565642136409445  0.8913909985330373  0.1704292093738823  1.0000
  C   C99       1.0  0.013311948434350462  0.9070600019295897  0.19724094242031126  1.0000
  C   C100      1.0  0.993723339369061  0.8926736220693362  0.2185909400260375  1.0000
  C   C101      1.0  0.975601145637956  0.8630889284428247  0.21237940588633  1.0000
  C   C102      1.0  0.9770899699953862  0.8480313723549372  0.1852725191791117  1.0000
  H   H65       1.0  0.03174643149102862  0.9022316689801678  0.15442069493096763  1.0000
  H   H66       1.0  0.027563397295072636  0.9296703346759564  0.20165521088747057  1.0000
  H   H67       1.0  0.9606570799371642  0.8514157914916992  0.22873059562777634  1.0000
  H   H68       1.0  0.963138999706672  0.8252014859106691  0.18095792146236028  1.0000
  C   C103      1.0  0.1783770661864927  0.3318393294248425  0.1800721443442036  1.0000
  C   C104      1.0  0.15314702089306026  0.30778368345021834  0.17603275884572966  1.0000
  C   C105      1.0  0.14188926157252227  0.30006674587541726  0.14866987833457682  1.0000
  C   C106      1.0  0.15637507955888966  0.3159009435959304  0.12528097620197937  1.0000
  C   C107      1.0  0.18169440716541754  0.33985996350099096  0.12928470008355403  1.0000
  C   C108      1.0  0.19247497326676583  0.3480813092753836  0.1566964754420869  1.0000
  H   H69       1.0  0.1422161404308743  0.2951428144205277  0.19407990290595878  1.0000
  H   H70       1.0  0.12232304092238659  0.28152213369429274  0.14569456314614576  1.0000
  H   H71       1.0  0.1929911087857644  0.3521504892911433  0.11122972680905108  1.0000
  H   H72       1.0  0.2120468099589483  0.36661513145115676  0.15969509024204476  1.0000
  C   C109      1.0  0.32828910531663724  0.37635738509109384  0.29149868668991274  1.0000
  C   C110      1.0  0.3056777090327475  0.3506730991989923  0.284697121365653  1.0000
  C   C111      1.0  0.3095456722340483  0.3184622914217977  0.29655923920797905  1.0000
  C   C112      1.0  0.33622477079363483  0.3117809045988948  0.3149553394916985  1.0000
  C   C113      1.0  0.3587943592010119  0.3374725767918662  0.3217546763662455  1.0000
  C   C114      1.0  0.3547239118726627  0.3697612643756968  0.3101417146211075  1.0000
  H   H73       1.0  0.285253187393024  0.3555791205781629  0.27025713258685763  1.0000
  H   H74       1.0  0.29202136317784777  0.2986517289090417  0.29123392600825554  1.0000
  H   H75       1.0  0.3792392086584405  0.3326201800735911  0.33618514562069884  1.0000
  H   H76       1.0  0.372230283418818  0.38960050504434635  0.31550555187144785  1.0000
  C   C115      1.0  0.15058898712716653  0.48524813658972743  0.2868310560269812  1.0000
  C   C116      1.0  0.12524581904184998  0.5081897105263996  0.29456446032934785  1.0000
  C   C117      1.0  0.10200152075814328  0.5003895936074522  0.31614152973004345  1.0000
  C   C118      1.0  0.10389710277669689  0.4694797754904058  0.3302864855262156  1.0000
  C   C119      1.0  0.12951868858601073  0.4467288675238308  0.32274667951779634  1.0000
  C   C120      1.0  0.15276106834386763  0.454553479292071  0.3012501665476484  1.0000
  H   H77       1.0  0.12334980285748477  0.5320667269839796  0.2836302553022569  1.0000
  H   H78       1.0  0.08249768788245009  0.5181869092596302  0.32168760322390544  1.0000
  H   H79       1.0  0.13127483571256138  0.4228017459957139  0.33361778502562384  1.0000
  H   H80       1.0  0.17207570208531214  0.4366727265445162  0.2956671962015574  1.0000
  C   C121      1.0  0.5058610909072313  0.6051094241673066  0.441301847352615  1.0000
  C   C122      1.0  0.4753665972021452  0.6218711855914123  0.44537225735073527  1.0000
  C   C123      1.0  0.4663703034154984  0.6491108033970457  0.42767020572933095  1.0000
  C   C124      1.0  0.48774662490865034  0.6600580782244849  0.4058229799627487  1.0000
  C   C125      1.0  0.5181382147486614  0.6431902497426223  0.4016919204511524  1.0000
  C   C126      1.0  0.527048269257056  0.6159016574168701  0.41927883895526713  1.0000
  H   H81       1.0  0.4587498798342383  0.613868867592181  0.46214869930998914  1.0000
  H   H82       1.0  0.4427056152600412  0.6618300474119795  0.43098192848854316  1.0000
  H   H83       1.0  0.5346979661947782  0.6509753641244769  0.3848249111753904  1.0000
  H   H84       1.0  0.5505898612807073  0.6030075129350633  0.4158121362051477  1.0000
  C   C127      1.0  0.4798303057855443  0.39300664040294236  0.47036886089048024  1.0000
  C   C128      1.0  0.4612365618146157  0.36326837349002417  0.46601209439148483  1.0000
  C   C129      1.0  0.4609615837592913  0.3468845453776638  0.43943643882539846  1.0000
  C   C130      1.0  0.48040549830631696  0.3593120453291116  0.4170907492091013  1.0000
  C   C131      1.0  0.49860800255602594  0.3892845849999026  0.4213340940164228  1.0000
  C   C132      1.0  0.49802478908128484  0.40626194637276275  0.44765293496731456  1.0000
  H   H85       1.0  0.44699944081391063  0.3528367458462725  0.48338958651250613  1.0000
  H   H86       1.0  0.4462645452106242  0.32429137997196444  0.43650864126791833  1.0000
  H   H87       1.0  0.5137928571192003  0.39919015840048006  0.40430352827149824  1.0000
  H   H88       1.0  0.5126524202247148  0.428952207785513  0.4506614181898693  1.0000
  C   C133      1.0  0.6445549812874827  0.50940113823626  0.15058160407008633  1.0000
  C   C134      1.0  0.6578235070983676  0.5290235894902398  0.1287386299210828  1.0000
  C   C135      1.0  0.6404825746737756  0.5321419699136203  0.10287649767999966  1.0000
  C   C136      1.0  0.6093281024081904  0.5163735584812217  0.09866762911417475  1.0000
  C   C137      1.0  0.5955827728981106  0.4974544848835082  0.12079866195750338  1.0000
  C   C138      1.0  0.6132896481099687  0.49372584276673614  0.14647434109258717  1.0000
  H   H89       1.0  0.6818363876859973  0.5412237347748203  0.13150251437617982  1.0000
  H   H90       1.0  0.6514370023971229  0.5467819179571831  0.08593852853063524  1.0000
  H   H91       1.0  0.5716363507103778  0.48519034612832584  0.11797258907446147  1.0000
  H   H92       1.0  0.602788613102137  0.47840491448152783  0.16317223724988594  1.0000
  C   C139      1.0  0.3903571533138525  0.47453888112547915  0.11352898235257976  1.0000
  C   C140      1.0  0.3643683240347281  0.47247701975825196  0.09374375437677454  1.0000
  C   C141      1.0  0.33099090157237115  0.4677677610988345  0.10292641404584968  1.0000
  C   C142      1.0  0.3232238380327912  0.46441767467889505  0.13189218402101047  1.0000
  C   C143      1.0  0.3493046373753571  0.4659858189608854  0.15158073622162754  1.0000
  C   C144      1.0  0.3825413865617602  0.4712805032701343  0.14244629624788713  1.0000
  H   H93       1.0  0.3699353371559804  0.4744633593783225  0.07143641423512202  1.0000
  H   H94       1.0  0.31104445217984344  0.4664607746352347  0.08750395287672151  1.0000
  H   H95       1.0  0.34381347605754614  0.46361244213806413  0.17390835392336995  1.0000
  H   H96       1.0  0.4023683376523618  0.4728955737970525  0.15797079031977007  1.0000
  Fe  Fe49      1.0  0.4469891510422995  0.519634319114988  0.5466474413394509  1.0000
  S   S97       1.0  0.4807057103103373  0.4795501710320037  0.5638206394359755  1.0000
  S   S98       1.0  0.39646283916924885  0.5323760927275734  0.5672566473953478  1.0000
  Fe  Fe50      1.0  0.48109349067601875  0.528413027195687  0.01030182459601603  1.0000
  S   S99       1.0  0.5293105073503852  0.500650059727259  0.0027630274423680046  1.0000
  S   S100      1.0  0.45679682166612784  0.5720213001935933  0.9860452451212055  1.0000
  Fe  Fe51      1.0  0.5001746803821323  0.4533137465289484  0.012584239047289225  1.0000
  S   S101      1.0  0.5161031761459487  0.40297000232743685  0.9926988126954891  1.0000
  Fe  Fe52      1.0  0.5227761046430138  0.5171578729049701  0.5590851297791118  1.0000
  S   S102      1.0  0.5559152193284999  0.5391468685609426  0.5945789031843315  1.0000
  S   S103      1.0  0.4507669561443346  0.4805127816416092  0.016959758577715034  1.0000
  S   S104      1.0  0.48816505217125367  0.5583858742932356  0.5440620531582103  1.0000
  Fe  Fe53      1.0  0.28393366493842637  0.4609398230068861  0.6981627300472909  1.0000
  S   S105      1.0  0.26434091421945805  0.4103738705379501  0.684413301481743  1.0000
  S   S106      1.0  0.3370046678309626  0.4731665408161453  0.6825166497910524  1.0000
  Fe  Fe54      1.0  0.22274809728749134  0.4720709504041297  0.739016865336466  1.0000
  S   S107      1.0  0.1993245509090243  0.42300786539454543  0.7262779982365045  1.0000
  S   S108      1.0  0.20362436288965782  0.5005793220652653  0.7782192453468243  1.0000
  Fe  Fe55      1.0  0.25128767973895894  0.40193234287840507  0.7298952157164572  1.0000
  S   S109      1.0  0.25824314455366637  0.35462886344950334  0.7554406910057595  1.0000
  Fe  Fe56      1.0  0.21468379739906204  0.43652971432737464  0.6820816520709587  1.0000
  S   S110      1.0  0.18330159172823057  0.4271256139473903  0.6431284402678445  1.0000
  S   S111      1.0  0.2745622868545497  0.45012697904155413  0.7443698563733037  1.0000
  S   S112      1.0  0.23441757985623274  0.48806656586709474  0.6939006890125738  1.0000
  Fe  Fe57      1.0  0.9463801010046702  0.7046787436578498  0.5719126891052726  1.0000
  S   S113      1.0  0.8953988937548246  0.7240187237579525  0.5601094539227266  1.0000
  S   S114      1.0  0.954640111349187  0.6504676041724714  0.5561735073965967  1.0000
  Fe  Fe58      1.0  0.9597637336162641  0.7683881281453223  0.6097896407203538  1.0000
  S   S115      1.0  0.9101731869721823  0.7913246008337889  0.5989433495281702  1.0000
  S   S116      1.0  0.9916600404234401  0.7917304712244368  0.6450572817205174  1.0000
  Fe  Fe59      1.0  0.8900358203691007  0.7391121133043047  0.6055000437809296  1.0000
  S   S117      1.0  0.8447249115887788  0.7314968511311443  0.63309608086348  1.0000
  Fe  Fe60      1.0  0.9209673170953399  0.7738013361162338  0.5547219406545116  1.0000
  S   S118      1.0  0.9105785024440081  0.8038075878379479  0.5151910157583925  1.0000
  S   S119      1.0  0.9389097183815713  0.7164910617831645  0.6182732218577475  1.0000
  S   S120      1.0  0.9727120729161358  0.7543061113732111  0.5644299671697456  1.0000
  Fe  Fe61      1.0  0.7696420415154325  0.9680452318631664  0.9512424102501819  1.0000
  S   S121      1.0  0.751672758010684  0.9154247515663889  0.9409551857780778  1.0000
  S   S122      1.0  0.8122718423027862  0.9981254168544439  0.930568626230196  1.0000
  Fe  Fe62      1.0  0.7149692686780756  0.9779760471344482  0.9981024692787532  1.0000
  S   S123      1.0  0.6940113931556566  0.9266423191999381  0.9908583448608944  1.0000
  S   S124      1.0  0.6939436783628136  0.015672777635098705  0.030125140604126077  1.0000
  Fe  Fe63      1.0  0.7474012394415595  0.9093983479484186  0.9881748195773912  1.0000
  S   S125      1.0  0.7576621666732153  0.8627351591216552  0.013871074243341441  1.0000
  Fe  Fe64      1.0  0.6999142179324717  0.9376500005082138  0.9446981096788194  1.0000
  S   S126      1.0  0.6538827598321199  0.9282832448680292  0.9183059975995193  1.0000
  S   S127      1.0  0.7686199720874679  0.9602835276668702  0.9986416526353192  1.0000
  S   S128      1.0  0.717676968879658  0.9906342156300249  0.9517549251602793  1.0000
  Fe  Fe65      1.0  0.7147542277773801  0.5339450791569506  0.7025307251807515  1.0000
  S   S129      1.0  0.7286981374445076  0.5880499142061916  0.6944998323384068  1.0000
  S   S130      1.0  0.68187201402966  0.5026776691990437  0.6726980469480023  1.0000
  Fe  Fe66      1.0  0.7685814080378517  0.5271120496181161  0.7505492806405737  1.0000
  S   S131      1.0  0.7866993205146277  0.5797316562703716  0.7441907490092875  1.0000
  S   S132      1.0  0.7891536404231477  0.4926147912777829  0.7848618469741449  1.0000
  Fe  Fe67      1.0  0.731860050048182  0.5923163237149516  0.7419545596412976  1.0000
  S   S133      1.0  0.7179665653324764  0.6351396474691868  0.7707975039602087  1.0000
  Fe  Fe68      1.0  0.7816390933754326  0.5695324695184791  0.6978656366157207  1.0000
  S   S134      1.0  0.8220179146067518  0.5785482401702259  0.6657509046421483  1.0000
  S   S135      1.0  0.7135447235739077  0.5397458450742143  0.7501317288622018  1.0000
  S   S136      1.0  0.7681248983096471  0.5153395568038381  0.7040482578271161  1.0000
  Fe  Fe69      1.0  0.07187949286308386  0.2707493418146523  0.616179131155953  1.0000
  S   S137      1.0  0.015836358303591282  0.26581679817279386  0.6188926895872942  1.0000
  S   S138      1.0  0.10695652522129988  0.2874075721693887  0.6507525019251114  1.0000
  Fe  Fe70      1.0  0.07585634562916749  0.23528246050913798  0.559921153794204  1.0000
  S   S139      1.0  0.020378371576326097  0.22710475434814908  0.5575856168087274  1.0000
  S   S140      1.0  0.11449078892668184  0.22222877936619673  0.5269732733280811  1.0000
  Fe  Fe71      1.0  0.016726224762597074  0.28101120025305065  0.5725656696933357  1.0000
  S   S141      1.0  0.9766254162451701  0.3166980929597897  0.5553752615735541  1.0000
  Fe  Fe72      1.0  0.023896033022790374  0.2124462589433313  0.6038039673111958  1.0000
  S   S142      1.0  0.999594085514013  0.16289568782643546  0.6181969542316732  1.0000
  S   S143      1.0  0.07205332073444845  0.2900682345845474  0.5716553403813899  1.0000
  S   S144      1.0  0.07971189637890104  0.21656764364934586  0.6043084386920407  1.0000
  Fe  Fe73      1.0  0.9858102649524878  0.9686133758712181  0.7428893262951846  1.0000
  S   S145      1.0  0.9414764648410149  0.0013920008693415653  0.7543150794774348  1.0000
  S   S146      1.0  0.9747523636799292  0.9374706058764066  0.7027956691628823  1.0000
  Fe  Fe74      1.0  0.029719738999743978  0.0026017798684763224  0.789777006544137  1.0000
  S   S147      1.0  0.9872921679507193  0.03622202703786648  0.8031260343449471  1.0000
  S   S148      1.0  0.08077829836345414  0.01782017323959416  0.8085404546985357  1.0000
  Fe  Fe75      1.0  0.9544824023577865  0.9901512200091276  0.7997733572099232  1.0000
  S   S149      1.0  0.9190717043710768  0.9657880203708755  0.8324427315034368  1.0000
  Fe  Fe76      1.0  0.978485487812028  0.04431061040492704  0.7563446066307151  1.0000
  S   S150      1.0  0.9751352604924531  0.0993026832771861  0.7411773074592937  1.0000
  S   S151      1.0  0.9976723997152458  0.955538098449282  0.7883427562809484  1.0000
  S   S152      1.0  0.022012183752220072  0.012383590145805368  0.743069400682541  1.0000
  Fe  Fe77      1.0  0.02903031110975895  0.5131769349852928  0.875216950994152  1.0000
  S   S153      1.0  0.002452721496998489  0.46465312973897166  0.8845297251312537  1.0000
  S   S154      1.0  0.05622856249667501  0.5096895892099247  0.8322305505582767  1.0000
  Fe  Fe78      1.0  0.9932957145197198  0.5482371828219862  0.9260360959465112  1.0000
  S   S155      1.0  0.965148171795129  0.5008567713647921  0.9375657587647195  1.0000
  S   S156      1.0  0.9748391041241105  0.5962584528534856  0.9489507688220699  1.0000
  Fe  Fe79      1.0  0.013960247708036774  0.4739074373685217  0.9303337470998061  1.0000
  S   S157      1.0  0.03685616968347801  0.4282419100081699  0.9530700484733391  1.0000
  Fe  Fe80      1.0  0.9557770445690855  0.4952733553659019  0.8906995827811846  1.0000
  S   S158      1.0  0.907158867465154  0.47139953674291735  0.8746256090841965  1.0000
  S   S159      1.0  0.043400864747211526  0.5214993251567308  0.9211559499983873  1.0000
  S   S160      1.0  0.9811489550606292  0.5436457562260723  0.8792075396853019  1.0000
  Fe  Fe81      1.0  0.5280539642386309  0.7823005165545853  0.8290580600727037  1.0000
  S   S161      1.0  0.5790985059427791  0.7641403397146495  0.8159519623400653  1.0000
  S   S162      1.0  0.5048292616754586  0.8316431835475724  0.8126003613598037  1.0000
  Fe  Fe82      1.0  0.5216903259167089  0.7253219283588233  0.8750562806587628  1.0000
  S   S163      1.0  0.5727601698808122  0.7052439175605973  0.8652927200661641  1.0000
  S   S164      1.0  0.48549385953797214  0.6992104149037729  0.9057217130719033  1.0000
  Fe  Fe83      1.0  0.5886633930657956  0.7594989187364226  0.8626135111616331  1.0000
  S   S165      1.0  0.638476019198548  0.7762163695224629  0.8801957663144052  1.0000
  Fe  Fe84      1.0  0.5578414726361017  0.711889184256053  0.8199882751377618  1.0000
  S   S166      1.0  0.5645770200186058  0.6675728538377087  0.7905736321603479  1.0000
  S   S167      1.0  0.5386604536998617  0.7797379713715153  0.8760610942877202  1.0000
  S   S168      1.0  0.5057456389068327  0.7300254630792888  0.82942578395275  1.0000
  Fe  Fe85      1.0  0.46040789233395507  0.267102838764082  0.8666327700267036  1.0000
  S   S169      1.0  0.41082673258803504  0.29204612131132435  0.8599723193410442  1.0000
  S   S170      1.0  0.49713409012892823  0.2857273098289035  0.9002667814952788  1.0000
  Fe  Fe86      1.0  0.44327033068678484  0.20740545268698085  0.8253477481444015  1.0000
  S   S171      1.0  0.391764503539511  0.22853444120880523  0.8177421972899003  1.0000
  S   S172      1.0  0.4499532474379589  0.15489304486990518  0.8056401624830021  1.0000
  Fe  Fe87      1.0  0.4180634308245896  0.27823877685568454  0.8142955995982767  1.0000
  S   S173      1.0  0.408977764640273  0.31280524707992635  0.7773814978749654  1.0000
  Fe  Fe88      1.0  0.3901458818298396  0.23964665206483904  0.864196234122017  1.0000
  S   S174      1.0  0.34818069527057416  0.23074423869222713  0.8951154863885032  1.0000
  S   S175      1.0  0.46998157723331596  0.25711685331115314  0.8200735409467168  1.0000
  S   S176      1.0  0.4393459138158958  0.21480710141877196  0.872578575437227  1.0000
  Fe  Fe89      1.0  0.5095488118228391  0.03936526039574825  0.6733278197441604  1.0000
  S   S177      1.0  0.4692407316488262  0.0024216464200890186  0.6852648776555178  1.0000
  S   S178      1.0  0.5197345582250831  0.08960646503003551  0.6960924814250411  1.0000
  Fe  Fe90      1.0  0.5312003139949529  0.9986843037173668  0.620390551156048  1.0000
  S   S179      1.0  0.49168615522523174  0.9596477140762142  0.6291760760391863  1.0000
  S   S180      1.0  0.5572716052360028  0.987312827159531  0.5779512831510747  1.0000
  Fe  Fe91      1.0  0.45675840755407743  0.002387069596022841  0.6385137340414473  1.0000
  S   S181      1.0  0.4014031916265572  0.004019111558254446  0.6258930878456426  1.0000
  Fe  Fe92      1.0  0.5072564100180478  0.9619650999274141  0.674973271778239  1.0000
  S   S182      1.0  0.5156467962141607  0.9089337471249929  0.6936465340264504  1.0000
  S   S183      1.0  0.4947819442648284  0.04168161012323741  0.6271363686030001  1.0000
  S   S184      1.0  0.5490170768889966  0.998855610584957  0.6657209105005943  1.0000
  Fe  Fe93      1.0  0.22503200791128225  0.08387019796991457  0.9851062385928877  1.0000
  S   S185      1.0  0.2097242436654744  0.03039877381150617  0.9928797369297027  1.0000
  S   S186      1.0  0.21287040070834695  0.12180536883814203  0.019023518490739688  1.0000
  Fe  Fe94      1.0  0.26793219125007933  0.06456382448464068  0.9352896020011038  1.0000
  S   S187      1.0  0.25696058293776  0.009369112576198149  0.9406585471542497  1.0000
  S   S188      1.0  0.30117191089726264  0.07837643700037107  0.8987220627735509  1.0000
  Fe  Fe95      1.0  0.20350402676197968  0.026642430411228168  0.9454868276220575  1.0000
  S   S189      1.0  0.16101902069396964  0.9965230155766761  0.9245713324916746  1.0000
  Fe  Fe96      1.0  0.2646240733607528  0.019096204818994014  0.9872329038985443  1.0000
  S   S190      1.0  0.2887757851379985  0.9838168857247542  0.01955784140063388  1.0000
  S   S191      1.0  0.21433106807573032  0.08163891795426195  0.9383250101462735  1.0000
  S   S192      1.0  0.27996661509793425  0.07274652743384113  0.9810822115059078  1.0000
  C   C145      1.0  0.38441401275228726  0.00673210433105439  0.5911527376874405  1.0000
  C   C146      1.0  0.3513385095021163  0.018303619713186135  0.5876583032461028  1.0000
  C   C147      1.0  0.3364653629425124  0.019914359395757815  0.5605970029245588  1.0000
  C   C148      1.0  0.3542551196720429  0.009115136978195564  0.536712866196538  1.0000
  C   C149      1.0  0.38718828309461034  0.9970774078087855  0.5402642933360099  1.0000
  C   C150      1.0  0.4023642693411658  0.996318543701965  0.5672297549310746  1.0000
  H   H97       1.0  0.337113322909034  0.026187718696592897  0.6060192761532575  1.0000
  H   H98       1.0  0.31112456874456856  0.02917109093255218  0.5582690913359357  1.0000
  H   H99       1.0  0.30453977902692236  0.9375104973404915  0.06253639504245556  1.0000
  H   H100      1.0  0.4277042474788983  0.9870442131842625  0.5695516369419639  1.0000
  C   C151      1.0  0.3144900410660652  0.1206457867163346  0.8983725650274953  1.0000
  C   C152      1.0  0.30119353816009375  0.1442272685268005  0.9173982997524469  1.0000
  C   C153      1.0  0.3115979282416228  0.1780614529095968  0.9162739770745514  1.0000
  C   C154      1.0  0.33546901811919233  0.1883129264206027  0.8962926535327617  1.0000
  C   C155      1.0  0.349060938857601  0.16463228697531374  0.8775444885566139  1.0000
  C   C156      1.0  0.3384330979857697  0.13090707738502638  0.878486640785025  1.0000
  H   H101      1.0  0.2826877823425185  0.1364604002686517  0.9327791655115723  1.0000
  H   H102      1.0  0.3010433133075317  0.19630786249141993  0.9308092661589221  1.0000
  H   H103      1.0  0.3676007687821404  0.17228605503811986  0.8621459427242735  1.0000
  H   H104      1.0  0.3489047509663687  0.11273988689900757  0.8638127401912954  1.0000
  C   C157      1.0  0.4696662150517111  0.13761018565944153  0.7749710614817616  1.0000
  C   C158      1.0  0.494420428926167  0.15485306681023364  0.7598378212899055  1.0000
  C   C159      1.0  0.5092558058714972  0.13987547098897504  0.7357084344038158  1.0000
  C   C160      1.0  0.4996139457137939  0.1075200618545487  0.7263497613227354  1.0000
  C   C161      1.0  0.4746748571403684  0.09042907422911936  0.7413788325501232  1.0000
  C   C162      1.0  0.4599630452671311  0.10533321961021769  0.7655666630130762  1.0000
  H   H105      1.0  0.5027865136853618  0.179287072889018  0.7671479651963438  1.0000
  H   H106      1.0  0.5287665375758889  0.15319050827009345  0.7244472538326284  1.0000
  H   H107      1.0  0.46702472052459176  0.06553626931121502  0.734576793336144  1.0000
  H   H108      1.0  0.44097676522660817  0.09165020320502686  0.7771520975103196  1.0000
  C   C163      1.0  0.5083052982683307  0.8527322495784021  0.779354080970416  1.0000
  C   C164      1.0  0.5240440866271672  0.8380055000518929  0.7559136016867662  1.0000
  C   C165      1.0  0.5261518108662253  0.8557246404852333  0.7300580327155121  1.0000
  C   C166      1.0  0.5130645885810953  0.8885802806301071  0.7272730103106917  1.0000
  C   C167      1.0  0.49780614859994826  0.9035434551959146  0.75085259388364  1.0000
  C   C168      1.0  0.4952751855436641  0.8856284205768571  0.7766173101644295  1.0000
  H   H109      1.0  0.5341630479770585  0.812759939752055  0.7575518727210738  1.0000
  H   H110      1.0  0.5379427482152762  0.8437906036342581  0.711997553978921  1.0000
  H   H111      1.0  0.48754028958162443  0.9287198390951917  0.7491488608206732  1.0000
  H   H112      1.0  0.48303918701787013  0.8973516604949134  0.7945640557301494  1.0000
  C   C169      1.0  0.10046890006249286  0.012680924477399689  0.8421720735425318  1.0000
  C   C170      1.0  0.09614718326202708  0.9836815803784679  0.8586044400106302  1.0000
  C   C171      1.0  0.11435548965794792  0.9795380400024007  0.8839787247424203  1.0000
  C   C172      1.0  0.1371850151159663  0.004213959611780726  0.8933286061915898  1.0000
  C   C173      1.0  0.14109690428034546  0.033474022315728  0.8771682506008087  1.0000
  C   C174      1.0  0.12316276454052014  0.03745718977871746  0.8516241329896966  1.0000
  H   H113      1.0  0.07994286946346976  0.963742696138231  0.8511523334928939  1.0000
  H   H114      1.0  0.11136668134398671  0.956629786294763  0.896125217047143  1.0000
  H   H115      1.0  0.15802119320085392  0.0529677874122888  0.8843364926816936  1.0000
  H   H116      1.0  0.12688163532381966  0.05995049607620494  0.8391066019519217  1.0000
  C   C175      1.0  0.13337490062073587  0.18239827159325198  0.5299340339338345  1.0000
  C   C176      1.0  0.12123400388261336  0.15833782986248324  0.548940071396785  1.0000
  C   C177      1.0  0.1369150499379103  0.12671363255969553  0.5509475878662325  1.0000
  C   C178      1.0  0.17049925788293013  0.13235386149807077  0.022629881675992003  1.0000
  C   C179      1.0  0.14793830365555324  0.12790674965238158  0.00033765945218866555  1.0000
  C   C180      1.0  0.11523953170539916  0.14080688629061175  0.0026192381627436756  1.0000
  H   H117      1.0  0.09948179641389125  0.16385502940809168  0.5617769463847091  1.0000
  H   H118      1.0  0.12726294363587573  0.10799917819954022  0.5654452717894356  1.0000
  H   H119      1.0  0.15598868053766995  0.11570388198484381  0.9809825544385429  1.0000
  H   H120      1.0  0.09809202300374775  0.13841685179536137  0.9850138221546705  1.0000
  C   C181      1.0  0.0039593884263844385  0.3563225366751416  0.024548457016659198  1.0000
  C   C182      1.0  0.9853916668186911  0.3858137549815229  0.019116252537329848  1.0000
  C   C183      1.0  0.995012700216018  0.4083173086770792  0.9974576354068573  1.0000
  C   C184      1.0  0.023198885162473083  0.4013385372746852  0.9807994453496148  1.0000
  C   C185      1.0  0.041467105402168775  0.3716782956460148  0.9860589770110159  1.0000
  C   C186      1.0  0.03190803058793292  0.3492861125868261  0.007710071803930463  1.0000
  H   H121      1.0  0.9637471296794913  0.391558305558444  0.03206550216685922  1.0000
  H   H122      1.0  0.9809051341800876  0.4312329286786479  0.9939500039819521  1.0000
  H   H123      1.0  0.06314171980637842  0.36589175476572083  0.9731626180054084  1.0000
  H   H124      1.0  0.04615423001458989  0.3265283391220632  0.011289398843931764  1.0000
  C   C187      1.0  0.99441814294516  0.14564361895390315  0.6527493323232019  1.0000
  C   C188      1.0  0.9879712455160523  0.11089881379244243  0.655561326066931  1.0000
  C   C189      1.0  0.9822152718641336  0.09627137792470272  0.6823496102312835  1.0000
  C   C190      1.0  0.9820517851294178  0.11638971509942322  0.7067235502306248  1.0000
  C   C191      1.0  0.9882316682813143  0.15121315413596037  0.7038830823411484  1.0000
  C   C192      1.0  0.9948126399908591  0.16570689767793628  0.6771594864174356  1.0000
  H   H125      1.0  0.9873473252953722  0.09511254051406652  0.6368570256460272  1.0000
  H   H126      1.0  0.9773596486139647  0.06949430621895868  0.6840740433433935  1.0000
  H   H127      1.0  0.9879877363593549  0.1671094102798839  0.7225272071642334  1.0000
  H   H128      1.0  0.9994513563127226  0.19250027278224402  0.6754167614667601  1.0000
  C   C193      1.0  0.6751740588983942  0.6435229818377365  0.7758803299577891  1.0000
  C   C194      1.0  0.6657936881170127  0.6698669151677349  0.7940387258622695  1.0000
  C   C195      1.0  0.631869410521978  0.6772099557527982  0.7986473393023643  1.0000
  C   C196      1.0  0.6071354213754067  0.6582030158111901  0.7851034407584812  1.0000
  C   C197      1.0  0.6164648043602614  0.6315130786515736  0.7671961666636625  1.0000
  C   C198      1.0  0.6504939168388113  0.6241369143553854  0.7625832272738797  1.0000
  H   H129      1.0  0.684805177985624  0.6849084582525866  0.8043769959880788  1.0000
  H   H130      1.0  0.6249108691179254  0.6978125175372311  0.8125057855427341  1.0000
  H   H131      1.0  0.5973861884660648  0.6167824961131557  0.7566588118229635  1.0000
  H   H132      1.0  0.6575829675791369  0.6037491079433793  0.7485467577228498  1.0000
  C   C199      1.0  0.8229661860270222  0.49003903891021644  0.8093557345754635  1.0000
  C   C200      1.0  0.8464959159481457  0.5158595951075279  0.8141921825933983  1.0000
  C   C201      1.0  0.8730073119829855  0.5110189017952083  0.833916743780063  1.0000
  C   C202      1.0  0.8756594497373797  0.4805234015527729  0.8490309250134069  1.0000
  C   C203      1.0  0.8517599250498319  0.4553794562200019  0.8442045855964783  1.0000
  C   C204      1.0  0.8258782294559429  0.4600352489387607  0.8246327408932023  1.0000
  H   H133      1.0  0.8441521445022544  0.5394698212607585  0.8030162093153004  1.0000
  H   H134      1.0  0.8910730872293634  0.5308357440134763  0.8377103819682985  1.0000
  H   H135      1.0  0.8532840589238377  0.43184966831757393  0.8556844036043817  1.0000
  H   H136      1.0  0.8079494889618908  0.43995606718006164  0.8212688825878587  1.0000
  C   C205      1.0  0.6496944886978995  0.886187200740764  0.9074435030793909  1.0000
  C   C206      1.0  0.6779062362270734  0.8658388654646003  0.9035217005397229  1.0000
  C   C207      1.0  0.6741811103903541  0.8323031207107519  0.8945653573876887  1.0000
  C   C208      1.0  0.6422574069954211  0.8189137042644726  0.8896507655370832  1.0000
  C   C209      1.0  0.6140389568011917  0.8393409582844062  0.8934170290881915  1.0000
  C   C210      1.0  0.6177700249635857  0.8729605465501304  0.9022802206065673  1.0000
  H   H137      1.0  0.7026409474561807  0.8760741477818167  0.906955662305052  1.0000
  H   H138      1.0  0.6961150045308727  0.8167192731151984  0.8913162499620774  1.0000
  H   H139      1.0  0.5893261730907652  0.8291457889007418  0.8899526774059124  1.0000
  H   H140      1.0  0.5958721573106479  0.8886091803424223  0.9054786924253293  1.0000
  C   C211      1.0  0.8403566395172163  0.9887286310581994  0.9021285995205148  1.0000
  C   C212      1.0  0.8585183756281304  0.01520811637231984  0.8894950303116456  1.0000
  C   C213      1.0  0.8818885513662029  0.008960680800187137  0.8675900532433197  1.0000
  C   C214      1.0  0.8880021379513579  0.9759238034234795  0.8583958326555081  1.0000
  C   C215      1.0  0.8699908910937679  0.9494423953952337  0.871143818299236  1.0000
  C   C216      1.0  0.8461319752524699  0.955760367647319  0.8926385544806966  1.0000
  H   H141      1.0  0.8542435198750017  0.04082710416942699  0.8965801553701133  1.0000
  H   H142      1.0  0.8951026099414172  0.029728601900528503  0.8579101017915429  1.0000
  H   H143      1.0  0.8744579852496276  0.9237744635925478  0.8642891595488092  1.0000
  H   H144      1.0  0.8325742596636752  0.9350731943921783  0.9021354243942198  1.0000
  C   C217      1.0  0.662286238407025  0.9954974398927033  0.5369348272083039  1.0000
  C   C218      1.0  0.6567550610488714  0.00822984119626624  0.5644134565677409  1.0000
  C   C219      1.0  0.6249367501519891  0.005944901501896065  0.5774349772384771  1.0000
  C   C220      1.0  0.5980762647460948  0.9912511530713702  0.5629364252183494  1.0000
  C   C221      1.0  0.6036112683105074  0.9787739170207156  0.5353815499606527  1.0000
  C   C222      1.0  0.6354565319959443  0.9807639224494866  0.5224859661323531  1.0000
  H   H145      1.0  0.6627179364984664  0.07471947347204136  0.05043070426221852  1.0000
  H   H146      1.0  0.6211097194612154  0.015834195187734896  0.5985514888671258  1.0000
  H   H147      1.0  0.5830353132590486  0.9675214674567352  0.5238694117648446  1.0000
  H   H148      1.0  0.6391313664978684  0.9711639274684092  0.5012532145360284  1.0000
  C   C223      1.0  0.8681442368903689  0.8147940838645921  0.5122336653355601  1.0000
  C   C224      1.0  0.845816663856669  0.8080311353982773  0.5342890293914159  1.0000
  C   C225      1.0  0.8124210747262208  0.8187999820912664  0.5324264957545437  1.0000
  C   C226      1.0  0.7991880912724139  0.8484784706610448  0.015977864362205496  1.0000
  C   C227      1.0  0.8235124377735673  0.8601497644966989  0.9971553465655492  1.0000
  C   C228      1.0  0.8567202421465111  0.8489195197317582  0.9996393948183181  1.0000
  H   H149      1.0  0.8542792799087823  0.7948095393220365  0.55295194206638  1.0000
  H   H150      1.0  0.7952684657794543  0.8136618877508649  0.5496200585785682  1.0000
  H   H151      1.0  0.8167308230651034  0.8777088649646758  0.9806136941742067  1.0000
  H   H152      1.0  0.875530484014945  0.8580291152143654  0.9850447811930282  1.0000
  C   C229      1.0  0.8383776423207188  0.6889680581165942  0.6420474341108647  1.0000
  C   C230      1.0  0.8133765261507938  0.680333712687239  0.6615694499676144  1.0000
  C   C231      1.0  0.8083142621957208  0.6464614112203233  0.669128385189566  1.0000
  C   C232      1.0  0.8281914066118666  0.6211593383450541  0.6570575524906654  1.0000
  C   C233      1.0  0.8530647746848848  0.6297714828644817  0.6374609746101676  1.0000
  C   C234      1.0  0.8582102630053745  0.6636195641880446  0.6300030872196474  1.0000
  H   H153      1.0  0.7979496380038771  0.6998702433001285  0.6709031842665423  1.0000
  H   H154      1.0  0.7890711812130627  0.6400211626902875  0.6842987932609088  1.0000
  H   H155      1.0  0.8684490630024742  0.6102889292110231  0.6279976125834533  1.0000
  H   H156      1.0  0.8774084056435557  0.6700242629302142  0.6147797179853154  1.0000
  C   C235      1.0  0.9981110017957927  0.660579209779361  0.02829091915083759  1.0000
  C   C236      1.0  0.02406671853198672  0.6432839294934481  0.014161226715743158  1.0000
  C   C237      1.0  0.017302210846454003  0.6217487891162827  0.9909382899018154  1.0000
  C   C238      1.0  0.9844196899576868  0.6174761448085101  0.9813217002277196  1.0000
  C   C239      1.0  0.9584260359793064  0.6340572852500597  0.9959727217178155  1.0000
  C   C240      1.0  0.9651115294345987  0.6548641592986174  0.019600326880141905  1.0000
  H   H157      1.0  0.9376211448697217  0.5929492228101083  0.5221285426306003  1.0000
  H   H158      1.0  0.037660528373786084  0.609585067813152  0.9797514291599883  1.0000
  H   H159      1.0  0.932886695518733  0.6309358320574752  0.9888293786739963  1.0000
  H   H160      1.0  0.944709420769181  0.6669764177374449  0.030741050899284916  1.0000
  C   C241      1.0  0.9868982787959512  0.8324515531311977  0.6608143376745803  1.0000
  C   C242      1.0  0.00416202956204044  0.8400319262505954  0.6860308249431066  1.0000
  C   C243      1.0  0.0004073123254404454  0.8716898148547209  0.6995513504160465  1.0000
  C   C244      1.0  0.9797264987764509  0.896444044356196  0.6877105700930699  1.0000
  C   C245      1.0  0.9625719561947474  0.8888330248422246  0.6624627533668201  1.0000
  C   C246      1.0  0.9659709105614358  0.8570882186265713  0.6491682488319875  1.0000
  H   H161      1.0  0.020566238761187995  0.821288979056353  0.6951976889550097  1.0000
  H   H162      1.0  0.01395420335771604  0.8771527198136307  0.7188258711286507  1.0000
  H   H163      1.0  0.9466483989066035  0.9078011074268308  0.6530252078636818  1.0000
  H   H164      1.0  0.9527357587256555  0.851890003302397  0.6296970288442906  1.0000
  C   C247      1.0  0.16219601494765226  0.3882100522987772  0.6448470173997961  1.0000
  C   C248      1.0  0.13798991657574905  0.37992032197441994  0.6244981509925351  1.0000
  C   C249      1.0  0.12060982273966982  0.3491262021575698  0.6261250823591578  1.0000
  C   C250      1.0  0.12758244010339384  0.32649409919766637  0.6480385403268349  1.0000
  C   C251      1.0  0.15217120892744343  0.33459971720261256  0.6680304571719017  1.0000
  C   C252      1.0  0.1694775387129285  0.3652989250012757  0.6664166536049059  1.0000
  H   H165      1.0  0.13221509015415947  0.3975990534502691  0.6078046784153902  1.0000
  H   H166      1.0  0.10149894957152003  0.34319396453836476  0.6107340066182055  1.0000
  H   H167      1.0  0.1577218089360959  0.31719168270530235  0.6850009067576176  1.0000
  H   H168      1.0  0.1883416091158669  0.3712362382777469  0.6820201752723152  1.0000
  C   C253      1.0  0.30021970190169905  0.3435215403466644  0.7616805486479554  1.0000
  C   C254      1.0  0.32627282795358725  0.3597792048507994  0.7474133587671493  1.0000
  C   C255      1.0  0.3596212579619012  0.35023616501770766  0.7524245029699477  1.0000
  C   C256      1.0  0.36706885082208734  0.3248954677987277  0.7720840376087713  1.0000
  C   C257      1.0  0.3410268187728895  0.3089615986316779  0.7866453735967628  1.0000
  C   C258      1.0  0.3076419811634056  0.3181025608661296  0.7812822210153216  1.0000
  H   H169      1.0  0.32075620818604184  0.3794839170632157  0.7323114256000531  1.0000
  H   H170      1.0  0.37970034516465734  0.36267759199512006  0.7411586883067834  1.0000
  H   H171      1.0  0.3465580196494467  0.28945529859646624  0.8018976937675072  1.0000
  H   H172      1.0  0.28755355085600426  0.30548909947066455  0.7923875095322181  1.0000
  C   C259      1.0  0.16273320283711948  0.5004017123316066  0.7937174640649868  1.0000
  C   C260      1.0  0.1584131200703576  0.512709942789609  0.8215064056353777  1.0000
  C   C261      1.0  0.12631685312164534  0.5143794877498157  0.834170081468126  1.0000
  C   C262      1.0  0.09789882294126527  0.5044750608174648  0.8189319073349479  1.0000
  C   C263      1.0  0.10233711879666654  0.49184014977069834  0.7912663075188671  1.0000
  C   C264      1.0  0.13448552628761876  0.4893664909179673  0.7788782330491724  1.0000
  H   H173      1.0  0.17992690551378968  0.5216880139565109  0.8331568491413748  1.0000
  H   H174      1.0  0.1234051999623321  0.524558384057993  0.8552840310324679  1.0000
  H   H175      1.0  0.08063131275745544  0.4842699979012025  0.7791588298288323  1.0000
  H   H176      1.0  0.13721141134443976  0.4799839554887141  0.7574866833317131  1.0000
  C   C265      1.0  0.4682980324335891  0.6067475799337216  0.963963796036302  1.0000
  C   C266      1.0  0.4425722390620078  0.6287743272103973  0.956018442162299  1.0000
  C   C267      1.0  0.4489109178966759  0.6567602632873505  0.9387363064229483  1.0000
  C   C268      1.0  0.4811273829623269  0.6635178573396723  0.9285522352124834  1.0000
  C   C269      1.0  0.5073443731315218  0.6415116964073065  0.9362396647250871  1.0000
  C   C270      1.0  0.5009432934013335  0.613201458097504  0.9539948961908008  1.0000
  H   H177      1.0  0.41730732099604523  0.6242420660560658  0.9633447523766757  1.0000
  H   H178      1.0  0.42842790504532563  0.6733062217619494  0.9330550461796906  1.0000
  H   H179      1.0  0.5324936712241434  0.6465007991987113  0.9289036170896883  1.0000
  H   H180      1.0  0.5211553272986486  0.5965367253266997  0.9600193922734135  1.0000
  C   C271      1.0  0.5078235616044743  0.37191456182297195  0.9661005243723709  1.0000
  C   C272      1.0  0.4808262398909958  0.37298245228308347  0.9469326982839433  1.0000
  C   C273      1.0  0.47663732841456063  0.34694520977368615  0.9263762968067382  1.0000
  C   C274      1.0  0.4995226042358592  0.31990825454768307  0.924914514247698  1.0000
  C   C275      1.0  0.5260474953368761  0.31915147804736527  0.9442259559344168  1.0000
  C   C276      1.0  0.5300849845630323  0.34467011928700525  0.964520036366123  1.0000
  H   H181      1.0  0.46341358967827767  0.39386244111772883  0.9478088433216736  1.0000
  H   H182      1.0  0.45608828663599427  0.34803657336041954  0.9115204935994611  1.0000
  H   H183      1.0  0.5439153609661713  0.29862754659248425  0.9433999756745121  1.0000
  H   H184      1.0  0.5509629437978083  0.34332401981913097  0.9790143794907878  1.0000
  C   C277      1.0  0.6465326745802269  0.5132460240410179  0.6514767851860636  1.0000
  C   C278      1.0  0.6342080676089598  0.4892684037986104  0.6320692714578969  1.0000
  C   C279      1.0  0.6066920768315498  0.4966497924609574  0.6143547531869284  1.0000
  C   C280      1.0  0.591082301378561  0.5281953972556654  0.6158749269394569  1.0000
  C   C281      1.0  0.603417663373669  0.5521754864776478  0.6352979188061406  1.0000
  C   C282      1.0  0.6309252109941386  0.5448096438216693  0.6529898109099826  1.0000
  H   H185      1.0  0.6459940852294574  0.4647275587114523  0.6307342738841966  1.0000
  H   H186      1.0  0.5975182908123651  0.47789570967868356  0.5996147450967757  1.0000
  H   H187      1.0  0.5915737516541415  0.576678265598991  0.6366929298671693  1.0000
  H   H188      1.0  0.6399226287296974  0.5634960033284034  0.6678609009011913  1.0000
  C   C283      1.0  0.37929596113903935  0.5141912860739268  0.5984260604111226  1.0000
  C   C284      1.0  0.35101496777046537  0.5292340146307725  0.6109753243659193  1.0000
  C   C285      1.0  0.3371164975645814  0.5162811511202118  0.6361582041934207  1.0000
  C   C286      1.0  0.3512807004851208  0.4879510308420209  0.6491114411613562  1.0000
  C   C287      1.0  0.3794640605889479  0.4727666377376503  0.6364720012467701  1.0000
  C   C288      1.0  0.39317194207221345  0.48555058496420506  0.6111125146119637  1.0000
  H   H189      1.0  0.3401890442549011  0.5515108926268929  0.6014404424440559  1.0000
  H   H190      1.0  0.3161109689598547  0.5289106777233209  0.6460600231871568  1.0000
  H   H191      1.0  0.39085136645714663  0.4510471100634224  0.6464319245785622  1.0000
  H   H192      1.0  0.41451599786043447  0.4733139103037863  0.6014142172210482  1.0000
  N   N1        1.0  0.8726627052897977  0.43745635621044215  0.38825024797319807  1.0000
  C   C289      1.0  0.869801061034796  0.4712166402597762  0.4013793015273209  1.0000
  C   C290      1.0  0.8860441886293453  0.4408317797261101  0.3592074214225577  1.0000
  C   C291      1.0  0.8392372257301426  0.42156113528263206  0.3870759602643031  1.0000
  C   C292      1.0  0.8955152168986283  0.4163202820493017  0.4053038967181704  1.0000
  H   H193      1.0  0.858933714218315  0.46988070733057985  0.4230207634950653  1.0000
  H   H194      1.0  0.8539398995295574  0.48841870923814396  0.3884331803663311  1.0000
  H   H195      1.0  0.8947322119555409  0.4834742581812319  0.40327585655293563  1.0000
  H   H196      1.0  0.9109464867417613  0.4533753977694067  0.35918109295105544  1.0000
  H   H197      1.0  0.8889965356267608  0.415890588634588  0.34866301668831723  1.0000
  H   H198      1.0  0.8693090140743616  0.45656289517454895  0.34575045600362053  1.0000
  H   H199      1.0  0.840443103044466  0.3961273710220834  0.3770730389112629  1.0000
  H   H200      1.0  0.8214184312519768  0.4370843268732288  0.37446246209661815  1.0000
  H   H201      1.0  0.8283874168244634  0.41848960642708005  0.40862256148640036  1.0000
  H   H202      1.0  0.8983976748496754  0.3906116614971538  0.39611842196468017  1.0000
  H   H203      1.0  0.8864775571849132  0.41354394360033836  0.4274762850918259  1.0000
  H   H204      1.0  0.9209556199679103  0.4276322468883965  0.40661008160013185  1.0000
  N   N2        1.0  0.23595794281425106  0.41786173533186116  0.8259402576008557  1.0000
  C   C293      1.0  0.2451938215229505  0.4537421128823352  0.8293699724012827  1.0000
  C   C294      1.0  0.2201330429815025  0.4055315240183792  0.8522112922345787  1.0000
  C   C295      1.0  0.2663378039744879  0.397779047872245  0.8197613044508214  1.0000
  C   C296      1.0  0.21204982267055966  0.41444484251507935  0.8022904797394056  1.0000
  H   H205      1.0  0.2227539659863906  0.46970511028633755  0.8336037505524616  1.0000
  H   H206      1.0  0.257015526914691  0.4638566817374153  0.809774503134528  1.0000
  H   H207      1.0  0.26314834065206044  0.4574744139935563  0.8470515112294453  1.0000
  H   H208      1.0  0.2127077082924475  0.37856877323284305  0.8501402754521804  1.0000
  H   H209      1.0  0.23746565459274302  0.4076696778562765  0.8705393635551227  1.0000
  H   H210      1.0  0.19712025732271918  0.42027379321164543  0.8573272683376564  1.0000
  H   H211      1.0  0.2602870514880861  0.3705599086428985  0.8168659252318637  1.0000
  H   H212      1.0  0.28515558439120037  0.3998249728798238  0.8369947784125041  1.0000
  H   H213      1.0  0.2785974626433706  0.4062134363741263  0.7997999819884408  1.0000
  H   H214      1.0  0.20519248926111042  0.38762412337418756  0.7983372910313783  1.0000
  H   H215      1.0  0.2230623851229429  0.4242139400298091  0.7824204792827966  1.0000
  H   H216      1.0  0.18865518471369194  0.4291003867286081  0.8061474189152296  1.0000
  N   N3        1.0  0.6776705179245454  0.7560750892868684  0.31462887741182916  1.0000
  C   C297      1.0  0.6693369446643673  0.7910687811534496  0.3229517501909239  1.0000
  C   C298      1.0  0.6634038543710099  0.7486952040387134  0.28642320709188435  1.0000
  C   C299      1.0  0.6635625093071327  0.7324512152559739  0.33562605575050913  1.0000
  C   C300      1.0  0.714431924513694  0.7519838555812951  0.3135861986312003  1.0000
  H   H217      1.0  0.6799002347089734  0.7975502244859324  0.3440887937889821  1.0000
  H   H218      1.0  0.6418022597572748  0.7947934418454279  0.32450195197974935  1.0000
  H   H219      1.0  0.6790821619898391  0.809735418907699  0.3074734710016329  1.0000
  H   H220      1.0  0.6702898776463322  0.7228818611898917  0.2791253122025004  1.0000
  H   H221      1.0  0.6355339269401713  0.7500874081779688  0.28662194732138563  1.0000
  H   H222      1.0  0.672473946659998  0.7667707071400417  0.2701776665563286  1.0000
  H   H223      1.0  0.6704790586393159  0.7059030260023034  0.3307356398992814  1.0000
  H   H224      1.0  0.635739690957368  0.7339150772538755  0.3361614062534437  1.0000
  H   H225      1.0  0.6725466894177868  0.738260870522265  0.3573983804508143  1.0000
  H   H226      1.0  0.7215219655793247  0.7257754502053296  0.30736268300123504  1.0000
  H   H227      1.0  0.7259538414319998  0.7572425055938542  0.33458433948223476  1.0000
  H   H228      1.0  0.7259103261424971  0.7694475266650181  0.2979405728470056  1.0000
  N   N4        1.0  0.09188656483215762  0.1089378317381938  0.26414239128077466  1.0000
  C   C301      1.0  0.11648586867401209  0.11964081061198474  0.2857007902245296  1.0000
  C   C302      1.0  0.09761897434469376  0.0731130303589634  0.25687176413261215  1.0000
  C   C303      1.0  0.09553717713572336  0.1297784806787474  0.23841484394885026  1.0000
  C   C304      1.0  0.057742867042220286  0.1130418681405702  0.2756801681577889  1.0000
  H   H229      1.0  0.1142417020589491  0.10402991560959726  0.3052538690465529  1.0000
  H   H230      1.0  0.11259912770476499  0.14645072295534164  0.2919259907759532  1.0000
  H   H231      1.0  0.14258481286564226  0.11690137751277012  0.27779478511812056  1.0000
  H   H232      1.0  0.09463627569866626  0.05661869750323936  0.27575588990275957  1.0000
  H   H233      1.0  0.07947912355363228  0.06422707246054579  0.2405803377920613  1.0000
  H   H234      1.0  0.12320084535085883  0.0689110404384649  0.24828310793695424  1.0000
  H   H235      1.0  0.07775416023548518  0.1215881380306544  0.2216153872314168  1.0000
  H   H236      1.0  0.12117579381634806  0.12784542997558737  0.2293726617664336  1.0000
  H   H237      1.0  0.09023796691594438  0.15686916235076143  0.2427888570250771  1.0000
  H   H238      1.0  0.051709668010360754  0.13995620898973524  0.2800165754190553  1.0000
  H   H239      1.0  0.05468022026401773  0.09894749880221158  0.2958669985261154  1.0000
  H   H240      1.0  0.038618390915783  0.10336431668872983  0.26063420572996976  1.0000
  N   N5        1.0  0.9294980731076077  0.7133643014882459  0.4724114192872692  1.0000
  C   C305      1.0  0.8951355417882702  0.7132367457612282  0.48408243743870627  1.0000
  C   C306      1.0  0.9535861233819231  0.7206890080505975  0.49530802045792494  1.0000
  C   C307      1.0  0.9322078413165007  0.7396735292523802  0.45042860458920214  1.0000
  C   C308      1.0  0.9370865240482454  0.6799495981000743  0.45996636760259396  1.0000
  H   H241      1.0  0.87620001412576  0.7081613752064968  0.46737264625044667  1.0000
  H   H242      1.0  0.8887467114972548  0.7379736678600918  0.49397929656107803  1.0000
  H   H243      1.0  0.8922233443590503  0.6935728425746408  0.5007097565115707  1.0000
  H   H244      1.0  0.950688379589873  0.702767989583069  0.5131851473791602  1.0000
  H   H245      1.0  0.9799371989323996  0.7190228938106888  0.48776653477028675  1.0000
  H   H246      1.0  0.9498815159525799  0.7464604640241259  0.504052821969456  1.0000
  H   H247      1.0  0.9579533715982309  0.7406959386377645  0.4414244934272632  1.0000
  H   H248      1.0  0.9264092830726172  0.765134416169864  0.45931416177222456  1.0000
  H   H249      1.0  0.9144615415924564  0.7349918459298701  0.4327211439613153  1.0000
  H   H250      1.0  0.9347304520596164  0.6595915722756067  0.476023960637531  1.0000
  H   H251      1.0  0.9631432367486285  0.6787558223596125  0.45157075526452667  1.0000
  H   H252      1.0  0.9197790570711424  0.6737210582298294  0.44228485350666413  1.0000
  N   N6        1.0  0.6065325964813528  0.5654066844863316  0.2308048699248149  1.0000
  C   C309      1.0  0.5877098745451571  0.5345384471102178  0.22339921232107215  1.0000
  C   C310      1.0  0.5854051157754476  0.5875641407275645  0.24862220635746834  1.0000
  C   C311      1.0  0.6159419389999632  0.5833803230884771  0.20459971591939746  1.0000
  C   C312      1.0  0.637104755491988  0.5560914502964612  0.2465850894020655  1.0000
  H   H253      1.0  0.6030483450300562  0.5173033503418858  0.2099665469634567  1.0000
  H   H254      1.0  0.5645629067931432  0.5405794239156725  0.21133622197691476  1.0000
  H   H255      1.0  0.5803279441351071  0.5202059126726506  0.24262874534041967  1.0000
  H   H256      1.0  0.562543028404004  0.5959719034664963  0.23717307890550665  1.0000
  H   H257      1.0  0.5772747431059335  0.5746084759687394  0.2683282553170782  1.0000
  H   H258      1.0  0.5991991420481898  0.6106266948312786  0.2551824842403513  1.0000
  H   H259      1.0  0.5935338555472508  0.5906061133623239  0.19203076563647722  1.0000
  H   H260      1.0  0.6320694478533153  0.5674156351301904  0.1907428217837621  1.0000
  H   H261      1.0  0.630140656864466  0.6068327413242279  0.2093337075509123  1.0000
  H   H262      1.0  0.6532674468296148  0.5387720228869273  0.23403289872935998  1.0000
  H   H263      1.0  0.631031048204524  0.5431597821120042  0.2668032263580643  1.0000
  H   H264      1.0  0.6524680346244982  0.5786253577534741  0.2518421514704137  1.0000
  N   N7        1.0  0.7314757180637848  0.5640482753828564  0.8373131946056416  1.0000
  C   C313      1.0  0.7589290444587463  0.5766160100278495  0.819248225250858  1.0000
  C   C314      1.0  0.7289513505217265  0.5269990772340978  0.8342250898362624  1.0000
  C   C315      1.0  0.6996207966292294  0.5799514267394859  0.8285438966171569  1.0000
  C   C316      1.0  0.7385618409140541  0.5726816468005872  0.8671457429044352  1.0000
  H   H265      1.0  0.7613731441831294  0.6045712664790375  0.8206132958369732  1.0000
  H   H266      1.0  0.7541775994862117  0.5704366378967796  0.7967258263369744  1.0000
  H   H267      1.0  0.783394529037842  0.5650484846142146  0.8250262482970872  1.0000
  H   H268      1.0  0.7527838986768486  0.5142444454504803  0.840244880250377  1.0000
  H   H269      1.0  0.7085781176960791  0.5164515504450001  0.8475900823141068  1.0000
  H   H270      1.0  0.7237410565730616  0.5195970978849745  0.8119077312738582  1.0000
  H   H271      1.0  0.6782209580623081  0.5712150691981392  0.8416759378601355  1.0000
  H   H272      1.0  0.6936223445893163  0.5741304354657867  0.8060430205173321  1.0000
  H   H273      1.0  0.7008530407855851  0.6079825092835522  0.8302246193143468  1.0000
  H   H274      1.0  0.7183385963066317  0.5635810545777906  0.8814297566127997  1.0000
  H   H275      1.0  0.7407182195551507  0.6004827952012551  0.8701058169004519  1.0000
  H   H276      1.0  0.7625147839146903  0.5611212164285263  0.8743474862450237  1.0000
  N   N8        1.0  0.1837017822988569  0.2575301334334515  0.5902740021222671  1.0000
  C   C317      1.0  0.20626737415570948  0.24702959089507925  0.5670478356320601  1.0000
  C   C318      1.0  0.16566385168425546  0.22771031710056858  0.6010950764906906  1.0000
  C   C319      1.0  0.15935310399689975  0.282406299254571  0.5794612255929511  1.0000
  C   C320      1.0  0.2032091236777615  0.2729517896480765  0.6135108124156157  1.0000
  H   H277      1.0  0.19188911438932912  0.2352038719309576  0.5493609655766991  1.0000
  H   H278      1.0  0.22493926143180348  0.22811637057901463  0.5743525348281987  1.0000
  H   H279      1.0  0.22011451030155182  0.2689013276740131  0.5581415751437142  1.0000
  H   H280      1.0  0.14873931880256872  0.2346626518383868  0.6189550812784494  1.0000
  H   H281      1.0  0.15009987415947562  0.21589150321919168  0.5842363814616124  1.0000
  H   H282      1.0  0.18321763956237863  0.20806077947745838  0.6089332505433427  1.0000
  H   H283      1.0  0.14106719274629825  0.2897201036598942  0.596115089782358  1.0000
  H   H284      1.0  0.14482924452333304  0.27206731227232384  0.561345769176714  1.0000
  H   H285      1.0  0.17184781164527502  0.30585043314337246  0.5721041418728697  1.0000
  H   H286      1.0  0.21699431351997703  0.29571508831898263  0.6062463981624834  1.0000
  H   H287      1.0  0.22173783578081202  0.2548934520048169  0.6223881954894755  1.0000
  H   H288      1.0  0.18649033375365648  0.28109642415570096  0.6312134554986475  1.0000
  N   N9        1.0  0.6082030275326994  0.4162058000235716  0.04293918378611027  1.0000
  C   C321      1.0  0.5992794493646312  0.4428753331227256  0.022510587985587138  1.0000
  C   C322      1.0  0.6089027184402057  0.4306527408755198  0.07180832112926518  1.0000
  C   C323      1.0  0.6415740535591428  0.40249560995840217  0.03580032851274309  1.0000
  C   C324      1.0  0.5830131497553156  0.3889365793888777  0.04157205628913052  1.0000
  H   H289      1.0  0.5979137754773421  0.43295879255340597  0.00047580968056304407  1.0000
  H   H290      1.0  0.617466163672806  0.4641591925538133  0.023068260319864642  1.0000
  H   H291      1.0  0.5743795701285536  0.4537350247080703  0.02751167843177074  1.0000
  H   H292      1.0  0.6153228811406929  0.4113530919882952  0.08795891580511186  1.0000
  H   H293      1.0  0.6275891737705976  0.45141986047569954  0.07353343670486327  1.0000
  H   H294      1.0  0.5842033593496495  0.4416883162320043  0.07769259084214937  1.0000
  H   H295      1.0  0.6491588003435421  0.3823568309296942  0.05086972211983128  1.0000
  H   H296      1.0  0.6610620042082808  0.42256452448896936  0.03658653261785612  1.0000
  H   H297      1.0  0.6418580028246946  0.39144534748087934  0.014112660257602496  1.0000
  H   H298      1.0  0.5888979863408189  0.3681996108474851  0.05656892684740065  1.0000
  H   H299      1.0  0.5813451365166962  0.37793991777954905  0.019898977169565235  1.0000
  H   H300      1.0  0.5575174404410722  0.3984791732499864  0.04683706696906988  1.0000
  N   N10       1.0  0.01315079930338614  0.4980151048214346  0.5187661179541389  1.0000
  C   C325      1.0  0.027323912050874366  0.46550420665870695  0.5090906653762257  1.0000
  C   C326      1.0  0.9777988733895995  0.5003438667596519  0.5097508459839385  1.0000
  C   C327      1.0  0.03239209466351123  0.5261755069840393  0.5063068155597872  1.0000
  C   C328      1.0  0.01500069668532511  0.4999898248560274  0.5499667603435759  1.0000
  H   H301      1.0  0.013914909202583647  0.4437823729196027  0.5187807668781499  1.0000
  H   H302      1.0  0.054270659995534265  0.46314020755382646  0.5146728547583108  1.0000
  H   H303      1.0  0.025103578087814604  0.462545216817157  0.48573471498829385  1.0000
  H   H304      1.0  0.9658906875230714  0.5240392860291867  0.5174557462733931  1.0000
  H   H305      1.0  0.9756312329624925  0.49995868665737936  0.48626526182969504  1.0000
  H   H306      1.0  0.9628332431896991  0.47866167127398856  0.5177604189629829  1.0000
  H   H307      1.0  0.0229848907323269  0.5510797326892736  0.5138313106717225  1.0000
  H   H308      1.0  0.030623934594336433  0.5262805695595738  0.48279856995748527  1.0000
  H   H309      1.0  0.05940749067378448  0.5247111898969513  0.5118630585747119  1.0000
  H   H310      1.0  0.004579162929144731  0.5242968441221884  0.5579799766678698  1.0000
  H   H311      1.0  0.041347386928269  0.49815600366105656  0.5574956090331336  1.0000
  H   H312      1.0  0.0006087697020504823  0.47917852528897065  0.5600604354152345  1.0000
  N   N11       1.0  0.8895741439197455  0.9251509743927829  0.27747599160631886  1.0000
  C   C329      1.0  0.8709680537428968  0.9570213010331821  0.2733843721012324  1.0000
  C   C330      1.0  0.8662522173595053  0.8986115595790516  0.28705695015242627  1.0000
  C   C331      1.0  0.9158406690090747  0.9301081220314352  0.2990860029614547  1.0000
  C   C332      1.0  0.9052886164429204  0.9148835337002716  0.25045200308136917  1.0000
  H   H313      1.0  0.8590755368172909  0.9657226053894914  0.29346276357311113  1.0000
  H   H314      1.0  0.85090282370428  0.9543272723224802  0.257258065196698  1.0000
  H   H315      1.0  0.8878874196458612  0.9777062713212533  0.2663333227826489  1.0000
  H   H316      1.0  0.8795602291569821  0.8742776611644232  0.2904808958095733  1.0000
  H   H317      1.0  0.8540057718728546  0.9057944439277116  0.3074131216727443  1.0000
  H   H318      1.0  0.8460963997244736  0.8941312098805869  0.2712504778232496  1.0000
  H   H319      1.0  0.9311587395527088  0.9069353778118806  0.3021417032340694  1.0000
  H   H320      1.0  0.9049814944905598  0.9375734835843292  0.31989877011595974  1.0000
  H   H321      1.0  0.9333337476897458  0.9504883181630986  0.292807306902409  1.0000
  H   H322      1.0  0.9197992685263389  0.8910809829415274  0.2528296743884541  1.0000
  H   H323      1.0  0.9232603683945281  0.9343266403489846  0.24280280605495755  1.0000
  H   H324      1.0  0.8863592580011996  0.9109176363197836  0.2335383256634519  1.0000
  N   N12       1.0  0.5549750171339839  0.7224556218632866  0.4544872236796229  1.0000
  C   C333      1.0  0.5345097623394527  0.7320021838080359  0.42976028290022883  1.0000
  C   C334      1.0  0.5419219584085203  0.7397809591402388  0.47992971104297344  1.0000
  C   C335      1.0  0.5900992546405746  0.7325709400318406  0.4495149226099022  1.0000
  C   C336      1.0  0.553264316578121  0.6855454000885983  0.4586186296947221  1.0000
  H   H325      1.0  0.5427790143406663  0.7184717584680316  0.41030545229228377  1.0000
  H   H326      1.0  0.5361366401023602  0.7595172155787641  0.4253734811144892  1.0000
  H   H327      1.0  0.5075984384141847  0.7257438979244849  0.4330090223110306  1.0000
  H   H328      1.0  0.5568833980776796  0.7333770161385297  0.49902433902616705  1.0000
  H   H329      1.0  0.5425070681003448  0.7676899123447815  0.4773030783526961  1.0000
  H   H330      1.0  0.5154669797335618  0.73244152252029  0.48419527511414834  1.0000
  H   H331      1.0  0.5923097383115845  0.7603320714972023  0.4463152800249511  1.0000
  H   H332      1.0  0.6003718872288779  0.7203861736667557  0.4300738168173152  1.0000
  H   H333      1.0  0.606504188753407  0.7254869949831041  0.4675390389996976  1.0000
  H   H334      1.0  0.5673435175580194  0.6773889826065881  0.477706431654544  1.0000
  H   H335      1.0  0.5640104083715116  0.6717702085781321  0.4401798011824018  1.0000
  H   H336      1.0  0.5269117550509133  0.6767883939928656  0.46111027826879014  1.0000
  N   N13       1.0  0.7353858292151255  0.5625418798311762  0.6079374273978211  1.0000
  C   C337      1.0  0.7565006462898509  0.5922312022788793  0.6143367450782928  1.0000
  C   C338      1.0  0.7390550700776871  0.5534301047976685  0.577754851863165  1.0000
  C   C339      1.0  0.6999292992264811  0.5705653854304626  0.613975126224688  1.0000
  C   C340      1.0  0.7460249212895842  0.5337988272000375  0.6256562071103388  1.0000
  H   H337      1.0  0.7834963087326745  0.5869319516330134  0.6103231510835572  1.0000
  H   H338      1.0  0.7544144655244643  0.5998030466237213  0.6369500450436607  1.0000
  H   H339      1.0  0.7493087698377479  0.6144650779765012  0.6013702839643041  1.0000
  H   H340      1.0  0.7234679012061083  0.5310465101476797  0.5722892851384591  1.0000
  H   H341      1.0  0.7310686333078562  0.5745078134362885  0.5637681622848807  1.0000
  H   H342      1.0  0.7655318228651531  0.5472215704728881  0.5724847020254387  1.0000
  H   H343      1.0  0.6910502104491275  0.5925624363322096  0.6014802868106943  1.0000
  H   H344      1.0  0.6960201387474343  0.5765680158943441  0.6367681619578697  1.0000
  H   H345      1.0  0.6832901697831795  0.548843494284199  0.6088641975322239  1.0000
  H   H346      1.0  0.730523467498685  0.5109415661410308  0.6215523415068185  1.0000
  H   H347      1.0  0.7432093730564902  0.539703768088723  0.6485052648764057  1.0000
  H   H348      1.0  0.772795233896064  0.5272236075303051  0.6220709301107066  1.0000
  N   N14       1.0  0.9398393891945198  0.3845036178205646  0.9217678579663211  1.0000
  C   C341      1.0  0.9401827835516632  0.41678324452610827  0.9374148054283307  1.0000
  C   C342      1.0  0.9541652171676329  0.3576495477935365  0.9397468063645122  1.0000
  C   C343      1.0  0.9601020765162387  0.38785015158918684  0.8957366752901422  1.0000
  C   C344      1.0  0.9049748522792934  0.3760122413938183  0.9141323109056677  1.0000
  H   H349      1.0  0.9283243853856309  0.4373139677994212  0.924909242972213  1.0000
  H   H350      1.0  0.9662041692954744  0.4248677971014811  0.9421856192466234  1.0000
  H   H351      1.0  0.9264793749626671  0.41496845176264247  0.9578555718771748  1.0000
  H   H352      1.0  0.9401837083381428  0.35507273767954917  0.9600305442622054  1.0000
  H   H353      1.0  0.9537740936715428  0.3327490924354972  0.9288505721903795  1.0000
  H   H354      1.0  0.9807041549690446  0.3632097778449768  0.9452814245613506  1.0000
  H   H355      1.0  0.9601515752740507  0.3641352884361968  0.8831270723713148  1.0000
  H   H356      1.0  0.9866576243880266  0.3940647899476884  0.9008081750167969  1.0000
  H   H357      1.0  0.9502958877842498  0.4083718972847009  0.8819138620460405  1.0000
  H   H358      1.0  0.9036501724517284  0.3518071280140972  0.9022211095667407  1.0000
  H   H359      1.0  0.8937198931957064  0.39600690275985445  0.9005165297385552  1.0000
  H   H360      1.0  0.88894348793029  0.3735937589041333  0.9332988529185449  1.0000
  N   N15       1.0  0.3940864687725595  0.5784379312382388  0.06049276843873957  1.0000
  C   C345      1.0  0.41797789024596543  0.604249538643221  0.05039807965130266  1.0000
  C   C346      1.0  0.3600089271299641  0.5929155818577888  0.06159786407727404  1.0000
  C   C347      1.0  0.4039234575421481  0.5669644346202288  0.08906465385174873  1.0000
  C   C348      1.0  0.3944176345047364  0.5494569400284348  0.0408101825931851  1.0000
  H   H361      1.0  0.41850134124122695  0.6266318418608607  0.06461260332446753  1.0000
  H   H362      1.0  0.4116169886513753  0.6130046536229867  0.02865866251661616  1.0000
  H   H363      1.0  0.4439238251158726  0.5940192675472291  0.0491790318060615  1.0000
  H   H364      1.0  0.34147532159692406  0.5739590162450047  0.06916998320980626  1.0000
  H   H365      1.0  0.3588297628492964  0.6149203490146735  0.07623462084100922  1.0000
  H   H366      1.0  0.35176289135684036  0.6016007014204888  0.040320761026982475  1.0000
  H   H367      1.0  0.38668700842166404  0.5470992597607125  0.09716432807246365  1.0000
  H   H368      1.0  0.40391560436290036  0.588059129935461  0.10461075060675823  1.0000
  H   H369      1.0  0.42948416131651734  0.555733101898678  0.08904735966433204  1.0000
  H   H370      1.0  0.4197150476267377  0.5380306153537379  0.03971855197335938  1.0000
  H   H371      1.0  0.38778907403199175  0.5571419687460526  0.01885879227837628  1.0000
  H   H372      1.0  0.37676102180434806  0.5293569326319598  0.047618881277981306  1.0000
  N   N16       1.0  0.26974978684325573  0.45173343982121567  0.5982964266034905  1.0000
  C   C349      1.0  0.3017335288008698  0.4606227141518275  0.5844013711947289  1.0000
  C   C350      1.0  0.24183377785483445  0.45604512023099636  0.5781219856130183  1.0000
  C   C351      1.0  0.26423899735328615  0.4739807121260546  0.6229936031116704  1.0000
  C   C352      1.0  0.2710864770407657  0.41626634486356434  0.6078133443540596  1.0000
  H   H373      1.0  0.3233113007562111  0.45688936324771734  0.5989406091587917  1.0000
  H   H374      1.0  0.30215443684428056  0.48752804848173936  0.5776623449974543  1.0000
  H   H375      1.0  0.3064409811553301  0.4448402140327409  0.5653106821761056  1.0000
  H   H376      1.0  0.21738759141374697  0.4493301238021222  0.5880894796030849  1.0000
  H   H377      1.0  0.23994376655473745  0.48266226097226556  0.5708338899572644  1.0000
  H   H378      1.0  0.24508305679203918  0.43973996861740283  0.5591284581181815  1.0000
  H   H379      1.0  0.23937744663851437  0.46937063278600694  0.6328461396020943  1.0000
  H   H380      1.0  0.26523192276604196  0.5011016690432439  0.6170594674636903  1.0000
  H   H381      1.0  0.28336799632781157  0.46964903171844824  0.6396613879440146  1.0000
  H   H382      1.0  0.24742600370160348  0.408826992522727  0.6186396980633746  1.0000
  H   H383      1.0  0.29189456732072466  0.41225822770133735  0.6231480199444929  1.0000
  H   H384      1.0  0.2750408691997362  0.39868615241696415  0.5897533783527531  1.0000
  N   N17       1.0  0.9014843498004508  0.7803261633114742  0.6966715205513975  1.0000
  C   C353      1.0  0.9239887842441239  0.7978839357686179  0.7166790338190177  1.0000
  C   C354      1.0  0.8691412682465888  0.7729811222067033  0.7105611459330886  1.0000
  C   C355      1.0  0.9172281405125036  0.7483853665222846  0.6874182422303229  1.0000
  C   C356      1.0  0.8956166258810384  0.8020574300455257  0.6718281986320885  1.0000
  H   H385      1.0  0.9487292196631033  0.8031794800048779  0.7067404362377672  1.0000
  H   H386      1.0  0.9287251886311987  0.7824863616793694  0.7359027742317532  1.0000
  H   H387      1.0  0.9134011849050526  0.8225742863560569  0.723573551843671  1.0000
  H   H388      1.0  0.8517912085731062  0.7596352268302825  0.6957960832828145  1.0000
  H   H389      1.0  0.8725343072592677  0.75658173057178  0.7294107117552954  1.0000
  H   H390      1.0  0.8564575220053747  0.7965643693264777  0.7176101588728545  1.0000
  H   H391      1.0  0.9009272469862185  0.7345016548400963  0.672255214015446  1.0000
  H   H392      1.0  0.9221910952796348  0.7313578921697017  0.7055911030028256  1.0000
  H   H393      1.0  0.9416069312860332  0.7530330895004412  0.676616937153301  1.0000
  H   H394      1.0  0.8777982555173663  0.7901563529399134  0.6567233735342731  1.0000
  H   H395      1.0  0.9193069571784408  0.8067788741038222  0.6601638987191282  1.0000
  H   H396      1.0  0.8851516634332735  0.8270250334781996  0.6780279341596954  1.0000
  N   N18       1.0  0.91636479765463  0.22007789391655241  0.5991014874741216  1.0000
  C   C357      1.0  0.9298793001781434  0.19294494084900216  0.580842505157631  1.0000
  C   C358      1.0  0.9249713868125127  0.25321836300123973  0.5867860600740934  1.0000
  C   C359      1.0  0.9310398211561757  0.21737233366608405  0.627727433626418  1.0000
  C   C360      1.0  0.8795907048073924  0.2167256726114735  0.6010414642450782  1.0000
  H   H397      1.0  0.9253231116546321  0.1675409522155176  0.590104347698409  1.0000
  H   H398      1.0  0.9574357485580676  0.1953770891907163  0.5781860444810594  1.0000
  H   H399      1.0  0.9186557771277448  0.19352401359400245  0.5593169748948235  1.0000
  H   H400      1.0  0.915703170094197  0.2744772401806548  0.60007756866052  1.0000
  H   H401      1.0  0.9525458092609513  0.2563598546594933  0.5847682816464478  1.0000
  H   H402      1.0  0.9143803517832794  0.2563300816344155  0.5651691300335816  1.0000
  H   H403      1.0  0.9209107019409244  0.23694444793557498  0.6423162297973679  1.0000
  H   H404      1.0  0.9586629927895016  0.22055272205817006  0.6271420116982668  1.0000
  H   H405      1.0  0.9262265844728417  0.19216193045420107  0.6372889698309451  1.0000
  H   H406      1.0  0.86856282253167  0.23682800042324148  0.6146641257584717  1.0000
  H   H407      1.0  0.8723761629267262  0.19193400662945065  0.6102683235707419  1.0000
  H   H408      1.0  0.8676680499532535  0.2186207084929141  0.5798173992531267  1.0000
  N   N19       1.0  0.5297386128538738  0.26815525727590245  0.4442256140244739  1.0000
  C   C361      1.0  0.5368671099801672  0.3033723481519555  0.45271683472749547  1.0000
  C   C362      1.0  0.5476579585497907  0.260456638504612  0.4175813278143005  1.0000
  C   C363      1.0  0.49335481153735017  0.26378634860124506  0.4398114598838182  1.0000
  C   C364      1.0  0.5410642828060684  0.24497553027040367  0.46671453838267435  1.0000
  H   H409      1.0  0.5311397235606815  0.32127550900787527  0.4353072903393761  1.0000
  H   H410      1.0  0.5637155015835267  0.30702297879647766  0.45811974518273296  1.0000
  H   H411      1.0  0.521659577792667  0.3113129909161978  0.4713651468207088  1.0000
  H   H412      1.0  0.5394777725059098  0.2776145030527426  0.40019934249700645  1.0000
  H   H413      1.0  0.5751823159545801  0.26360921179717134  0.4200009896198123  1.0000
  H   H414      1.0  0.5428220147227045  0.23412741116903735  0.410414670416493  1.0000
  H   H415      1.0  0.4869439994475298  0.2372697942451854  0.4340913421974936  1.0000
  H   H416      1.0  0.4842342843263929  0.28005080514368513  0.4223312671964254  1.0000
  H   H417      1.0  0.47878615951263986  0.27063221132038484  0.4590770665181923  1.0000
  H   H418      1.0  0.5357952984260301  0.2182038652786069  0.46105401762055226  1.0000
  H   H419      1.0  0.528139962155368  0.2504547846080155  0.4871124793622357  1.0000
  H   H420      1.0  0.568487129519538  0.24725978837549184  0.47044014952883373  1.0000
  N   N20       1.0  0.8912618404447467  0.5230283059495469  0.7334431496846209  1.0000
  C   C365      1.0  0.8863510714529848  0.549602133406406  0.7119270214504121  1.0000
  C   C366      1.0  0.8589011564497077  0.5063496123269485  0.7392604009782815  1.0000
  C   C367      1.0  0.9042838709262025  0.5383119842686086  0.7597976421301956  1.0000
  C   C368      1.0  0.9154870550466733  0.4977908196985955  0.7227937983176475  1.0000
  H   H421      1.0  0.8768499216217752  0.5389194064164591  0.6916424739883362  1.0000
  H   H422      1.0  0.910092137393168  0.5631386767051646  0.7071811107132944  1.0000
  H   H423      1.0  0.8676805209878085  0.5687659857727972  0.7190035714567882  1.0000
  H   H424      1.0  0.8615301804792692  0.4859197344724608  0.7552612805198563  1.0000
  H   H425      1.0  0.8401514962285849  0.5245483587221909  0.7476755021837619  1.0000
  H   H426      1.0  0.8480226589036993  0.49491254708654353  0.7198008793570727  1.0000
  H   H427      1.0  0.8869048043579106  0.5578850207107212  0.7682029827363955  1.0000
  H   H428      1.0  0.9290102751987067  0.550598742137217  0.756327285142241  1.0000
  H   H429      1.0  0.9077147588753928  0.5190117113538188  0.7766768520596069  1.0000
  H   H430      1.0  0.9198195398783208  0.47746337680962986  0.7386279068127202  1.0000
  H   H431      1.0  0.9402058904245675  0.5095178738794908  0.7181047497996151  1.0000
  H   H432      1.0  0.9063973855845523  0.48560835878724834  0.7029894253891409  1.0000
  N   N21       1.0  0.40444351503516807  0.2933177741878999  0.2425702459099615  1.0000
  C   C369      1.0  0.38406784228977986  0.26886972014082755  0.2586955790810681  1.0000
  C   C370      1.0  0.4398661754279247  0.28237615410753414  0.242585991767446  1.0000
  C   C371      1.0  0.40162709930858054  0.32705568300534266  0.25578986961224287  1.0000
  C   C372      1.0  0.39211199172414907  0.29496801869996336  0.21312751473537347  1.0000
  H   H433      1.0  0.3572195988061764  0.2764363544201484  0.25935728874105884  1.0000
  H   H434      1.0  0.3926398978260724  0.26695192040238275  0.2809974829919717  1.0000
  H   H435      1.0  0.3857138647793974  0.24309804374222926  0.24940087257156573  1.0000
  H   H436      1.0  0.45598829724617085  0.2998537009950197  0.23023595008077627  1.0000
  H   H437      1.0  0.4502143113539196  0.2813362312108659  0.2644138673462997  1.0000
  H   H438      1.0  0.4428889268383318  0.256589702903353  0.23347488776814015  1.0000
  H   H439      1.0  0.41678597293985775  0.3461785970703993  0.24429462617344297  1.0000
  H   H440      1.0  0.41041912179834866  0.32681087157977806  0.2781224251845689  1.0000
  H   H441      1.0  0.375220236382726  0.3361300852715905  0.25600671567406597  1.0000
  H   H442      1.0  0.40681398488203535  0.3133406491432355  0.20037775458785223  1.0000
  H   H443      1.0  0.365411055722214  0.30310444972603734  0.2123856569964885  1.0000
  H   H444      1.0  0.3939694638525242  0.2699673116184008  0.20244818964892922  1.0000
  N   N22       1.0  0.2440806184675402  0.011830282556164029  0.8513112680405571  1.0000
  C   C373      1.0  0.24157682486634635  0.010049684330406095  0.82014942993003  1.0000
  C   C374      1.0  0.23342734542841767  0.04563363590428282  0.861044051515609  1.0000
  C   C375      1.0  0.27916283651579354  0.0058114206477359875  0.8599320631040495  1.0000
  C   C376      1.0  0.22213946272937335  0.9859372778649435  0.8640550648263722  1.0000
  H   H445      1.0  0.2495483984956628  0.9848919539503633  0.8120658488238445  1.0000
  H   H446      1.0  0.2577355259075884  0.02941419757604602  0.8099374074485071  1.0000
  H   H447      1.0  0.21538039468706635  0.014401191329111995  0.8129445407250381  1.0000
  H   H448      1.0  0.23410329444295358  0.04748435947010887  0.8845205341825584  1.0000
  H   H449      1.0  0.2502752277846398  0.06576537040757136  0.852842619618965  1.0000
  H   H450      1.0  0.20749335698505184  0.051568524263764015  0.8541576211706823  1.0000
  H   H451      1.0  0.2820393811952129  0.0071086745788373484  0.8833105412110992  1.0000
  H   H452      1.0  0.29632201618141346  0.025284852584882778  0.8510784418264732  1.0000
  H   H453      1.0  0.28825057573279955  0.9806150324632168  0.8529286088845338  1.0000
  H   H454      1.0  0.2227211211694107  0.9870728931384186  0.8875974383153172  1.0000
  H   H455      1.0  0.22979104478996953  0.9600174280789487  0.8577122420173241  1.0000
  H   H456      1.0  0.1955450823564761  0.9894526961419725  0.8576626766711483  1.0000
  N   N23       1.0  0.41540200082416623  0.2211178233311656  0.7297752596948784  1.0000
  C   C377      1.0  0.4079959919896786  0.18620106253873953  0.7387641454950427  1.0000
  C   C378      1.0  0.3858524141412073  0.24278873164285916  0.7349595924471756  1.0000
  C   C379      1.0  0.42374514430194926  0.22137037160444198  0.69930810566293  1.0000
  C   C380      1.0  0.4441794969086513  0.2341452687180961  0.7460774467737957  1.0000
  H   H457      1.0  0.4294645707302039  0.16902592987044907  0.7343772391884412  1.0000
  H   H458      1.0  0.38580608475433265  0.1757825243836944  0.727596740107071  1.0000
  H   H459      1.0  0.4029339425089179  0.18480087146996602  0.7619390418565303  1.0000
  H   H460      1.0  0.3905956382223715  0.26934090070899314  0.72838876562262  1.0000
  H   H461      1.0  0.3634573396459126  0.2336401575793915  0.7233153711357613  1.0000
  H   H462      1.0  0.37929572619061963  0.2436976529020541  0.7578379623220071  1.0000
  H   H463      1.0  0.4459122118669527  0.20511125813571798  0.6947481126860983  1.0000
  H   H464      1.0  0.4297933721160891  0.24733848251350318  0.6919715370973774  1.0000
  H   H465      1.0  0.402555796036213  0.21178985648147988  0.6863249241046518  1.0000
  H   H466      1.0  0.44932251586659294  0.26113329337114166  0.74118892215473  1.0000
  H   H467      1.0  0.4673431727240674  0.21943777556465643  0.7417155359949211  1.0000
  H   H468      1.0  0.43937905988280135  0.23257065656498582  0.7691637120719537  1.0000
  N   N24       1.0  0.4088766669342556  0.9017873680495065  0.6519757833833371  1.0000
  C   C381      1.0  0.440204808392766  0.8821353074671225  0.6547726186615441  1.0000
  C   C382      1.0  0.38008028065810434  0.8804946655324105  0.6600389117956452  1.0000
  C   C383      1.0  0.404858909945352  0.9131330982846199  0.6223642182364757  1.0000
  C   C384      1.0  0.4103026329482855  0.9315101061136014  0.6708332799532892  1.0000
  H   H469      1.0  0.4624760584929982  0.8973348010550529  0.6487138415426894  1.0000
  H   H470      1.0  0.4400318658264098  0.8592749659006811  0.6410976462139687  1.0000
  H   H471      1.0  0.4444945668276347  0.8739302373901747  0.6770214584853251  1.0000
  H   H472      1.0  0.3560887109915838  0.8946718942832794  0.6582365780605599  1.0000
  H   H473      1.0  0.378195462808986  0.8578198990597351  0.6461947085558445  1.0000
  H   H474      1.0  0.3823549691492773  0.8716102463707065  0.6822960516253926  1.0000
  H   H475      1.0  0.4260378465839459  0.929498278419187  0.6156223123897804  1.0000
  H   H476      1.0  0.3816969767332476  0.9284987924726915  0.6196451583329763  1.0000
  H   H477      1.0  0.40363994386328594  0.8914919877199675  0.6073887164524926  1.0000
  H   H478      1.0  0.4314267154798838  0.9481691362428868  0.6649240440083733  1.0000
  H   H479      1.0  0.4139979937260798  0.9241968395453685  0.6933434484404838  1.0000
  H   H480      1.0  0.3871667515904723  0.947117929554997  0.6693157460891082  1.0000
  N   N25       1.0  0.609559556242965  0.016991746562460438  0.9715462740793762  1.0000
  C   C385      1.0  0.5845208443989642  0.026122277485019677  0.9933435415664836  1.0000
  C   C386      1.0  0.6357359047169805  0.04330705505291905  0.9703423974831268  1.0000
  C   C387      1.0  0.5931042509012004  0.014148712298020687  0.9436382541734502  1.0000
  C   C388      1.0  0.6250047600277021  0.9842658638252635  0.9787789825915678  1.0000
  H   H481      1.0  0.5722046784458884  0.050625020685894986  0.9885223901476631  1.0000
  H   H482      1.0  0.5962809888699891  0.028709187954729466  0.01459642246808679  1.0000
  H   H483      1.0  0.5646219709493351  0.00661884179373085  0.9951941229916597  1.0000
  H   H484      1.0  0.6553919248497422  0.03697959319834215  0.9544667469080255  1.0000
  H   H485      1.0  0.6250761204444728  0.06832486200284464  0.9646938753678598  1.0000
  H   H486      1.0  0.6485427073603038  0.046268213705823936  0.9911125497381952  1.0000
  H   H487      1.0  0.6114149026362532  0.006774022992719589  0.9268802316324122  1.0000
  H   H488      1.0  0.5814332003015117  0.03845180044701552  0.9372083989392533  1.0000
  H   H489      1.0  0.5731322898485827  0.9945779830568962  0.9438426930668854  1.0000
  H   H490      1.0  0.6061024578018656  0.9637237694992864  0.9798852945632663  1.0000
  H   H491      1.0  0.6379935111272466  0.9853866265882656  0.9995171527515386  1.0000
  H   H492      1.0  0.6439626211292766  0.9767060093496706  0.9627425500952933  1.0000
  N   N26       1.0  0.8820720021924112  0.9304188154716637  0.5094261301110606  1.0000
  C   C389      1.0  0.8848556126926106  0.914543645255481  0.48118399338042034  1.0000
  C   C390      1.0  0.8682262675610649  0.9648243931122984  0.506436270956893  1.0000
  C   C391      1.0  0.9155992829018778  0.9322418210605143  0.5225504378834732  1.0000
  C   C392      1.0  0.8596722013188914  0.9100133593084809  0.5274960418649863  1.0000
  H   H493      1.0  0.8975085810065994  0.8896027253328687  0.48236362117640236  1.0000
  H   H494      1.0  0.8993367905605347  0.9305792477400309  0.466230413281437  1.0000
  H   H495      1.0  0.8597306170289345  0.9106115432837603  0.4714724905978413  1.0000
  H   H496      1.0  0.8656164087210839  0.9776989142727968  0.5272584580491363  1.0000
  H   H497      1.0  0.884235089803072  0.9807939172760387  0.49257640179215423  1.0000
  H   H498      1.0  0.8430758503697623  0.9643135122420563  0.49640184511698343  1.0000
  H   H499      1.0  0.914474745640584  0.9442620941793023  0.543849676286204  1.0000
  H   H500      1.0  0.933210648969077  0.9471705677730075  0.5092949384707427  1.0000
  H   H501      1.0  0.9266200260411463  0.9065995921218871  0.5252887447642257  1.0000
  H   H502      1.0  0.8564422649763955  0.9215345918874083  0.5488088237330583  1.0000
  H   H503      1.0  0.8697030882106208  0.8840611623547262  0.5305499414004179  1.0000
  H   H504      1.0  0.8343270946491245  0.9074138954448849  0.5179199438990865  1.0000
  N   N27       1.0  0.23817138385793654  0.04611893121250876  0.07883116221235084  1.0000
  C   C393      1.0  0.24916460090339487  0.05295642485487062  0.10812986742299055  1.0000
  C   C394      1.0  0.20524950630072414  0.06211881561913257  0.07383571173055811  1.0000
  C   C395      1.0  0.23540103213539879  0.009291616691232019  0.07442475996873606  1.0000
  C   C396      1.0  0.26301101992863735  0.06011393350863048  0.05888317520391614  1.0000
  H   H505      1.0  0.273951343284454  0.0410818273243192  0.11246023376617356  1.0000
  H   H506      1.0  0.2309878505998845  0.04282990340937376  0.1238070256762073  1.0000
  H   H507      1.0  0.2517724669101944  0.0805363776867074  0.11203297295104998  1.0000
  H   H508      1.0  0.18572494416234306  0.052127507552572894  0.0883533396275805  1.0000
  H   H509      1.0  0.20645990433340802  0.08996670732351797  0.07678125057030508  1.0000
  H   H510      1.0  0.19647420164044085  0.0577174123750408  0.05176716098689814  1.0000
  H   H511      1.0  0.22765443711582894  0.0031972368844330745  0.05235324219358455  1.0000
  H   H512      1.0  0.216740711829648  0.997782966157337  0.08894359837884488  1.0000
  H   H513      1.0  0.25985098497106457  0.9964388618799739  0.07792181558496065  1.0000
  H   H514      1.0  0.26486635896453675  0.08805351350188184  0.060674674839185865  1.0000
  H   H515      1.0  0.25610658915434614  0.0543359435714339  0.03667296096765907  1.0000
  H   H516      1.0  0.28833952110719097  0.04923877594845161  0.0624073159432292  1.0000
  N   N28       1.0  0.994652401596813  0.9979200143571795  0.8880050988876428  1.0000
  C   C397      1.0  0.023183318220045823  0.008147475769840876  0.9060008355946253  1.0000
  C   C398      1.0  0.007271356703799636  0.9785619769608496  0.863457232303448  1.0000
  C   C399      1.0  0.9767945121442452  0.02826958042980537  0.8779416137241423  1.0000
  C   C400      1.0  0.9712967841554793  0.9766696300311353  0.904445389996876  1.0000
  H   H517      1.0  0.014703353417386156  0.023162021639832737  0.9246135173803103  1.0000
  H   H518      1.0  0.04144732596473033  0.02383408638423324  0.8939717287349271  1.0000
  H   H519      1.0  0.037174788429968464  0.9858418549279867  0.914054529531092  1.0000
  H   H520      1.0  0.9863701359936548  0.9696148152982528  0.8498679575211145  1.0000
  H   H521      1.0  0.02403557549682689  0.9941743734058934  0.8499628095918975  1.0000
  H   H522      1.0  0.021542259755613635  0.9558685459973387  0.8702013494907015  1.0000
  H   H523      1.0  0.9559720574710697  0.021359887258208168  0.8633674412024163  1.0000
  H   H524      1.0  0.9938545467568514  0.04547097663912709  0.8662056640694029  1.0000
  H   H525      1.0  0.9656700352844595  0.04281441096957412  0.8958015945839692  1.0000
  H   H526      1.0  0.9837768802388868  0.9534020778638336  0.9122675842232701  1.0000
  H   H527      1.0  0.9495486471115909  0.968602735330917  0.8912718072173135  1.0000
  H   H528      1.0  0.9609967276279412  0.9905025373674845  0.923043288043078  1.0000
  N   N29       1.0  0.47479895081958107  0.5366596828791412  0.6474719170273964  1.0000
  C   C401      1.0  0.46675613987352566  0.5552468579292505  0.6212727119181307  1.0000
  C   C402      1.0  0.4847053047037874  0.5017355507733314  0.6402518437322303  1.0000
  C   C403      1.0  0.4450021933682713  0.5360485349259619  0.6660608211830198  1.0000
  C   C404      1.0  0.5027659095707803  0.5536156722129288  0.6622148650343398  1.0000
  H   H529      1.0  0.48892403023056324  0.5571213808905342  0.607126688780774  1.0000
  H   H530      1.0  0.45809936792843425  0.5813708726010736  0.6258048307194647  1.0000
  H   H531      1.0  0.4466861671704391  0.5424530446408025  0.6090191157398599  1.0000
  H   H532      1.0  0.49125790993044144  0.4869811092480434  0.6594541950290347  1.0000
  H   H533      1.0  0.46420507251204196  0.48814491372813335  0.629147994248831  1.0000
  H   H534      1.0  0.5069369454782217  0.5013277269253006  0.6259920822496741  1.0000
  H   H535      1.0  0.4497365738878615  0.5213797432968048  0.6857027610735805  1.0000
  H   H536      1.0  0.42321480472452966  0.5242627823747185  0.6552267020629248  1.0000
  H   H537      1.0  0.4372047576250432  0.561959687812371  0.6723447651313338  1.0000
  H   H538      1.0  0.5095434012428518  0.540293998800584  0.6820957379319436  1.0000
  H   H539      1.0  0.49639923420974397  0.5801766560768418  0.6676584705283282  1.0000
  H   H540      1.0  0.5256538854933488  0.5542551184323428  0.648714920901286  1.0000
  N   N30       1.0  0.4245083040259121  0.24384458259382677  0.9570648362510104  1.0000
  C   C405      1.0  0.40440272615639267  0.21339618852626072  0.950857816326354  1.0000
  C   C406      1.0  0.41492704076665193  0.2711535343115555  0.9374555510552558  1.0000
  C   C407      1.0  0.46047490329196106  0.23605495802274237  0.9534584029362904  1.0000
  C   C408      1.0  0.41824230477606844  0.2549348459763192  0.9864689257088782  1.0000
  H   H541      1.0  0.41095202100690237  0.1921316233267064  0.9651202159340131  1.0000
  H   H542      1.0  0.4083053095047159  0.2045550020735814  0.9287149062973098  1.0000
  H   H543      1.0  0.37708222577616357  0.21844280448888292  0.9530815377787484  1.0000
  H   H544      1.0  0.4291612939831331  0.2947316301820985  0.9417496199172606  1.0000
  H   H545      1.0  0.4202700899997827  0.2639617124020656  0.9152276448234319  1.0000
  H   H546      1.0  0.3876856907310878  0.27696147812640404  0.9387033147094733  1.0000
  H   H547      1.0  0.47634219231180136  0.25863263574104584  0.9576142774581722  1.0000
  H   H548      1.0  0.4661464956514943  0.22780916134627197  0.9314164480990127  1.0000
  H   H549      1.0  0.468753008871141  0.21560020135379193  0.9679033501494019  1.0000
  H   H550      1.0  0.433137304315276  0.27787112543759573  0.991727256222811  1.0000
  H   H551      1.0  0.4251419517067611  0.2349348361024394  0.0018882722060964419  1.0000
  H   H552      1.0  0.39135151131786655  0.2612278950174461  0.9897897692126442  1.0000
  N   N31       1.0  0.4982485392785553  0.6158178900424236  0.8467925858148306  1.0000
  C   C409      1.0  0.4758880788932453  0.600437546429696  0.8681145942492906  1.0000
  C   C410      1.0  0.5070317375801889  0.5906178023666355  0.8249053742680282  1.0000
  C   C411      1.0  0.5291593129067059  0.627765880349228  0.8607008401330956  1.0000
  C   C412      1.0  0.4810362973366919  0.6446618137068112  0.8334021638512089  1.0000
  H   H553      1.0  0.46818572506398937  0.6192352306804633  0.8844220883101243  1.0000
  H   H554      1.0  0.4883708950300956  0.5792869009157479  0.8794241015737311  1.0000
  H   H555      1.0  0.45259214886473415  0.590491886474714  0.8582932938059955  1.0000
  H   H556      1.0  0.4843491469363576  0.5811420509014855  0.8138016849680275  1.0000
  H   H557      1.0  0.5239511306239023  0.6017334508532947  0.8085806131102828  1.0000
  H   H558      1.0  0.5201896847992481  0.5685589839892842  0.8342722513497091  1.0000
  H   H559      1.0  0.5470515566770807  0.6384704678686883  0.8450372458962278  1.0000
  H   H560      1.0  0.5421984401903459  0.6070527614788204  0.8720694023741002  1.0000
  H   H561      1.0  0.5236275673400388  0.6479426035980322  0.8764021509924447  1.0000
  H   H562      1.0  0.497209534681887  0.6567737600929076  0.8171093810345764  1.0000
  H   H563      1.0  0.4743903486919118  0.6643721492689229  0.8493354918928715  1.0000
  H   H564      1.0  0.45745526067707154  0.6367536614798908  0.8228230279897388  1.0000
  N   N32       1.0  0.880645905710504  0.5791687860839231  0.18930016906498345  1.0000
  C   C413      1.0  0.8967727501742354  0.6037857468914969  0.17018668659222885  1.0000
  C   C414      1.0  0.8709011354580669  0.5961833828634494  0.21594054369755794  1.0000
  C   C415      1.0  0.9041723886170022  0.551423196682107  0.1956789037132952  1.0000
  C   C416      1.0  0.8505541154470149  0.5652053824556335  0.17542801023102414  1.0000
  H   H565      1.0  0.9046928637741993  0.5917971679105419  0.14993684759314174  1.0000
  H   H566      1.0  0.9192142554285959  0.6154668602286176  0.18008757484606255  1.0000
  H   H567      1.0  0.8792934348688823  0.6246457842874851  0.16461628078664622  1.0000
  H   H568      1.0  0.8930246563707157  0.6066196271708264  0.22721525625399425  1.0000
  H   H569      1.0  0.8533926622165463  0.617495412809119  0.21189406074491451  1.0000
  H   H570      1.0  0.8581295183350461  0.578398395594525  0.23065705183718377  1.0000
  H   H571      1.0  0.8925388197545695  0.5326461148398267  0.21024242419850256  1.0000
  H   H572      1.0  0.9272631262710642  0.5609759395683613  0.20610168292264316  1.0000
  H   H573      1.0  0.9116658197252024  0.53769067392497  0.1761078295008401  1.0000
  H   H574      1.0  0.838381280068535  0.5456464798541041  0.1887336825646453  1.0000
  H   H575      1.0  0.8565564988594324  0.5534162587672695  0.15465091067472142  1.0000
  H   H576      1.0  0.83162294987489  0.5851452221846172  0.171502281465364  1.0000
  N   N33       1.0  0.4079506499169254  0.09674500521981774  0.5112884818226205  1.0000
  C   C417      1.0  0.442868971780732  0.09061596852909883  0.5203158835322255  1.0000
  C   C418      1.0  0.40473658159111475  0.13144877834095478  0.5002410292894501  1.0000
  C   C419      1.0  0.38527271793166096  0.09246842505112918  0.5357704658573247  1.0000
  C   C420      1.0  0.3989184121188787  0.07239337690161018  0.4888184164577166  1.0000
  H   H577      1.0  0.4460971585048917  0.06446708679465697  0.5285662975383023  1.0000
  H   H578      1.0  0.450482852989253  0.108238759957911  0.5375102678794536  1.0000
  H   H579      1.0  0.46072125782539736  0.09375200526784405  0.5024043502692708  1.0000
  H   H580      1.0  0.4213274463927628  0.13555614771188304  0.4815911005373844  1.0000
  H   H581      1.0  0.3785690985010223  0.1368134288690515  0.4934234455590447  1.0000
  H   H582      1.0  0.4115641324069927  0.15055064626151246  0.5165086185290416  1.0000
  H   H583      1.0  0.3584622256932419  0.09364075689942711  0.5293056067252471  1.0000
  H   H584      1.0  0.3895650917135275  0.11208265079505171  0.5522283303271353  1.0000
  H   H585      1.0  0.38921448354655797  0.0676821979338288  0.5461601718276619  1.0000
  H   H586      1.0  0.40161698355619946  0.0459106657176259  0.4962271471521301  1.0000
  H   H587      1.0  0.41504068089792984  0.07531109678615529  0.46977766146038363  1.0000
  H   H588      1.0  0.3723987878156373  0.07551763140873838  0.48198789262607344  1.0000
  N   N34       1.0  0.6852471491727056  0.8963351831664512  0.566447789036971  1.0000
  C   C421      1.0  0.6912946611490397  0.8638380471203637  0.551920028692985  1.0000
  C   C422      1.0  0.7109702811158553  0.9209634916338886  0.5576466553246793  1.0000
  C   C423      1.0  0.687016369797476  0.8915121698850371  0.5974060085934687  1.0000
  C   C424      1.0  0.6517063751016996  0.9091033044965325  0.5587806909055895  1.0000
  H   H589      1.0  0.6722028792838617  0.8446731289124275  0.5577297471936719  1.0000
  H   H590      1.0  0.716382044803402  0.853360010203503  0.5572639606826715  1.0000
  H   H591      1.0  0.6906331898698043  0.8668318447637492  0.5284713158575176  1.0000
  H   H592      1.0  0.7073508501206587  0.9458491349386555  0.568232180449438  1.0000
  H   H593      1.0  0.7366979678657255  0.9118776597019848  0.5624554975031901  1.0000
  H   H594      1.0  0.7099436572743888  0.9256816243567185  0.5344918969306498  1.0000
  H   H595      1.0  0.6824792366786371  0.9156954314412246  0.608876779647306  1.0000
  H   H596      1.0  0.7120558532662278  0.8819474943143392  0.6039231466580329  1.0000
  H   H597      1.0  0.6678789738601796  0.8731332159014257  0.6048035452880978  1.0000
  H   H598      1.0  0.6496520931978658  0.9134510226682185  0.5355680080395163  1.0000
  H   H599      1.0  0.6462115081431931  0.9335052599561775  0.5695437563414035  1.0000
  H   H600      1.0  0.6315725588324136  0.8911751330991974  0.5648903100249658  1.0000
  N   N35       1.0  0.5274106833788833  0.9993834380724086  0.2700117260946454  1.0000
  C   C425      1.0  0.5334593805272538  0.9964688923954925  0.300763482206221  1.0000
  C   C426      1.0  0.4913889463080929  0.9944773279074968  0.2641967063544595  1.0000
  C   C427      1.0  0.5470270484594864  0.9733205576560291  0.25485803919253164  1.0000
  C   C428      1.0  0.5376826450726824  0.03325651409057073  0.2602664456130453  1.0000
  H   H601      1.0  0.5604245748975346  1.9022539875512834e-05  0.3059291341819164  1.0000
  H   H602      1.0  0.5259668565635143  0.9711628022678176  0.30880763982703074  1.0000
  H   H603      1.0  0.5189547301528301  0.01573078127106453  0.3128295772823027  1.0000
  H   H604      1.0  0.4824440244568524  0.96965109932304  0.27209840188638384  1.0000
  H   H605      1.0  0.475895173041372  0.014530604867302621  0.27433964412009226  1.0000
  H   H606      1.0  0.4861219637355144  0.9956225275810008  0.2410914427441189  1.0000
  H   H607      1.0  0.574396111503227  0.9766725414517546  0.2581615697106358  1.0000
  H   H608      1.0  0.5423908347753729  0.9741123789905236  0.2316270722847409  1.0000
  H   H609      1.0  0.540417516804487  0.9474715493046171  0.2621547434020821  1.0000
  H   H610      1.0  0.5333698518678321  0.03633939046095236  0.23716686665542722  1.0000
  H   H611      1.0  0.5646864843032371  0.038046395831571544  0.26434243780872246  1.0000
  H   H612      1.0  0.522975937899954  0.05353999061199888  0.270939580952607  1.0000
  N   N36       1.0  0.06644971220428907  0.7883609352745535  0.18996564674634278  1.0000
  C   C429      1.0  0.05788439579557051  0.8100357322439203  0.2144528331513137  1.0000
  C   C430      1.0  0.09057255780193026  0.762157608959613  0.19883299163493276  1.0000
  C   C431      1.0  0.08159483225763452  0.8092585807174926  0.16745870718314124  1.0000
  C   C432      1.0  0.035793000938447395  0.7719517731741017  0.17909371989063838  1.0000
  H   H613      1.0  0.04036848013668898  0.8305815400967039  0.2082806952597246  1.0000
  H   H614      1.0  0.08047738573126556  0.8224050700168433  0.22350880905322615  1.0000
  H   H615      1.0  0.04552712100310933  0.7954209895488475  0.23160466167190458  1.0000
  H   H616      1.0  0.0975292429171014  0.7454313318920611  0.18077583626045468  1.0000
  H   H617      1.0  0.11404913233223593  0.773554281940798  0.20718454065438513  1.0000
  H   H618      1.0  0.07991909035733351  0.7459109334222026  0.21578835747347816  1.0000
  H   H619      1.0  0.1054553121607371  0.8209951070579248  0.17452962167485694  1.0000
  H   H620      1.0  0.06464099071752268  0.8302021689747142  0.1611412174229153  1.0000
  H   H621      1.0  0.08677598936914283  0.7942008265938753  0.14801933534282335  1.0000
  H   H622      1.0  0.01684337683883002  0.790859066213484  0.1725119829982019  1.0000
  H   H623      1.0  0.023783411297131858  0.7557153345602511  0.19536176443906167  1.0000
  H   H624      1.0  0.041139033775572265  0.7560025825956991  0.16018762893485547  1.0000
  N   N37       1.0  0.43662778344623754  0.8797307556707203  0.15240756029992183  1.0000
  C   C433      1.0  0.4531038158954081  0.8511216822480131  0.166835080562513  1.0000
  C   C434      1.0  0.4052629658269714  0.8683283679767981  0.13887836769462028  1.0000
  C   C435      1.0  0.4593290338214585  0.8934334494317964  0.1305735783238158  1.0000
  C   C436      1.0  0.428856343849296  0.9063258913409552  0.1733454328706416  1.0000
  H   H625      1.0  0.47697576449227563  0.8591589970751017  0.1770679322461666  1.0000
  H   H626      1.0  0.4593461824908569  0.8304800484680687  0.15173597353716595  1.0000
  H   H627      1.0  0.43694232412358963  0.840427301968903  0.18378661597431098  1.0000
  H   H628      1.0  0.3925287131122389  0.8896233809803559  0.12781196190295444  1.0000
  H   H629      1.0  0.41012680582703415  0.8482805141971402  0.12286816900509125  1.0000
  H   H630      1.0  0.38740388064611325  0.8580629854826085  0.1547565387735181  1.0000
  H   H631      1.0  0.4479538138689952  0.9155909873249475  0.11969421913325642  1.0000
  H   H632      1.0  0.46537271852346096  0.874280630870169  0.11411188876851719  1.0000
  H   H633      1.0  0.483474807739134  0.9018293939754963  0.14001731055983158  1.0000
  H   H634      1.0  0.4162811824777745  0.9283044309891003  0.1632097661036369  1.0000
  H   H635      1.0  0.4520525436891263  0.9157272767514366  0.18364934716348622  1.0000
  H   H636      1.0  0.4120991439065219  0.8968948028170602  0.19038791046987227  1.0000
  N   N38       1.0  0.17408693909797565  0.24875407279543238  0.02115396436859629  1.0000
  C   C437      1.0  0.20839026768312066  0.24367142474603523  0.010137992860032918  1.0000
  C   C438      1.0  0.17275003430417896  0.23818809003509958  0.05110880783203098  1.0000
  C   C439      1.0  0.15036989744812645  0.22832761279576172  0.004313229859760792  1.0000
  C   C440      1.0  0.1648838270483864  0.2847815057360671  0.019100393251493708  1.0000
  H   H637      1.0  0.22700248350649568  0.2585101726284606  0.02248325167567633  1.0000
  H   H638      1.0  0.21037539600346178  0.2513936572810339  0.9875686138282147  1.0000
  H   H639      1.0  0.21592927284298666  0.2165870185820429  0.011317153705998617  1.0000
  H   H640      1.0  0.18860407773149965  0.2545712771840202  0.06478853750530256  1.0000
  H   H641      1.0  0.14677831168060826  0.23951850767294763  0.0596310753171716  1.0000
  H   H642      1.0  0.18171017926508032  0.211894954481709  0.053768447041899536  1.0000
  H   H643      1.0  0.14954251041006278  0.23657103784799077  0.9818509707152361  1.0000
  H   H644      1.0  0.1243958817558227  0.2299004866511753  0.012888519736441006  1.0000
  H   H645      1.0  0.1575993133609909  0.20124819661347543  0.004285079996101393  1.0000
  H   H646      1.0  0.16574693869745546  0.2937991137746686  0.9968408243516841  1.0000
  H   H647      1.0  0.18198556782176226  0.3008717025281314  0.031933811004903445  1.0000
  H   H648      1.0  0.13912192532389056  0.28925557664057877  0.027272506975577926  1.0000
  N   N39       1.0  0.8428236107599775  0.9361576522016067  0.060382553238297734  1.0000
  C   C441      1.0  0.8063172282227883  0.9318044514961362  0.06418269222877518  1.0000
  C   C442      1.0  0.8548293188141183  0.9635345995893877  0.07907403927840786  1.0000
  C   C443      1.0  0.8500182627047213  0.9448994571744047  0.030584288699695924  1.0000
  C   C444      1.0  0.8601279375941308  0.9043667518799682  0.06767508193388382  1.0000
  H   H649      1.0  0.7962948741838737  0.9117456321045749  0.049964165236656276  1.0000
  H   H650      1.0  0.7924143976619515  0.955466019400932  0.059351066203624236  1.0000
  H   H651      1.0  0.7999720844314664  0.9244610414491403  0.08625397824374888  1.0000
  H   H652      1.0  0.882317443525263  0.9674030781301582  0.07678318379880118  1.0000
  H   H653      1.0  0.8423114802564877  0.9879334745333243  0.07406712035186021  1.0000
  H   H654      1.0  0.849706430901819  0.95783716265658  0.10172609204961024  1.0000
  H   H655      1.0  0.8773807704385388  0.9475843620077723  0.02674353503135389  1.0000
  H   H656      1.0  0.8378721618961038  0.9691079789408416  0.02445434347105605  1.0000
  H   H657      1.0  0.8406251569336635  0.9251441438042645  0.01583191183127175  1.0000
  H   H658      1.0  0.8876835214491989  0.9062417873127085  0.06441483322882803  1.0000
  H   H659      1.0  0.8511087214402192  0.8831754874932664  0.05432721685688502  1.0000
  H   H660      1.0  0.8557040423626537  0.897119052538416  0.09010551962621526  1.0000
  N   N40       1.0  0.9686798366047721  0.7440686144377896  0.9762046987229732  1.0000
  C   C445      1.0  0.9455943462865024  0.7317418290145642  0.9982858278377745  1.0000
  C   C446      1.0  0.9924750109446907  0.7169469540482024  0.9684712570551401  1.0000
  C   C447      1.0  0.9873866717948901  0.7734640273274602  0.9871909433726233  1.0000
  C   C448      1.0  0.9491506731844495  0.7541188020746162  0.9510606549247723  1.0000
  H   H661      1.0  0.9264369059176374  0.7509697643653351  0.003890828045780559  1.0000
  H   H662      1.0  0.9593596170692936  0.7255251961982516  0.018037607366699904  1.0000
  H   H663      1.0  0.9319765432380199  0.7087345884120579  0.9912574108738839  1.0000
  H   H664      1.0  0.9792434763877914  0.6938245073424586  0.9610130553099483  1.0000
  H   H665      1.0  0.009848111700228701  0.7249910529558183  0.951377787362729  1.0000
  H   H666      1.0  0.008071272673992658  0.7094007136816762  0.9869300552486657  1.0000
  H   H667      1.0  0.9700926205846139  0.7940370642315916  0.994012932390543  1.0000
  H   H668      1.0  0.0046470975092851585  0.78393890903612  0.9709716390529337  1.0000
  H   H669      1.0  0.0027474718023372535  0.7664417407570142  0.005954525790186072  1.0000
  H   H670      1.0  0.965710165910805  0.7636017787594849  0.9338940273762739  1.0000
  H   H671      1.0  0.9309480429669643  0.7745324720143412  0.9563843219649327  1.0000
  H   H672      1.0  0.9346556070828631  0.7324294979487601  0.9424252386115225  1.0000
  N   N41       1.0  0.30548003804404245  0.17545062057185423  0.35101299793469787  1.0000
  C   C449      1.0  0.32872408503383094  0.15023659628469804  0.3630399137908143  1.0000
  C   C450      1.0  0.30409552906154924  0.20542193018557947  0.3696562292906984  1.0000
  C   C451      1.0  0.271660656246526  0.1605671469107115  0.34878354459518235  1.0000
  C   C452      1.0  0.3173549176076595  0.18556959828799025  0.3226506762018681  1.0000
  H   H673      1.0  0.3321673388818587  0.12828247684212163  0.3486233945649798  1.0000
  H   H674      1.0  0.31910272405243106  0.14019740002664602  0.3834155081223927  1.0000
  H   H675      1.0  0.3538982308736809  0.16127377327111372  0.3672268217459744  1.0000
  H   H676      1.0  0.32948591003536387  0.21621216015180103  0.3733065170799833  1.0000
  H   H677      1.0  0.288549058819372  0.22588200331146677  0.36032631670823967  1.0000
  H   H678      1.0  0.2931098647043438  0.19911100245377464  0.3906252356488017  1.0000
  H   H679      1.0  0.271737081485312  0.1377022351957258  0.33507567839252816  1.0000
  H   H680      1.0  0.25346267651614157  0.17893059378495807  0.3398356826329673  1.0000
  H   H681      1.0  0.2620680946636307  0.15281787023401283  0.3699986885279509  1.0000
  H   H682      1.0  0.30090479521955377  0.20525839852451422  0.31323282565588456  1.0000
  H   H683      1.0  0.31831057293968057  0.163750706773955  0.3078303152525059  1.0000
  H   H684      1.0  0.34294473436169826  0.19653027391256211  0.32373392669961176  1.0000
  N   N42       1.0  0.11303493274629116  0.04929167914074894  0.4731081650193362  1.0000
  C   C453      1.0  0.12321721969312896  0.08390095418429287  0.4653775836922284  1.0000
  C   C454      1.0  0.1429059789323428  0.02733487454580807  0.47434414067265507  1.0000
  C   C455      1.0  0.08960961864251571  0.03605891394162543  0.45157250099826907  1.0000
  C   C456      1.0  0.09658898121496039  0.049897658910611854  0.5011447029449725  1.0000
  H   H685      1.0  0.1014071659213225  0.10135750402634011  0.4646912602446246  1.0000
  H   H686      1.0  0.13555760990640028  0.08447788111164843  0.4442612378121493  1.0000
  H   H687      1.0  0.14128247566283117  0.09439325007175545  0.4809891469823448  1.0000
  H   H688      1.0  0.13624799972517102  0.0007871034744757144  0.4793958050191507  1.0000
  H   H689      1.0  0.15649254145792174  0.02707646380641799  0.45383789348692377  1.0000
  H   H690      1.0  0.16085696514273598  0.036065553998748896  0.4907610890772096  1.0000
  H   H691      1.0  0.08126693666944537  0.010031361434610399  0.4567932223323989  1.0000
  H   H692      1.0  0.10161529488930916  0.03489016134058337  0.43027601200934784  1.0000
  H   H693      1.0  0.06694137121299742  0.05223750688313858  0.4496971279024056  1.0000
  H   H694      1.0  0.07399120867564503  0.06633274793379963  0.5011140433711954  1.0000
  H   H695      1.0  0.11383803278058012  0.059853482448205174  0.5177330586930743  1.0000
  H   H696      1.0  0.08884248451888038  0.02417158186244404  0.5078319169253389  1.0000
  N   N43       1.0  0.5989858660190062  0.8869942266640013  0.8136545678301567  1.0000
  C   C457      1.0  0.5930819964126712  0.902724128055158  0.7857536077654066  1.0000
  C   C458      1.0  0.6001408635863773  0.8499228300049853  0.8104146261760219  1.0000
  C   C459      1.0  0.5714743260226854  0.8962515430069512  0.8331438436388701  1.0000
  C   C460      1.0  0.6311915741983894  0.8989977516364264  0.8253215001710159  1.0000
  H   H697      1.0  0.5918027425755827  0.9307104656446114  0.7874042627089048  1.0000
  H   H698      1.0  0.569016721978281  0.8940763716148061  0.7763361967609053  1.0000
  H   H699      1.0  0.6132467708159948  0.8962250569888377  0.7704129313593541  1.0000
  H   H700      1.0  0.6205626605987281  0.8418627752838425  0.7958672572924063  1.0000
  H   H701      1.0  0.604356996231491  0.837172360023386  0.8310937212496483  1.0000
  H   H702      1.0  0.5762222294501708  0.8400158115960077  0.8016814871926097  1.0000
  H   H703      1.0  0.5743174417503084  0.8837132594656051  0.8540229030463551  1.0000
  H   H704      1.0  0.5467221718699563  0.888416821582968  0.8245710080579768  1.0000
  H   H705      1.0  0.5704145997587616  0.9239542113684339  0.8368226112022051  1.0000
  H   H706      1.0  0.6366999399605637  0.8870610734291859  0.846088576867637  1.0000
  H   H707      1.0  0.6310546833668439  0.9267990691798209  0.8287036466529661  1.0000
  H   H708      1.0  0.652441490102407  0.8928468015808497  0.8109536364813995  1.0000
  N   N44       1.0  0.08130127668431208  0.10170544729282431  0.7326524426590993  1.0000
  C   C461      1.0  0.06463650153131217  0.1343784015619154  0.7382044707323892  1.0000
  C   C462      1.0  0.080650746473348  0.08107506080140536  0.7586652916327136  1.0000
  C   C463      1.0  0.11633610066785759  0.10767712760944458  0.7239598567575813  1.0000
  C   C464      1.0  0.06352330713139039  0.08362623146857728  0.7097793648117376  1.0000
  H   H709      1.0  0.03856939866491682  0.13065874386596202  0.7459189454223434  1.0000
  H   H710      1.0  0.06313167476572229  0.15006031115878543  0.7187223532945193  1.0000
  H   H711      1.0  0.07802271936141135  0.14918654753069968  0.7546941961830014  1.0000
  H   H712      1.0  0.0921314164336322  0.05578958481184077  0.7551638171081136  1.0000
  H   H713      1.0  0.09434192226106916  0.09340250853953604  0.7763655806642699  1.0000
  H   H714      1.0  0.05450577293652834  0.07672274968120525  0.766112627258156  1.0000
  H   H715      1.0  0.12963094021845173  0.0834726849529047  0.7197432923546971  1.0000
  H   H716      1.0  0.13051573065873823  0.12135176658516518  0.7406896133663365  1.0000
  H   H717      1.0  0.11753165337649728  0.12305459623738782  0.7042856895343393  1.0000
  H   H718      1.0  0.07605088158521613  0.05938147572047255  0.7043105209991748  1.0000
  H   H719      1.0  0.06174101124177921  0.09907370636385786  0.6901800638442606  1.0000
  H   H720      1.0  0.037560470336546706  0.07726867028346723  0.7162301647629022  1.0000
  N   N45       1.0  0.6857848788006922  0.797799728885631  0.9788471232299278  1.0000
  C   C465      1.0  0.6839007506985408  0.7786043349866433  0.9520433445393245  1.0000
  C   C466      1.0  0.7166044781772061  0.7883546752779034  0.9942354850810196  1.0000
  C   C467      1.0  0.6562074099156432  0.789946215643086  0.9964584171948048  1.0000
  C   C468      1.0  0.686352451715178  0.8343412142976382  0.9726887053563705  1.0000
  H   H721      1.0  0.6605205285502295  0.7845338012852109  0.9402361706966749  1.0000
  H   H722      1.0  0.684015245060186  0.750909082763524  0.9557718736051656  1.0000
  H   H723      1.0  0.7053442254663868  0.7845607141191718  0.9378529745131148  1.0000
  H   H724      1.0  0.7394825183320339  0.795223978636158  0.9820270624905897  1.0000
  H   H725      1.0  0.7183229227790195  0.8017199889911273  0.014949931919165937  1.0000
  H   H726      1.0  0.7176117303097564  0.7608077914471475  0.9985773298020397  1.0000
  H   H727      1.0  0.6567728453201568  0.8041348892488214  0.016828440211757112  1.0000
  H   H728      1.0  0.6549938713921856  0.7625742591193905  0.0015687565274693505  1.0000
  H   H729      1.0  0.632531704537485  0.7967536342470213  0.9853908007473113  1.0000
  H   H730      1.0  0.6878039803438238  0.8495192878612831  0.9925051602072914  1.0000
  H   H731      1.0  0.6635483037716609  0.8424381161497297  0.96097440693559  1.0000
  H   H732      1.0  0.7085011897704807  0.8413105195222172  0.959613119227562  1.0000
  N   N46       1.0  0.08683057088676895  0.39533577365457867  0.07648005795971309  1.0000
  C   C469      1.0  0.10150211729323318  0.4283758290409043  0.06904899384380793  1.0000
  C   C470      1.0  0.09622449029213888  0.3701770088888041  0.05475993628889395  1.0000
  C   C471      1.0  0.04996164247272385  0.3983059853872343  0.07768550626103787  1.0000
  C   C472      1.0  0.09963548896068038  0.38438524178785305  0.10432576698118745  1.0000
  H   H733      1.0  0.09500174526296448  0.44800788241462386  0.08501562024112906  1.0000
  H   H734      1.0  0.09221189226784172  0.4373430757350325  0.04812899123278599  1.0000
  H   H735      1.0  0.12931756198971445  0.42693914717007736  0.06777945098454492  1.0000
  H   H736      1.0  0.08823177795426698  0.37830545683114686  0.0332894464855766  1.0000
  H   H737      1.0  0.12378252688298778  0.36601201296771657  0.05420158878156959  1.0000
  H   H738      1.0  0.08429373559303187  0.3453433007996319  0.05907603692084185  1.0000
  H   H739      1.0  0.04178512298741793  0.41708893254979545  0.09378033644664599  1.0000
  H   H740      1.0  0.03805000000172876  0.3737499267986323  0.08316503998669482  1.0000
  H   H741      1.0  0.03947481980916058  0.4062881887449669  0.05692466720655228  1.0000
  H   H742      1.0  0.09266968865089739  0.4024564876465151  0.12136317819574688  1.0000
  H   H743      1.0  0.12743342395994817  0.38207908213024894  0.10417889020821204  1.0000
  H   H744      1.0  0.08957065833947761  0.35915274459073815  0.11021501599994378  1.0000
  N   N47       1.0  0.1061493292019965  0.3963041114695981  0.23904064700475872  1.0000
  C   C473      1.0  0.11436738822662906  0.38635447838972  0.20967643809238307  1.0000
  C   C474      1.0  0.07329425412980228  0.38207675343709613  0.24705606953632742  1.0000
  C   C475      1.0  0.10487826077020466  0.4334998835540472  0.24112520220504324  1.0000
  C   C476      1.0  0.1321519910325679  0.38322330525369164  0.2583490402266836  1.0000
  H   H745      1.0  0.1393108372734943  0.3962683016932873  0.2031639415610515  1.0000
  H   H746      1.0  0.09548061125012026  0.3958760016918516  0.19439924972907668  1.0000
  H   H747      1.0  0.11555364767643757  0.3584084367408798  0.2074082939279101  1.0000
  H   H748      1.0  0.05303365036015135  0.3913477589373993  0.2329108950598828  1.0000
  H   H749      1.0  0.07348008191876888  0.3540093987742003  0.24577396058773393  1.0000
  H   H750      1.0  0.06641186204497239  0.389160149799569  0.26915608351678916  1.0000
  H   H751      1.0  0.0982300378364675  0.44190414515423854  0.2629321900021223  1.0000
  H   H752      1.0  0.08596034632128413  0.44438659782221196  0.2265146098393633  1.0000
  H   H753      1.0  0.12952776390440845  0.4450322813040623  0.23576985644200252  1.0000
  H   H754      1.0  0.12650738769166048  0.38961068573122976  0.2807912287446901  1.0000
  H   H755      1.0  0.1571516272661121  0.39390838164693  0.25315579110827086  1.0000
  H   H756      1.0  0.13456333392446646  0.3552845907626866  0.25668913031162155  1.0000
  N   N48       1.0  0.26320309760596705  0.47133729440307964  0.3315862550007323  1.0000
  C   C477      1.0  0.253006106732729  0.4355005416168096  0.3309850752537042  1.0000
  C   C478      1.0  0.24002185818830765  0.49058217850703006  0.3499465018180247  1.0000
  C   C479      1.0  0.26203486681686944  0.4852698978322552  0.3026420651145574  1.0000
  C   C480      1.0  0.29774261492485166  0.4739619558099963  0.3426210591281718  1.0000
  H   H757      1.0  0.26975752978452794  0.4203151051722796  0.3170290456473063  1.0000
  H   H758      1.0  0.22701955470292826  0.4325640226565748  0.3228982420936301  1.0000
  H   H759      1.0  0.2540328624306847  0.4240345549153547  0.3524285202399219  1.0000
  H   H760      1.0  0.24708047785582332  0.5177246759126358  0.35097266560497925  1.0000
  H   H761      1.0  0.2138181279522777  0.48930456325181637  0.3418461931672799  1.0000
  H   H762      1.0  0.2399684703241177  0.48063469061647146  0.3719470216396363  1.0000
  H   H763      1.0  0.2798189798969669  0.47185674531839183  0.28841650824065057  1.0000
  H   H764      1.0  0.2689276262458865  0.5124545750052917  0.302281580558001  1.0000
  H   H765      1.0  0.23657920727910364  0.4829916018600956  0.2932800318801382  1.0000
  H   H766      1.0  0.3156992861907531  0.459480896980915  0.3291336902577896  1.0000
  H   H767      1.0  0.29969746086738347  0.46376158127501493  0.3644724639784251  1.0000
  H   H768      1.0  0.30649570752690203  0.5006089827004421  0.34307199145075706  1.0000
