data_image0
_chemical_formula_structural       FeS2FeS2FeSFeS3FeS2FeS2FeSFeS3FeS2FeS2FeSFeS3FeS2FeS2FeSFeS3FeS2FeS2FeSFeS3FeS2FeS2FeSFeS3FeS2FeS2FeSFeS3FeS2FeS2FeSFeS3FeS2FeS2FeSFeS3FeS2FeS2FeSFeS3FeS2FeS2FeSFeS3FeS2FeS2FeSFeS3C6H4C6H4C6H4C6H4C6H4C6H4C6H4C6H4C6H4C6H4C6H4C6H4C6H4C6H4C6H4C6H4C6H4C6H4C6H4C6H4C6H4C6H4C6H4C6H4NC4H12NC4H12NC4H12NC4H12NC4H12NC4H12NC4H12NC4H12NC4H12NC4H12NC4H12NC4H12NC4H12NC4H12NC4H12NC4H12NC4H12NC4H12NC4H12NC4H12NC4H12NC4H12NC4H12NC4H12
_chemical_formula_sum              "Fe48 S96 C240 H384 N24"
_cell_length_a       28.413599787233824
_cell_length_b       28.637514159185663
_cell_length_c       34.14148077027793
_cell_angle_alpha    90.64366023743895
_cell_angle_beta     90.41498651925679
_cell_angle_gamma    90.03187879371698

_space_group_name_H-M_alt    "P 1"
_space_group_IT_number       1

loop_
  _space_group_symop_operation_xyz
  'x, y, z'

loop_
  _atom_site_type_symbol
  _atom_site_label
  _atom_site_symmetry_multiplicity
  _atom_site_fract_x
  _atom_site_fract_y
  _atom_site_fract_z
  _atom_site_occupancy
  Fe  Fe1       1.0  0.6416799322849099  0.6540553605127485  0.7769691171814893  1.0000
  S   S1        1.0  0.6033405466908168  0.6417252604867633  0.833079532203909  1.0000
  S   S2        1.0  0.6040774263064128  0.6506706662121758  0.7186136783866822  1.0000
  Fe  Fe2       1.0  0.732459816901956  0.6822444936372613  0.818471141764853  1.0000
  S   S3        1.0  0.702018777657928  0.6728825509076776  0.87818282620069  1.0000
  S   S4        1.0  0.8079453161284204  0.7033642206052433  0.8095301524896682  1.0000
  Fe  Fe3       1.0  0.6704412667511586  0.6075395411595916  0.8526473695827241  1.0000
  S   S5        1.0  0.6694770491485974  0.5439669952525737  0.8905944608933167  1.0000
  Fe  Fe4       1.0  0.6378440403521402  0.7079223734896508  0.8538002134787277  1.0000
  S   S6        1.0  0.6019640820550856  0.766523818176016  0.8862490872795601  1.0000
  S   S7        1.0  0.7059837762959178  0.6136078185927778  0.7943915099083629  1.0000
  S   S8        1.0  0.6712829620950364  0.7233910912846896  0.7960828832654915  1.0000
  Fe  Fe5       1.0  0.9329406472000186  0.9299938070432159  0.8705497287600811  1.0000
  S   S9        1.0  0.9929732386265078  0.9436793716868732  0.9120496741755914  1.0000
  S   S10       1.0  0.8681110472404564  0.8933313433733062  0.8922750463541295  1.0000
  Fe  Fe6       1.0  0.9758587403801542  0.9895014916453033  0.806587692992902  1.0000
  S   S11       1.0  0.038988558954662134  0.009298393270313454  0.8431751770170662  1.0000
  S   S12       1.0  0.9639863268741583  0.00788725750401742  0.7432601883749707  1.0000
  Fe  Fe7       1.0  0.039290696029508965  0.9337836884937736  0.8597469406773173  1.0000
  S   S13       1.0  0.10675228153412042  0.8927385588795265  0.8568185419854701  1.0000
  Fe  Fe8       1.0  0.9870964720735879  0.017761393700836292  0.8920424452096809  1.0000
  S   S14       1.0  0.990155488793528  0.07264820595236543  0.9397075054057468  1.0000
  S   S15       1.0  0.979634370618158  0.9130352096010095  0.8197251629274691  1.0000
  S   S16       1.0  0.9236911519818627  0.0050373932014551315  0.8539419708120906  1.0000
  Fe  Fe9       1.0  0.40141535972909087  0.38387884144828777  0.5755841245027902  1.0000
  S   S17       1.0  0.39769486250289443  0.4295900861170719  0.5226472122582078  1.0000
  S   S18       1.0  0.36946434102149456  0.3126147816671057  0.582383128208294  1.0000
  Fe  Fe10      1.0  0.4599985505756673  0.45372297676705947  0.6233353526649366  1.0000
  S   S19       1.0  0.4611176140133691  0.5055439732026445  0.5746957928042961  1.0000
  S   S20       1.0  0.49696537599028023  0.46150833785584083  0.6817864782372419  1.0000
  Fe  Fe11      1.0  0.38506371836606773  0.4872296790439396  0.5664793018929803  1.0000
  S   S21       1.0  0.32851666597711476  0.5413638059507246  0.5597811822388893  1.0000
  Fe  Fe12      1.0  0.47419323578071865  0.44354603939449977  0.5354787731742481  1.0000
  S   S22       1.0  0.5313509475206489  0.4512144590350938  0.4905949648787053  1.0000
  S   S23       1.0  0.38251671758025374  0.44033836778627755  0.6185679426526444  1.0000
  S   S24       1.0  0.47909803531616996  0.3928139674401361  0.584834026022055  1.0000
  Fe  Fe13      1.0  0.05309042896454819  0.1371317474572129  0.5289781659197462  1.0000
  S   S25       1.0  0.07423222504246475  0.1897672460693511  0.5750534472859042  1.0000
  S   S26       1.0  0.9778443271843202  0.12245538106478202  0.5114742261186093  1.0000
  Fe  Fe14      1.0  0.15280722047216902  0.10220811268656005  0.5172411889004862  1.0000
  S   S27       1.0  0.18225292549115074  0.15093093031350166  0.562897012858472  1.0000
  S   S28       1.0  0.2044523997264089  0.06214114624355993  0.48020654361348725  1.0000
  Fe  Fe15      1.0  0.11907793598239882  0.13166830048546543  0.598138650046852  1.0000
  S   S29       1.0  0.1259524509148716  0.12250488918398927  0.6632744858539554  1.0000
  Fe  Fe16      1.0  0.13545524770053435  0.20476539177289088  0.5360048744365581  1.0000
  S   S30       1.0  0.16206431163182292  0.27683749358465615  0.521552051131735  1.0000
  S   S31       1.0  0.09372121709760708  0.07747280035140185  0.554948654449304  1.0000
  S   S32       1.0  0.11009633655931599  0.1574473648595256  0.4874490588493448  1.0000
  Fe  Fe17      1.0  0.2570352697572734  0.812450222368794  0.4382268208191485  1.0000
  S   S33       1.0  0.24727743588547926  0.8416188186966578  0.37806615075743216  1.0000
  S   S34       1.0  0.2163196727078587  0.8420228915632993  0.48919800570258204  1.0000
  Fe  Fe18      1.0  0.32127594484033345  0.7350436249709967  0.4094648672743007  1.0000
  S   S35       1.0  0.3154746097749809  0.7570285933425596  0.3468261609527833  1.0000
  S   S36       1.0  0.37261274009622447  0.6768379901401339  0.4198412079935872  1.0000
  Fe  Fe19      1.0  0.32455909784073456  0.8293024699632408  0.3710805718686765  1.0000
  S   S37       1.0  0.3732572993855414  0.882506160876806  0.34533775636307595  1.0000
  Fe  Fe20      1.0  0.23901679333642536  0.766848428051065  0.35954117542017555  1.0000
  S   S38       1.0  0.1834754908770892  0.7515273399983243  0.31413528968834936  1.0000
  S   S39       1.0  0.3355562965845814  0.8069986715036881  0.4332725762944597  1.0000
  S   S40       1.0  0.24345870540236897  0.7379437527225132  0.4201524483178057  1.0000
  Fe  Fe21      1.0  0.36980939430822907  0.8057992390449107  0.9703298806549052  1.0000
  S   S41       1.0  0.42195170949497873  0.8102243946647075  0.019564002563693172  1.0000
  S   S42       1.0  0.3846890039006271  0.7526293073614122  0.9232126089260642  1.0000
  Fe  Fe22      1.0  0.3039293188573714  0.8754140988396953  0.008046112158978547  1.0000
  S   S43       1.0  0.3496019054611188  0.8841492836150548  0.061567777086248165  1.0000
  S   S44       1.0  0.2390020912719391  0.9200995150780495  0.00530860025780866  1.0000
  Fe  Fe23      1.0  0.40863906394938204  0.887195832757327  0.018741000717870104  1.0000
  S   S45       1.0  0.4694904204428188  0.9372695239968967  0.023753178955626675  1.0000
  Fe  Fe24      1.0  0.3587948029306245  0.8067060862061022  0.057853469039798266  1.0000
  S   S46       1.0  0.3587624947381996  0.7608395543590328  0.11061742981486034  1.0000
  S   S47       1.0  0.3626591432426399  0.8836213072434215  0.965039295394189  1.0000
  S   S48       1.0  0.3067919193359812  0.7971761394135909  0.008778598780297964  1.0000
  Fe  Fe25      1.0  0.6909511377083106  0.2648191148736087  0.4030287589536833  1.0000
  S   S49       1.0  0.6918092183761511  0.2570247839958683  0.3377683068348977  1.0000
  S   S50       1.0  0.6212653784579781  0.26033186457819274  0.4336446072714329  1.0000
  Fe  Fe26      1.0  0.7968216170151686  0.27574833105079416  0.409397612211047  1.0000
  S   S51       1.0  0.8070094870500716  0.27027558631181886  0.3445092999993249  1.0000
  S   S52       1.0  0.8595212621654723  0.2931425859482981  0.44774321879616724  1.0000
  Fe  Fe27      1.0  0.743352294717959  0.3156802544243584  0.33977433806378976  1.0000
  S   S53       1.0  0.733678744064263  0.3728034309849475  0.2962096253217596  1.0000
  Fe  Fe28      1.0  0.7547822923739855  0.21202027808689708  0.34750132406234524  1.0000
  S   S54       1.0  0.7652015228228969  0.1513248424690959  0.3069828373449455  1.0000
  S   S55       1.0  0.7379071762318304  0.327742174925349  0.4045163978776106  1.0000
  S   S56       1.0  0.7493695075388384  0.21310485423591347  0.4130460816313285  1.0000
  Fe  Fe29      1.0  0.48873354936271984  0.18296261713598516  0.11197948081905262  1.0000
  S   S57       1.0  0.5208752867113271  0.19344940915346714  0.17161090524514133  1.0000
  S   S58       1.0  0.4305782788647398  0.12955538581402704  0.10919159323368066  1.0000
  Fe  Fe30      1.0  0.5492474013934517  0.2585869093665662  0.07611962964427454  1.0000
  S   S59       1.0  0.5868066332503152  0.2739417213789012  0.1327233932384373  1.0000
  S   S60       1.0  0.5707127901198176  0.2995308761384963  0.02360505884904085  1.0000
  Fe  Fe31      1.0  0.5886360150199798  0.19619522248413562  0.13890475769059485  1.0000
  S   S61       1.0  0.6519980233843937  0.15834897125385475  0.16146717285598888  1.0000
  Fe  Fe32      1.0  0.5151715148092062  0.26958988094469577  0.1591516568979805  1.0000
  S   S62       1.0  0.49030102267000136  0.3239656875970116  0.20222627833690465  1.0000
  S   S63       1.0  0.5573352116691906  0.18099213590677335  0.07980029586974147  1.0000
  S   S64       1.0  0.4770802169961124  0.2594897151225286  0.10186754559120814  1.0000
  Fe  Fe33      1.0  0.2115212163008208  0.4895026711188374  0.06186710375775806  1.0000
  S   S65       1.0  0.19922076894621127  0.46623798467898475  0.12342000254316088  1.0000
  S   S66       1.0  0.1551508414439009  0.48972128464182557  0.015438071145596366  1.0000
  Fe  Fe34      1.0  0.31195697634363473  0.5192039810559907  0.07894519036964964  1.0000
  S   S67       1.0  0.30894329758029343  0.49870968285367356  0.14197641598896604  1.0000
  S   S68       1.0  0.3752859768948723  0.5526513394040079  0.05230594413071965  1.0000
  Fe  Fe35      1.0  0.2715666806204123  0.43508031560867355  0.11903998515431402  1.0000
  S   S69       1.0  0.28614208335921104  0.36141933460948145  0.1375153165533285  1.0000
  Fe  Fe36      1.0  0.23734947663351005  0.5318342028411143  0.14053018777134896  1.0000
  S   S70       1.0  0.2118773530015931  0.5779437591152857  0.18934820842832023  1.0000
  S   S71       1.0  0.280665785755864  0.4527199877036869  0.055566719591444214  1.0000
  S   S72       1.0  0.24365144740732547  0.5580841922550651  0.07939849822487366  1.0000
  Fe  Fe37      1.0  0.9730717474042904  0.5996402078555605  0.3082218238506534  1.0000
  S   S73       1.0  0.9402540725418045  0.654331021280674  0.27013542598148904  1.0000
  S   S74       1.0  0.018258161806093298  0.6161350433108906  0.36083000991943504  1.0000
  Fe  Fe38      1.0  0.9363879771791502  0.5195677161728501  0.2580868731243101  1.0000
  S   S75       1.0  0.9007771043827146  0.5668482277702223  0.2156670454989712  1.0000
  S   S76       1.0  0.9351941785417797  0.4421669117611414  0.24811429491776854  1.0000
  Fe  Fe39      1.0  0.9662549771379007  0.6098279736349874  0.22056570547082288  1.0000
  S   S77       1.0  0.999871809470758  0.6373396055749349  0.16629269910484437  1.0000
  Fe  Fe40      1.0  0.8776744645265971  0.6066151639169035  0.2691035817697959  1.0000
  S   S78       1.0  0.8021422756523408  0.6295585800803591  0.27029233656105456  1.0000
  S   S79       1.0  0.0042922293102320985  0.558771037938733  0.25851177363254474  1.0000
  S   S80       1.0  0.9079955184585302  0.5553903060704456  0.311650197960939  1.0000
  Fe  Fe41      1.0  0.596868347071395  0.8476068560444742  0.2411327845005324  1.0000
  S   S81       1.0  0.6613631274087017  0.8370991551336584  0.20435947737726862  1.0000
  S   S82       1.0  0.5357913879234439  0.798063195031978  0.24164036897588279  1.0000
  Fe  Fe42      1.0  0.625912197232332  0.9441965303239744  0.2690612581759258  1.0000
  S   S83       1.0  0.6933275300001405  0.9421435480265483  0.23559328657004303  1.0000
  S   S84       1.0  0.6007939678535601  0.005944567495020925  0.3043915925170664  1.0000
  Fe  Fe43      1.0  0.6497992163971366  0.9114717987730063  0.1869804639347542  1.0000
  S   S85       1.0  0.6462577797584037  0.9411398726728949  0.12684481955648064  1.0000
  Fe  Fe44      1.0  0.699088571058515  0.8685940965012161  0.2565023913887779  1.0000
  S   S86       1.0  0.7699620235221735  0.8473062157310094  0.2796865262927231  1.0000
  S   S87       1.0  0.582031220313124  0.9189367508535621  0.21878741815023792  1.0000
  S   S88       1.0  0.6353536135249028  0.8730799976304078  0.29486344467779807  1.0000
  Fe  Fe45      1.0  0.8636391512700695  0.30196923140284665  0.963434169495525  1.0000
  S   S89       1.0  0.873415341163935  0.29739474806874633  0.028510158270711905  1.0000
  S   S90       1.0  0.8507511812417893  0.24246825122123536  0.9211940019434272  1.0000
  Fe  Fe46      1.0  0.8744598240557784  0.4073240547978164  0.9630148641171947  1.0000
  S   S91       1.0  0.8858896751685253  0.41267052876730514  0.027942035976010526  1.0000
  S   S92       1.0  0.874412555717431  0.467987781540245  0.921967421491957  1.0000
  Fe  Fe47      1.0  0.9313817628902197  0.34950232437189593  0.01989496271404745  1.0000
  S   S93       1.0  0.9999131902139464  0.33902241232436753  0.05178169165185498  1.0000
  Fe  Fe48      1.0  0.827008808846057  0.3606079637953425  0.0310602638937989  1.0000
  S   S94       1.0  0.7711977243325109  0.37105550234632256  0.07647949365357509  1.0000
  S   S95       1.0  0.9256867162893582  0.3487350143746732  0.9544098258313433  1.0000
  S   S96       1.0  0.8115883851754615  0.36058778635784966  0.9666110295826764  1.0000
  C   C1        1.0  0.7926925871247856  0.6897953946452486  0.2756226173841287  1.0000
  C   C2        1.0  0.8284852329227949  0.7194347590761946  0.28929074154982726  1.0000
  C   C3        1.0  0.8210644956477222  0.7678413652674155  0.2911178730005561  1.0000
  C   C4        1.0  0.7777472289194687  0.7866230559142009  0.2794518050479087  1.0000
  C   C5        1.0  0.7415975474377571  0.7569149301149185  0.26665801884345  1.0000
  C   C6        1.0  0.7490890821839644  0.7085511379093078  0.2647550370726567  1.0000
  H   H1        1.0  0.8616177425302248  0.7050614608934745  0.29895083217823315  1.0000
  H   H2        1.0  0.8489009932246923  0.7907167930278071  0.3014883793408127  1.0000
  H   H3        1.0  0.7078690482959292  0.7710921686663846  0.2581496787711425  1.0000
  H   H4        1.0  0.7212001410539122  0.6856509350191929  0.2544580264623169  1.0000
  C   C7        1.0  0.11291356184658152  0.4462779424814051  0.023581408545885862  1.0000
  C   C8        1.0  0.0684528844360035  0.4492828862772429  0.005755824450296432  1.0000
  C   C9        1.0  0.03345731806286367  0.4163115440260162  0.01417447951782691  1.0000
  C   C10       1.0  0.0430741871689555  0.38022365012479664  0.0402996878292472  1.0000
  C   C11       1.0  0.08782904916193823  0.37655500757153565  0.0573490353353312  1.0000
  C   C12       1.0  0.12276915774560893  0.4094300757625518  0.048886786920185  1.0000
  H   H5        1.0  0.06078831227409487  0.47766168167465634  0.9860387183205567  1.0000
  H   H6        1.0  0.9989624506748495  0.41919028627469024  0.0007752470398401101  1.0000
  H   H7        1.0  0.0955104855912361  0.34838818687523193  0.07728123645247731  1.0000
  H   H8        1.0  0.1573209551301924  0.4063059353008565  0.06206776233498701  1.0000
  C   C13       1.0  0.15405976868744614  0.597414206341719  0.18170098065005003  1.0000
  C   C14       1.0  0.13335242571162498  0.5959403522791039  0.14434119835840398  1.0000
  C   C15       1.0  0.08664332140638709  0.6109001099966418  0.1390447422017489  1.0000
  C   C16       1.0  0.06026424134561981  0.625834375493752  0.17130191563605046  1.0000
  C   C17       1.0  0.08129279182536235  0.6279630357932355  0.20839207457574918  1.0000
  C   C18       1.0  0.12820106896905403  0.6142408735689414  0.21355360481695795  1.0000
  H   H9        1.0  0.1531919400752082  0.5831111482230168  0.1195750786299179  1.0000
  H   H10       1.0  0.07053005738864737  0.6093128308681518  0.11024998304058475  1.0000
  H   H11       1.0  0.06125681328871191  0.6399093632257209  0.23330180484714166  1.0000
  H   H12       1.0  0.1439067857919228  0.6153629178441151  0.2425389001571172  1.0000
  C   C19       1.0  0.6263038403372624  0.3217455258645245  0.0360981985905382  1.0000
  C   C20       1.0  0.6307284211074192  0.35426807691772166  0.06675048830702246  1.0000
  C   C21       1.0  0.6753795365008938  0.369955863026815  0.07858042484325778  1.0000
  C   C22       1.0  0.7156519622673434  0.35317504927777243  0.05975084246669016  1.0000
  C   C23       1.0  0.7112657454287534  0.3207609339598741  0.028994718098982464  1.0000
  C   C24       1.0  0.6665597436087416  0.30492597856670944  0.017242781913846095  1.0000
  H   H13       1.0  0.599734111666668  0.36688664395177756  0.08171556311208383  1.0000
  H   H14       1.0  0.6787628921858639  0.39489334121007713  0.102487187051717  1.0000
  H   H15       1.0  0.7424011295511138  0.3067067395896561  0.015157833666667564  1.0000
  H   H16       1.0  0.663355359816866  0.27850190748934184  0.994481044473841  1.0000
  C   C25       1.0  0.6512555830365668  0.09843515456392322  0.14938696115469496  1.0000
  C   C26       1.0  0.6142692400124047  0.07872686570813754  0.12741716077968435  1.0000
  C   C27       1.0  0.6138444666084593  0.03065149766683062  0.11882096275094933  1.0000
  C   C28       1.0  0.6497179772098527  0.0019462631172486589  0.1331678588875067  1.0000
  C   C29       1.0  0.6866713214371266  0.021601509482517933  0.1550489468934022  1.0000
  C   C30       1.0  0.6877432567850349  0.06981166546468232  0.16265990401337516  1.0000
  H   H17       1.0  0.5856347264273101  0.1002181556689717  0.11742467442197468  1.0000
  H   H18       1.0  0.5851295044918386  0.015586986635604209  0.1019266831236767  1.0000
  H   H19       1.0  0.7147506789830015  0.9996746977770127  0.16585760916232872  1.0000
  H   H20       1.0  0.7166578730058374  0.084885188986769  0.1792008414102968  1.0000
  C   C31       1.0  0.4305737797985696  0.3331415642723134  0.19123216747916372  1.0000
  C   C32       1.0  0.4041883443307045  0.29698375314605685  0.17418829214604514  1.0000
  C   C33       1.0  0.3589329272619312  0.30567246217607275  0.15950681450504933  1.0000
  C   C34       1.0  0.3399676995200592  0.3506913750840086  0.16140951840733875  1.0000
  C   C35       1.0  0.36539418224311004  0.38647784919265415  0.1802449483496691  1.0000
  C   C36       1.0  0.4105828644995442  0.3775859189652955  0.19548703255673816  1.0000
  H   H21       1.0  0.418859804109376  0.2622399179791908  0.17179640730355294  1.0000
  H   H22       1.0  0.3392051591752569  0.27773224694180865  0.14544430680481146  1.0000
  H   H23       1.0  0.3504597871436394  0.4210123669198266  0.1827551988056395  1.0000
  H   H24       1.0  0.4306875907465523  0.40559571663108857  0.2090066212905093  1.0000
  C   C37       1.0  0.7884616934475209  0.3914772403712173  0.2791395534159056  1.0000
  C   C38       1.0  0.7967101851660988  0.4390716187019302  0.27372004398324545  1.0000
  C   C39       1.0  0.8415145013961545  0.45461380541677  0.2629638452393253  1.0000
  C   C40       1.0  0.8778364227444406  0.4224754156828835  0.25670217898330455  1.0000
  C   C41       1.0  0.8690118045608723  0.37468925941015674  0.2603615065620122  1.0000
  C   C42       1.0  0.8244774221139358  0.3592306125873829  0.27200196715601344  1.0000
  H   H25       1.0  0.7688937909872972  0.46414655313233816  0.2789848106801534  1.0000
  H   H26       1.0  0.847886921463764  0.4915916366367377  0.25994729523241955  1.0000
  H   H27       1.0  0.8969651592401843  0.3497378396844554  0.2552826565603537  1.0000
  H   H28       1.0  0.8179904636649766  0.32235634179260275  0.2751410037137753  1.0000
  C   C43       1.0  0.6401520654366779  0.052885225463148014  0.30152305659367296  1.0000
  C   C44       1.0  0.644257382822564  0.08472134937140947  0.3327984874167553  1.0000
  C   C45       1.0  0.6812040510200053  0.11732020950694945  0.33360974111756814  1.0000
  C   C46       1.0  0.7139803841304783  0.11768693709419745  0.303212393135235  1.0000
  C   C47       1.0  0.7081299113199181  0.08773380841972533  0.27101343851317283  1.0000
  C   C48       1.0  0.6707779119571243  0.055944661591713636  0.2698581977877879  1.0000
  H   H29       1.0  0.6203301919165726  0.08274802821459415  0.3572485158646404  1.0000
  H   H30       1.0  0.6855623781879134  0.14059607152361356  0.358566712732331  1.0000
  H   H31       1.0  0.7331435661799177  0.08851356363812117  0.24731761329264138  1.0000
  H   H32       1.0  0.6662359118989248  0.03339284424621237  0.24465664400424278  1.0000
  C   C49       1.0  0.36985446225603014  0.7026249928512758  0.09696953193688373  1.0000
  C   C50       1.0  0.3964817177934874  0.6915287090353377  0.06377998353919123  1.0000
  C   C51       1.0  0.4014618750608133  0.6447803439101576  0.05164867690391528  1.0000
  C   C52       1.0  0.3783906135122194  0.6093636403004387  0.07191874264124887  1.0000
  C   C53       1.0  0.3531317404564075  0.6204054449308889  0.1057287737068513  1.0000
  C   C54       1.0  0.34952248185127094  0.6668131362503577  0.11846513128543057  1.0000
  H   H33       1.0  0.4129519568390853  0.7187610444421323  0.047212101066254064  1.0000
  H   H34       1.0  0.42143663515426205  0.6363949215705214  0.02564010919930415  1.0000
  H   H35       1.0  0.33542350078046196  0.5933597399114994  0.12173977639010625  1.0000
  H   H36       1.0  0.32937258666665836  0.6750253291811154  0.14410702326658242  1.0000
  C   C55       1.0  0.46125811874256767  0.9887749802892191  0.05121584229895304  1.0000
  C   C56       1.0  0.49304311978286464  0.0257224980928199  0.04704859133633277  1.0000
  C   C57       1.0  0.4847171340001021  0.06881521469635521  0.06567583777404429  1.0000
  C   C58       1.0  0.44470852482698064  0.07495743742066252  0.08872339008804397  1.0000
  C   C59       1.0  0.4142057974292089  0.037302450613144966  0.09448671298437561  1.0000
  C   C60       1.0  0.4224555741929763  0.9942683468835852  0.07577752705039797  1.0000
  H   H37       1.0  0.5234130396694965  0.021524342189289225  0.028361464911147216  1.0000
  H   H38       1.0  0.5084798447246587  0.0975478114547863  0.06104372599597818  1.0000
  H   H39       1.0  0.38363292548045386  0.041721983094978654  0.11289156430428338  1.0000
  H   H40       1.0  0.39835463773247487  0.9657835677829592  0.07992944076277131  1.0000
  C   C61       1.0  0.13966932032900592  0.7112737434498464  0.3265252953684187  1.0000
  C   C62       1.0  0.09992211811331607  0.7071301629748931  0.30239637784344914  1.0000
  C   C63       1.0  0.06304003568162408  0.6773667038134863  0.312695688198799  1.0000
  C   C64       1.0  0.06555897769312426  0.6517127324770414  0.3472113221569819  1.0000
  C   C65       1.0  0.1056585866219124  0.6552946225575338  0.3711556900747144  1.0000
  C   C66       1.0  0.14295394670200243  0.6846928998336032  0.36055599402495736  1.0000
  H   H41       1.0  0.09737831380568329  0.7272695050935197  0.2758318768802604  1.0000
  H   H42       1.0  0.03239940644181427  0.6748160534119233  0.29409017217953937  1.0000
  H   H43       1.0  0.10809274728723763  0.6348961246114616  0.3975780467797302  1.0000
  H   H44       1.0  0.174215136365699  0.6864416455513291  0.3785701031248236  1.0000
  C   C67       1.0  0.4162805931698776  0.8605350497876381  0.3134690664864658  1.0000
  C   C68       1.0  0.4588507789196327  0.8846644723439252  0.3099827777295354  1.0000
  C   C69       1.0  0.49517409018384445  0.8661345952015632  0.2870521640327898  1.0000
  C   C70       1.0  0.488848413609052  0.823635492750938  0.26710148142842555  1.0000
  C   C71       1.0  0.4457449170458737  0.8001831482589442  0.2695091612661561  1.0000
  C   C72       1.0  0.4095058778034142  0.8186071317923993  0.29272682514911813  1.0000
  H   H45       1.0  0.46424965556058956  0.9170990044870325  0.3259926594493104  1.0000
  H   H46       1.0  0.5284527088025162  0.8842373834047428  0.28583422710519263  1.0000
  H   H47       1.0  0.44062729104843196  0.7674656389179946  0.2538806787201588  1.0000
  H   H48       1.0  0.3762918019834027  0.800593805520608  0.29428663443812103  1.0000
  C   C73       1.0  0.8927977701682431  0.24537200654191524  0.46439591239176853  1.0000
  C   C74       1.0  0.8760323186786539  0.19967481644476895  0.4601313300999327  1.0000
  C   C75       1.0  0.9025647406555835  0.16214466020918647  0.47448229534278896  1.0000
  C   C76       1.0  0.9463825861363065  0.17003432747705624  0.4924628860294083  1.0000
  C   C77       1.0  0.9634553395499822  0.21566417438921148  0.49644625120569075  1.0000
  C   C78       1.0  0.9365061683333433  0.2533017870825538  0.4826752832808222  1.0000
  H   H49       1.0  0.8424737112785597  0.19322217709265346  0.44606625442252795  1.0000
  H   H50       1.0  0.8892373616391371  0.1268994163633982  0.4713809389155676  1.0000
  H   H51       1.0  0.9972482507204232  0.22200870682613227  0.5103122458352946  1.0000
  H   H52       1.0  0.9496751843073032  0.2885732498209682  0.48604287627454934  1.0000
  C   C79       1.0  0.2069175321096796  0.0010343608727874098  0.48365068318608045  1.0000
  C   C80       1.0  0.2379291929276874  0.9765214933626912  0.45925821269630096  1.0000
  C   C81       1.0  0.24108664222430476  0.9277701442603349  0.4611342581595594  1.0000
  C   C82       1.0  0.2132438723526663  0.903238400905399  0.4874644674092982  1.0000
  C   C83       1.0  0.18235157138587144  0.9276728308725479  0.512136063835816  1.0000
  C   C84       1.0  0.17910535804548877  0.9766073181747058  0.5101916347156702  1.0000
  H   H53       1.0  0.2596335553367321  0.995252446598278  0.43878892873434544  1.0000
  H   H54       1.0  0.26554957839558907  0.909322426319928  0.442456977564945  1.0000
  H   H55       1.0  0.16093062386255955  0.9088053301180403  0.5326848569741358  1.0000
  H   H56       1.0  0.15529617781086572  0.995378839540168  0.5292154332767722  1.0000
  C   C85       1.0  0.5553946860710042  0.39803600683991053  0.47422935260981713  1.0000
  C   C86       1.0  0.5368933602421062  0.3554236631515609  0.4864864511539228  1.0000
  C   C87       1.0  0.5572968402327346  0.31330228792802944  0.4737888166605015  1.0000
  C   C88       1.0  0.5963922949071786  0.31362642912659505  0.44901660496653945  1.0000
  C   C89       1.0  0.6143457888140796  0.3562744815765573  0.43622024553451216  1.0000
  C   C90       1.0  0.5938985422328797  0.3984007485335892  0.44882329884324385  1.0000
  H   H57       1.0  0.5068157405827659  0.3548050778677322  0.505683857345806  1.0000
  H   H58       1.0  0.543001324538193  0.28039251404685206  0.4834883418901203  1.0000
  H   H59       1.0  0.6437818630277431  0.3568885594042188  0.4165007406660555  1.0000
  H   H60       1.0  0.6080804376804877  0.43130787636534695  0.43904327917772595  1.0000
  C   C91       1.0  0.3406761294975863  0.5791224664690927  0.5209751879735529  1.0000
  C   C92       1.0  0.3110300669170555  0.6171993030129487  0.5137105482716627  1.0000
  C   C93       1.0  0.3205658411809272  0.6475383220491732  0.4827001341022732  1.0000
  C   C94       1.0  0.35965872254055103  0.6396457963863352  0.45885386254135063  1.0000
  C   C95       1.0  0.3892728216955165  0.6015933124554294  0.4661828434368394  1.0000
  C   C96       1.0  0.37981637018322884  0.5713608015043752  0.49718933388993586  1.0000
  H   H61       1.0  0.2808146808487953  0.6233669465457848  0.532136712738465  1.0000
  H   H62       1.0  0.29778434994411834  0.6770178502444932  0.47735162649906043  1.0000
  H   H63       1.0  0.4194463623345041  0.5952791692043737  0.4477311892271236  1.0000
  H   H64       1.0  0.40270288863776865  0.5419160192472818  0.5024873639684156  1.0000
  C   C97       1.0  0.31159095810276694  0.30455330309638823  0.5657289621675267  1.0000
  C   C98       1.0  0.2831601816989252  0.2717696887912345  0.5843409970665562  1.0000
  C   C99       1.0  0.23690325174646235  0.2639484084729548  0.5713910346367292  1.0000
  C   C100      1.0  0.2192247430174412  0.2879598346169623  0.5390960241520244  1.0000
  C   C101      1.0  0.24777015602427416  0.32051930228832815  0.5201650618050377  1.0000
  C   C102      1.0  0.2938800012632645  0.329130048294496  0.5336602114581749  1.0000
  H   H65       1.0  0.2967497280211382  0.2528125714458321  0.6092443167454982  1.0000
  H   H66       1.0  0.21472434354940712  0.23986065525439276  0.5868907577015765  1.0000
  H   H67       1.0  0.23433985310946825  0.3387223668798829  0.49482114036402336  1.0000
  H   H68       1.0  0.3160549064802836  0.3538854706037814  0.5187601024349399  1.0000
  C   C103      1.0  0.9507057478072282  0.1190664563412389  0.9342726730302189  1.0000
  C   C104      1.0  0.9296415744150174  0.128270094509246  0.8980693274676363  1.0000
  C   C105      1.0  0.8984046137670664  0.1659305039419316  0.8944060959092598  1.0000
  C   C106      1.0  0.8890814057228341  0.19506060208621892  0.9266632781448247  1.0000
  C   C107      1.0  0.9102707445253577  0.18589282305323282  0.9628475171511603  1.0000
  C   C108      1.0  0.9406194562190289  0.1475754331044922  0.9667221938171742  1.0000
  H   H69       1.0  0.9376664225922808  0.10667633497278882  0.8728095143016618  1.0000
  H   H70       1.0  0.8820562324800292  0.17301701759942267  0.866360505696472  1.0000
  H   H71       1.0  0.902646187750133  0.20785014687644296  0.9879670243754284  1.0000
  H   H72       1.0  0.9562196116100987  0.13990000941583797  0.9949312305143322  1.0000
  C   C109      1.0  0.14372999086289032  0.9007973880064215  0.8978976380571037  1.0000
  C   C110      1.0  0.18548233786399956  0.8749367613630985  0.901066681472095  1.0000
  C   C111      1.0  0.21507592479822243  0.8806235572133041  0.9339603170219642  1.0000
  C   C112      1.0  0.20292694640438325  0.9122703231196014  0.9637096998152992  1.0000
  C   C113      1.0  0.16156472696589103  0.9385747903689179  0.9602518508339986  1.0000
  C   C114      1.0  0.13199838773952183  0.9328605722460959  0.9274263867129497  1.0000
  H   H73       1.0  0.19469853470112075  0.8501479108745851  0.8782540809540337  1.0000
  H   H74       1.0  0.2470269703692715  0.8603126292921289  0.9364168051542862  1.0000
  H   H75       1.0  0.15205383967890085  0.9630977377420521  0.9831956308361214  1.0000
  H   H76       1.0  0.10001902118365387  0.9531240040118611  0.9251102977501648  1.0000
  C   C115      1.0  0.008527015945006378  0.040692728710318704  0.7214669408022187  1.0000
  C   C116      1.0  0.03894927307917006  0.06849576060138407  0.7440562177771016  1.0000
  C   C117      1.0  0.07458158262630685  0.09414706518820437  0.7258738671896066  1.0000
  C   C118      1.0  0.07972475863095779  0.09213230341698128  0.6851181665687118  1.0000
  C   C119      1.0  0.04906514840024423  0.06454170086215315  0.6625398081530293  1.0000
  C   C120      1.0  0.013647990294694878  0.03870286850742156  0.6807254990848524  1.0000
  H   H77       1.0  0.03468603499208011  0.07077773853890768  0.7754335425292889  1.0000
  H   H78       1.0  0.0982280693613467  0.11558737935356689  0.7433959611988855  1.0000
  H   H79       1.0  0.05331974040275789  0.06225523461445249  0.6311938415428598  1.0000
  H   H80       1.0  0.9906442743419946  0.016543162424420776  0.6632751878121204  1.0000
  C   C121      1.0  0.726290920128798  0.5223361749371243  0.8989427864139679  1.0000
  C   C122      1.0  0.7614361087111158  0.5279267223160166  0.8709538302555517  1.0000
  C   C123      1.0  0.8065393012463481  0.5097469822964009  0.8776212329392596  1.0000
  C   C124      1.0  0.8168196762669535  0.4866562238997818  0.9125473811297711  1.0000
  C   C125      1.0  0.7816219223834256  0.48087984578990833  0.9405219125240954  1.0000
  C   C126      1.0  0.736322477338366  0.4985656838587865  0.9336326774430463  1.0000
  H   H81       1.0  0.7537167921339102  0.5455394269415673  0.8438558372289038  1.0000
  H   H82       1.0  0.8334503902678709  0.5133632994742955  0.8556056698602738  1.0000
  H   H83       1.0  0.7896331094951566  0.46387391381483833  0.9679135006842315  1.0000
  H   H84       1.0  0.7093748463082001  0.4947450912524107  0.955590861264132  1.0000
  C   C127      1.0  0.5420297986584792  0.7608229128868197  0.8977205478567954  1.0000
  C   C128      1.0  0.5179894009091859  0.7997317628746096  0.9125659347060044  1.0000
  C   C129      1.0  0.4697863257148167  0.7970056660127411  0.9206285640016455  1.0000
  C   C130      1.0  0.44519222865833574  0.755453960426301  0.9134664744645027  1.0000
  C   C131      1.0  0.46914840784416767  0.7162928767826304  0.8988463918168013  1.0000
  C   C132      1.0  0.5176904301014768  0.7188555893801825  0.8914054934338803  1.0000
  H   H85       1.0  0.5366829460756606  0.8322027686103185  0.9177096043441857  1.0000
  H   H86       1.0  0.4515846526860453  0.8273900479517062  0.93193487075988  1.0000
  H   H87       1.0  0.45040972447637595  0.6838365919033499  0.8939683447305533  1.0000
  H   H88       1.0  0.5363183659461848  0.6883153437722376  0.8812555932304658  1.0000
  C   C133      1.0  0.573701293965242  0.5983591460652984  0.7091677306434945  1.0000
  C   C134      1.0  0.5791043217655999  0.5599973965897812  0.7337335754343685  1.0000
  C   C135      1.0  0.5549356979109649  0.5182526135875246  0.7253036755981979  1.0000
  C   C136      1.0  0.5250860876509307  0.5148649871637743  0.6925188769944081  1.0000
  C   C137      1.0  0.5190069153389043  0.5536058195554541  0.6684540814839202  1.0000
  C   C138      1.0  0.5435560364694912  0.5951766712105668  0.6765885701576131  1.0000
  H   H89       1.0  0.6022616045240878  0.5622917500806154  0.7589927384317746  1.0000
  H   H90       1.0  0.5595772377899478  0.4884109218811636  0.7441085298579446  1.0000
  H   H91       1.0  0.4951028800249118  0.5517201023964855  0.6438061653688428  1.0000
  H   H92       1.0  0.5389473613032814  0.6249840502621291  0.6577488976684441  1.0000
  C   C139      1.0  0.8233310652946818  0.7577088712107216  0.8304558240371499  1.0000
  C   C140      1.0  0.7918585583494909  0.7818798444225064  0.8545857320403611  1.0000
  C   C141      1.0  0.8059566324446783  0.823515328222848  0.8733857636613174  1.0000
  C   C142      1.0  0.8512283035163313  0.8416004716448351  0.8676086558975322  1.0000
  C   C143      1.0  0.8825334155553805  0.8176471530389023  0.8431754267979802  1.0000
  C   C144      1.0  0.8686872534790309  0.775607102618179  0.8248447491740857  1.0000
  H   H93       1.0  0.7567903288923714  0.7683124469221764  0.8590971060864396  1.0000
  H   H94       1.0  0.7815767636170841  0.8418898681962177  0.8922451580003352  1.0000
  H   H95       1.0  0.9176260376918413  0.8311016654029593  0.838858079819412  1.0000
  H   H96       1.0  0.8932068936358674  0.7568887372624741  0.8063527910623933  1.0000
  N   N1        1.0  0.5062366850679239  0.049062905088959496  0.21165998112962736  1.0000
  C   C145      1.0  0.5518336301743226  0.07261670665883746  0.21916545414662703  1.0000
  C   C146      1.0  0.4958900403364673  0.01714312028018594  0.24424097408912604  1.0000
  C   C147      1.0  0.5087617635213181  0.022393622128974  0.174386901319453  1.0000
  C   C148      1.0  0.46833933597871413  0.08419059662658102  0.20882045948253536  1.0000
  H   H97       1.0  0.5600801319535031  0.09834398864735272  0.19602317328407914  1.0000
  H   H98       1.0  0.5813989357245345  0.04709598755726119  0.219944521311066  1.0000
  H   H99       1.0  0.5521742711223742  0.0915548935789896  0.24782186262953454  1.0000
  H   H100      1.0  0.49358247716709097  0.036381562049369265  0.2727027964983131  1.0000
  H   H101      1.0  0.4621701820909921  0.9980505789347907  0.23947900071765793  1.0000
  H   H102      1.0  0.5241021355354146  0.9907839374585751  0.24794876754999495  1.0000
  H   H103      1.0  0.4752528431196571  0.003635791095377705  0.16789684946133132  1.0000
  H   H104      1.0  0.5377604792724977  0.9963326756645127  0.17494674064453797  1.0000
  H   H105      1.0  0.5156442272115692  0.045928674495478106  0.14929583136588298  1.0000
  H   H106      1.0  0.43330213761838365  0.06747076661178841  0.2043423929186654  1.0000
  H   H107      1.0  0.4737390716723228  0.10750274813728344  0.18346766476188892  1.0000
  H   H108      1.0  0.46663720696511796  0.10651515016289648  0.23565988534196758  1.0000
  N   N2        1.0  0.5666114376149951  0.335268754077894  0.3129031171548766  1.0000
  C   C149      1.0  0.5240530833386715  0.36254256991251066  0.30302801385514944  1.0000
  C   C150      1.0  0.5560925791045422  0.30352758073662667  0.34557685240470837  1.0000
  C   C151      1.0  0.6050618334071168  0.36739228462726997  0.3247808380634977  1.0000
  C   C152      1.0  0.5811358844291694  0.3076135834719364  0.2782081985161161  1.0000
  H   H109      1.0  0.49447352946700357  0.33932787234714906  0.293581700860798  1.0000
  H   H110      1.0  0.5306886612529228  0.38672829123411456  0.2783423706757031  1.0000
  H   H111      1.0  0.5118331008700091  0.383763195569094  0.32851781106049516  1.0000
  H   H112      1.0  0.5272044987300245  0.2787922363870328  0.33782778992957463  1.0000
  H   H113      1.0  0.5874024529793077  0.2823077271675241  0.353822489998353  1.0000
  H   H114      1.0  0.5453020986379629  0.32322562276942435  0.37237127266811626  1.0000
  H   H115      1.0  0.6147135946332941  0.39139298981182213  0.30068460594958396  1.0000
  H   H116      1.0  0.6375404511798278  0.3479586832919722  0.3329528721029451  1.0000
  H   H117      1.0  0.5950757906820533  0.38913790353978894  0.35066058578049  1.0000
  H   H118      1.0  0.6131948318816735  0.2866207083125543  0.2844276486511608  1.0000
  H   H119      1.0  0.588883832120492  0.33054580007035744  0.2529235860210817  1.0000
  H   H120      1.0  0.5528170964778498  0.2830803997480303  0.268463336224065  1.0000
  N   N3        1.0  0.030379898718043252  0.4699679546423973  0.1494335676663665  1.0000
  C   C153      1.0  0.018018704931074936  0.41980090059031255  0.14797542540948405  1.0000
  C   C154      1.0  0.9868298695321351  0.49813243671767066  0.15029719295213595  1.0000
  C   C155      1.0  0.057918292279707906  0.4819125106971999  0.11440031234839654  1.0000
  C   C156      1.0  0.05870636958978981  0.48005226810109  0.18504153270659457  1.0000
  H   H121      1.0  0.050044418302268134  0.3974442815704951  0.1471092563576757  1.0000
  H   H122      1.0  0.9966723778149282  0.41096735504011966  0.12138182430234902  1.0000
  H   H123      1.0  0.9970575354359477  0.40962070602612755  0.174017461549586  1.0000
  H   H124      1.0  0.9651321516344441  0.4897404761395303  0.1763207860919891  1.0000
  H   H125      1.0  0.9948479182409892  0.5361794369233219  0.15164338214136186  1.0000
  H   H126      1.0  0.9646669613190275  0.49151815500458784  0.12379730736410212  1.0000
  H   H127      1.0  0.06752166798279968  0.5195124049866462  0.11425679754297292  1.0000
  H   H128      1.0  0.03787872328513764  0.47428621274006516  0.08694674376619549  1.0000
  H   H129      1.0  0.09129921810622754  0.4617377269048027  0.11314215541638539  1.0000
  H   H130      1.0  0.0682900082421587  0.5177583575855469  0.18720350458623414  1.0000
  H   H131      1.0  0.09216337891699178  0.45982327062078404  0.18517599676533716  1.0000
  H   H132      1.0  0.03905119827196568  0.47101742764473625  0.21205708234954063  1.0000
  N   N4        1.0  0.8803116102425315  0.7300901593505207  0.17355311606070425  1.0000
  C   C157      1.0  0.8373023189540446  0.7587907108780925  0.17738227954655983  1.0000
  C   C158      1.0  0.9155219188931326  0.7454407223026004  0.20308392411052534  1.0000
  C   C159      1.0  0.9001703580345194  0.7353535117715722  0.13394996057300657  1.0000
  C   C160      1.0  0.8684331828663433  0.6805214316144802  0.17985132992398967  1.0000
  H   H133      1.0  0.844952397469324  0.7966251502120442  0.17386351263529942  1.0000
  H   H134      1.0  0.8210247213936275  0.7545334439692127  0.2066877955348317  1.0000
  H   H135      1.0  0.8101684307325322  0.7486059974602921  0.15521817818383  1.0000
  H   H136      1.0  0.9481863034003235  0.7239274726394656  0.20134325043839768  1.0000
  H   H137      1.0  0.9257896531741251  0.7825427456309686  0.1989660758061599  1.0000
  H   H138      1.0  0.9015661736172164  0.7423662621499125  0.23332533170512515  1.0000
  H   H139      1.0  0.932884247910086  0.7141542936906305  0.13048448037396732  1.0000
  H   H140      1.0  0.9094527005726273  0.7723652351706702  0.12805559232409536  1.0000
  H   H141      1.0  0.8748069735119631  0.7235326330749373  0.1109117799181345  1.0000
  H   H142      1.0  0.8997972885625186  0.6577603775493284  0.1759965052933532  1.0000
  H   H143      1.0  0.8407996653423944  0.6679481827053381  0.15902629999346818  1.0000
  H   H144      1.0  0.854938849833509  0.6748555248610814  0.20991894175024298  1.0000
  N   N5        1.0  0.7367518684408167  0.2852042912439997  0.17777544218399077  1.0000
  C   C161      1.0  0.7551376164579195  0.3334505846658932  0.17599055289301305  1.0000
  C   C162      1.0  0.6931041621458853  0.2847714173068688  0.20106628635136656  1.0000
  C   C163      1.0  0.7720693447716241  0.2546461797031863  0.1964968345090983  1.0000
  C   C164      1.0  0.7266514922641318  0.26789860383836256  0.13761094332439597  1.0000
  H   H145      1.0  0.7888008589495494  0.3350021388266924  0.15952190187693782  1.0000
  H   H146      1.0  0.7617228016234082  0.3483398586635436  0.20575010759652276  1.0000
  H   H147      1.0  0.7300047632426011  0.35703551678633766  0.16075759445642546  1.0000
  H   H148      1.0  0.6779615119139011  0.24888979046122425  0.20241911860237793  1.0000
  H   H149      1.0  0.699835213907559  0.2970336869968435  0.23170503279639662  1.0000
  H   H150      1.0  0.6659003723166738  0.3079979757628928  0.18813653150026993  1.0000
  H   H151      1.0  0.7589860529961936  0.21800364238107667  0.19847429079112291  1.0000
  H   H152      1.0  0.7804853685541716  0.2667057335559745  0.2268683817133784  1.0000
  H   H153      1.0  0.8054862063663867  0.2539467248417804  0.1797014652602391  1.0000
  H   H154      1.0  0.6983123561762625  0.2885734150494668  0.12338611254456389  1.0000
  H   H155      1.0  0.7148953877423329  0.2308202175952211  0.13754924635610433  1.0000
  H   H156      1.0  0.7582418827736834  0.27028685590973783  0.11860506579808507  1.0000
  N   N6        1.0  0.6516356956690197  0.37974771447103095  0.912376497690965  1.0000
  C   C165      1.0  0.6402846491055411  0.42754623628005445  0.8994981365919484  1.0000
  C   C166      1.0  0.6125324288632674  0.3614969159657806  0.9361022636890676  1.0000
  C   C167      1.0  0.6953290564968043  0.3807080283748822  0.9361322248828365  1.0000
  C   C168      1.0  0.6585663773661029  0.3492796725316271  0.8776570158708265  1.0000
  H   H157      1.0  0.6686862349946691  0.4420285325203697  0.8808729996664303  1.0000
  H   H158      1.0  0.6360237564562302  0.4519527552088844  0.9248627436339544  1.0000
  H   H159      1.0  0.6071583896504259  0.4286180846452536  0.8819684534730426  1.0000
  H   H160      1.0  0.619073307871809  0.3248225184610638  0.9451040288994575  1.0000
  H   H161      1.0  0.6076636045064501  0.3825121682023905  0.9634289431442543  1.0000
  H   H162      1.0  0.578633641268103  0.3618014890018444  0.9196084108299829  1.0000
  H   H163      1.0  0.7056810121818622  0.3450385184523888  0.9454951336172958  1.0000
  H   H164      1.0  0.6913075746519832  0.40246742507666694  0.9631606784592948  1.0000
  H   H165      1.0  0.7253015422740344  0.3954157941110548  0.9193834640363209  1.0000
  H   H166      1.0  0.667340418844239  0.31289837397385656  0.8863202764612153  1.0000
  H   H167      1.0  0.6879938141105685  0.36213016111462504  0.8592459701169145  1.0000
  H   H168      1.0  0.6263534946297078  0.34783759155627186  0.8589242009179886  1.0000
  N   N7        1.0  0.493308462251011  0.7453048648091314  0.38322876246757154  1.0000
  C   C169      1.0  0.4463947489557862  0.7675757743219062  0.38301432855104695  1.0000
  C   C170      1.0  0.48813433311380805  0.694842223888832  0.39085063893787647  1.0000
  C   C171      1.0  0.5227068930547851  0.7670707282925232  0.414306466093438  1.0000
  C   C172      1.0  0.5159198318692793  0.7518480601065893  0.34483219611899907  1.0000
  H   H169      1.0  0.4487123104109219  0.8057680488244375  0.37753870096768105  1.0000
  H   H170      1.0  0.42826668641240456  0.7629405368849876  0.41149764417991597  1.0000
  H   H171      1.0  0.4231334502406554  0.7520552995383132  0.3599524044423177  1.0000
  H   H172      1.0  0.4640991629811092  0.6778181679737795  0.3690450402848461  1.0000
  H   H173      1.0  0.5225370772714687  0.6764010951972861  0.38973714552925515  1.0000
  H   H174      1.0  0.472657712523192  0.6886530055521167  0.4202389286736095  1.0000
  H   H175      1.0  0.5583907515419327  0.7511114455430081  0.41537933521450526  1.0000
  H   H176      1.0  0.5064097590530255  0.7628916581999655  0.4436453702822029  1.0000
  H   H177      1.0  0.527122351293737  0.8052138355965995  0.40935948937698685  1.0000
  H   H178      1.0  0.5512080059083057  0.7351041078889419  0.3436045394031423  1.0000
  H   H179      1.0  0.5208696321149391  0.789542134839229  0.33844366139995596  1.0000
  H   H180      1.0  0.4942966135645995  0.7365381781931406  0.32056825111565124  1.0000
  N   N8        1.0  0.12226455932901747  0.9388246589269137  0.7349024937900601  1.0000
  C   C173      1.0  0.13276237832579585  0.9858887910125477  0.7199323143829593  1.0000
  C   C174      1.0  0.13027579392466704  0.9036881984505293  0.7036274418268693  1.0000
  C   C175      1.0  0.0726055187520811  0.9367536358056433  0.747392822987821  1.0000
  C   C176      1.0  0.15334416303258225  0.9289656031023757  0.7687149913246828  1.0000
  H   H181      1.0  0.12750861898018462  0.013185318463219131  0.7429568685670107  1.0000
  H   H182      1.0  0.1094967515802423  0.9947582369344875  0.6947435715080748  1.0000
  H   H183      1.0  0.16975603824067287  0.9887694765457634  0.7097519640476675  1.0000
  H   H184      1.0  0.1222124476053641  0.8678126988595243  0.7139340923369975  1.0000
  H   H185      1.0  0.10752183171423146  0.9104442494027268  0.6775931198060677  1.0000
  H   H186      1.0  0.16750298477730308  0.9040338370573254  0.6936729661888241  1.0000
  H   H187      1.0  0.0639390048744326  0.9023916897480743  0.7605235095854277  1.0000
  H   H188      1.0  0.04784169464486454  0.9426240682286744  0.7224943147608411  1.0000
  H   H189      1.0  0.06486393833585313  0.9639920399690364  0.7698615622443011  1.0000
  H   H190      1.0  0.14727311919738795  0.8931764761336545  0.7801132868113514  1.0000
  H   H191      1.0  0.14673043904510186  0.953701941816305  0.7935217856112344  1.0000
  H   H192      1.0  0.1911559738680768  0.931688242077538  0.7608802300618859  1.0000
  N   N9        1.0  0.5263091216221978  0.8434806692762716  0.11074026050017616  1.0000
  C   C177      1.0  0.5374047844208061  0.8402514724505394  0.06856498606756656  1.0000
  C   C178      1.0  0.48518479005327286  0.8137304290724694  0.1194923623181634  1.0000
  C   C179      1.0  0.5155480868994695  0.8925150530014595  0.12129255685987417  1.0000
  C   C180      1.0  0.5673836880041476  0.8275616988550151  0.13371690158598626  1.0000
  H   H193      1.0  0.5680899958695321  0.8626682297582081  0.06113090820038525  1.0000
  H   H194      1.0  0.5074509740714749  0.8522491268416199  0.05024219811233155  1.0000
  H   H195      1.0  0.5456846270893434  0.8037904090461251  0.05937647075061281  1.0000
  H   H196      1.0  0.47715834204364976  0.814059790662857  0.15141695301597458  1.0000
  H   H197      1.0  0.4529896869621592  0.825758466188825  0.1038261345277538  1.0000
  H   H198      1.0  0.49125790106523615  0.7767064738213615  0.1106300795519295  1.0000
  H   H199      1.0  0.5075185131230654  0.8962601686279387  0.1530115977618709  1.0000
  H   H200      1.0  0.48462105603618505  0.9055461458400649  0.10447970325075273  1.0000
  H   H201      1.0  0.5457056046903193  0.9159981281866793  0.11467764782220957  1.0000
  H   H202      1.0  0.5990895411279774  0.8491360489456606  0.1276545840769434  1.0000
  H   H203      1.0  0.576214611245423  0.7905275980193734  0.1268802233369264  1.0000
  H   H204      1.0  0.5605146139807075  0.8299745227573043  0.16567920412391812  1.0000
  N   N10       1.0  0.28615569779833905  0.6485065104023984  0.976142998455438  1.0000
  C   C181      1.0  0.2832368077515006  0.6645503754838775  0.017350504409366918  1.0000
  C   C182      1.0  0.257179404526956  0.605948717839027  0.9707807450416513  1.0000
  C   C183      1.0  0.33565880907624557  0.6378615280266646  0.9664413896852353  1.0000
  C   C184      1.0  0.2686959779015925  0.6856697437124094  0.9500878207584108  1.0000
  H   H205      1.0  0.30620043880582637  0.6953932679774264  0.023042078183823644  1.0000
  H   H206      1.0  0.29470689396483696  0.6367696055467509  0.03776215270588135  1.0000
  H   H207      1.0  0.24667774798995556  0.6744199545605811  0.025428210010150165  1.0000
  H   H208      1.0  0.25815803718981334  0.5928841484502653  0.9399896470452875  1.0000
  H   H209      1.0  0.26993167202074164  0.5771479308470078  0.9898494402348555  1.0000
  H   H210      1.0  0.219690578733033  0.6124496858301878  0.9784508731957863  1.0000
  H   H211      1.0  0.3395001707286278  0.6273036295359271  0.9351855668581718  1.0000
  H   H212      1.0  0.3496152322737498  0.6089171643102603  0.9846257005479055  1.0000
  H   H213      1.0  0.35883911145415226  0.6688183818680166  0.9715243717776045  1.0000
  H   H214      1.0  0.26978869580936293  0.6745344338742322  0.9187812637198323  1.0000
  H   H215      1.0  0.2907639680046381  0.7177291816646126  0.9528232785836293  1.0000
  H   H216      1.0  0.2318102654402172  0.6956072408588193  0.957076292784536  1.0000
  N   N11       1.0  0.2620798792347265  0.7140578160815605  0.22068285108987337  1.0000
  C   C185      1.0  0.24672512470143645  0.7621287518053019  0.23019360759508556  1.0000
  C   C186      1.0  0.31407716857444573  0.7121559072401178  0.22094210936720843  1.0000
  C   C187      1.0  0.24386728487058706  0.7005862956756631  0.18149189075736197  1.0000
  C   C188      1.0  0.24358889360523153  0.681415533884234  0.25010020794455645  1.0000
  H   H217      1.0  0.25994400318711375  0.7875517675020188  0.20843453207881876  1.0000
  H   H218      1.0  0.2597723614940398  0.7735231180524295  0.25962514974474515  1.0000
  H   H219      1.0  0.20761852697433056  0.7647207441378905  0.2307372830613824  1.0000
  H   H220      1.0  0.32688760055856075  0.676084666562743  0.21482861147244905  1.0000
  H   H221      1.0  0.32926772860466375  0.7355496425536227  0.1983877240476752  1.0000
  H   H222      1.0  0.32875504916471054  0.7231980795016563  0.24992352560053666  1.0000
  H   H223      1.0  0.2046678664948122  0.7008864357578939  0.18067147785329518  1.0000
  H   H224      1.0  0.2549349163435185  0.6645566135789419  0.1732843774049715  1.0000
  H   H225      1.0  0.25683896630999264  0.7245432638122041  0.15845531076648367  1.0000
  H   H226      1.0  0.20440345072420266  0.6819251198928983  0.25074552598321925  1.0000
  H   H227      1.0  0.25628598603508496  0.690526306369072  0.2801360711880731  1.0000
  H   H228      1.0  0.254367771747325  0.6447649532523004  0.2436841850698306  1.0000
  N   N12       1.0  0.32333319955919976  0.03554094235548799  0.9919381876316655  1.0000
  C   C189      1.0  0.3099436111869674  0.08540737085221597  0.9922362522237946  1.0000
  C   C190      1.0  0.374706744519627  0.031316455064015265  0.9862249261843692  1.0000
  C   C191      1.0  0.2982859609092965  0.010867012477701277  0.9597124171601608  1.0000
  C   C192      1.0  0.3103389240346513  0.01458583170543615  0.02971527699935872  1.0000
  H   H229      1.0  0.32832622512630505  0.10492778082782259  0.01632337771757575  1.0000
  H   H230      1.0  0.27139587381871116  0.08975003730858205  0.9966835497521438  1.0000
  H   H231      1.0  0.31923520154797325  0.10244054292925041  0.9641924769135992  1.0000
  H   H232      1.0  0.38638948906883286  0.9941843030414457  0.9872568631676366  1.0000
  H   H233      1.0  0.38568685550027126  0.04544784610809428  0.957490902882607  1.0000
  H   H234      1.0  0.39467481563914086  0.050754170497654856  0.009378613992874207  1.0000
  H   H235      1.0  0.3067020614138278  0.025901745767435983  0.9307084529571144  1.0000
  H   H236      1.0  0.2593840338599005  0.012376336341941574  0.9635539123571727  1.0000
  H   H237      1.0  0.30783285097118357  0.9731830156806069  0.9586637354844878  1.0000
  H   H238      1.0  0.3213948515035133  0.9773894548265808  0.03107429446372545  1.0000
  H   H239      1.0  0.2715414926244521  0.015181712556620264  0.034213998383049615  1.0000
  H   H240      1.0  0.32702973318721773  0.03339145992481374  0.054849858753489134  1.0000
  N   N13       1.0  0.4492465773310887  0.40603959706524656  0.0739207547655576  1.0000
  C   C193      1.0  0.47634851769358927  0.40018387499431096  0.11064923838178699  1.0000
  C   C194      1.0  0.4004590855982867  0.3895108628882522  0.07948268261718838  1.0000
  C   C195      1.0  0.4716254320269517  0.37861625847605374  0.0421939383635892  1.0000
  C   C196      1.0  0.4485245084659855  0.45596958491366946  0.06343879934700536  1.0000
  H   H241      1.0  0.5135174733754279  0.4116718944426989  0.10744345445341574  1.0000
  H   H242      1.0  0.476989675377754  0.36304047744872814  0.11985960264561092  1.0000
  H   H243      1.0  0.46070691360902305  0.4208037281808258  0.13511139458813062  1.0000
  H   H244      1.0  0.3819550271251826  0.41064064321015753  0.10218922256179486  1.0000
  H   H245      1.0  0.3792538157965202  0.3920240276120561  0.052068990701905404  1.0000
  H   H246      1.0  0.39952275741828597  0.3524399322590958  0.08902530924223773  1.0000
  H   H247      1.0  0.4525709003222355  0.3827750598319971  0.013874473913669805  1.0000
  H   H248      1.0  0.4720922546789202  0.3406816829092933  0.048910997174009596  1.0000
  H   H249      1.0  0.508872344506882  0.3893631557138448  0.037775704823893586  1.0000
  H   H250      1.0  0.42750664566987295  0.4620211592707102  0.03630422631998198  1.0000
  H   H251      1.0  0.48459874317081353  0.46973330719605194  0.058539370802149555  1.0000
  H   H252      1.0  0.4323183607331822  0.4777101936245326  0.08703174271811487  1.0000
  N   N14       1.0  0.8332092207178325  0.02158078282014686  0.9566977537810747  1.0000
  C   C197      1.0  0.8819468607174743  0.0052899878563952285  0.9634917892832187  1.0000
  C   C198      1.0  0.808001780544882  0.0237024207922909  0.9943989592912594  1.0000
  C   C199      1.0  0.8087320383333925  0.988796732024734  0.9296924803780514  1.0000
  C   C200      1.0  0.8341690884012622  0.06852002410958757  0.9391545817663859  1.0000
  H   H253      1.0  0.9020909686451063  0.0035980535157551508  0.9357689745125042  1.0000
  H   H254      1.0  0.882696267286287  0.9695647826788731  0.9760197276590564  1.0000
  H   H255      1.0  0.9017098704282748  0.029201851823538627  0.9836404201483302  1.0000
  H   H256      1.0  0.771076199539636  0.03588089158176522  0.9904002860277021  1.0000
  H   H257      1.0  0.8065858917824877  0.9887566664762814  0.008342309346409893  1.0000
  H   H258      1.0  0.8255992017448626  0.048171870315736554  0.015447281316556705  1.0000
  H   H259      1.0  0.7717833158562197  0.9997139381376595  0.9239505990769644  1.0000
  H   H260      1.0  0.8078081476139721  0.9527747904926767  0.9416740287912495  1.0000
  H   H261      1.0  0.8268585213694926  0.9863762270241236  0.9008995146621003  1.0000
  H   H262      1.0  0.8526537083931824  0.09419247934311503  0.9585649389949344  1.0000
  H   H263      1.0  0.7980552909844659  0.08210053385129878  0.9336951586821971  1.0000
  H   H264      1.0  0.852841646061775  0.0679877838363645  0.910591840053269  1.0000
  N   N15       1.0  0.776164039406379  0.9881502259689138  0.35090083813645473  1.0000
  C   C201      1.0  0.7871913332612825  0.9852770116022384  0.3931704558412883  1.0000
  C   C202      1.0  0.7915771815858026  0.03395351409903614  0.3361253472448731  1.0000
  C   C203      1.0  0.7248715307034941  0.9829007884458616  0.34481581369735975  1.0000
  C   C204      1.0  0.8009321339675931  0.9504881764879016  0.32948117231421564  1.0000
  H   H265      1.0  0.768971950711161  0.013390825042002731  0.4100326586075677  1.0000
  H   H266      1.0  0.8256513817758891  0.9891384549031247  0.3988069645596554  1.0000
  H   H267      1.0  0.7758974468800006  0.9511668709471157  0.405312313368539  1.0000
  H   H268      1.0  0.8300926315676227  0.03934096264889431  0.3401401157636831  1.0000
  H   H269      1.0  0.7836601629951232  0.037566812846240534  0.3043167224728335  1.0000
  H   H270      1.0  0.7735267685932454  0.06322527192323503  0.3516366738743706  1.0000
  H   H271      1.0  0.7048366540962678  0.010648618180446602  0.3605594315784563  1.0000
  H   H272      1.0  0.7119531348713501  0.9484696847161697  0.35507035446144297  1.0000
  H   H273      1.0  0.715334176255466  0.9853605091817811  0.31328703338019137  1.0000
  H   H274      1.0  0.7922844320779359  0.9509047652162913  0.2975788247957276  1.0000
  H   H275      1.0  0.7907151526927177  0.9154128086444909  0.3403535751002363  1.0000
  H   H276      1.0  0.8397906805620872  0.9537297493873945  0.332560677664929  1.0000
  N   N16       1.0  0.04391190378904208  0.25313655741761054  0.9584285084469673  1.0000
  C   C205      1.0  0.011549075156184863  0.24360057216090322  0.9251549117596379  1.0000
  C   C206      1.0  0.05624870475171884  0.30330835464149375  0.959557116209991  1.0000
  C   C207      1.0  0.0871577733644346  0.22504612939823837  0.9536486148397264  1.0000
  C   C208      1.0  0.020792808425387665  0.24046201001031642  0.9954723474112834  1.0000
  H   H277      1.0  0.0029250984675539544  0.20576631538605605  0.9226514764294494  1.0000
  H   H278      1.0  0.027092058081594095  0.25429870818319017  0.8968276905102452  1.0000
  H   H279      1.0  0.977612655177262  0.2626231267729609  0.9285424534658805  1.0000
  H   H280      1.0  0.07306565528534144  0.31457309172247677  0.9319065672403449  1.0000
  H   H281      1.0  0.02456776071450384  0.3254270367787739  0.9641312243992999  1.0000
  H   H282      1.0  0.08098150103514683  0.3116122150014275  0.9841345506575162  1.0000
  H   H283      1.0  0.11212235627743486  0.23111502162340652  0.978492680841132  1.0000
  H   H284      1.0  0.10567919350159456  0.23388238339988457  0.9260884991629676  1.0000
  H   H285      1.0  0.07897523165852485  0.18694986342996267  0.952509814136756  1.0000
  H   H286      1.0  0.013830583626802671  0.2023597399285974  0.996846970249415  1.0000
  H   H287      1.0  0.9864945465601482  0.25883209293675735  0.9989516579805328  1.0000
  H   H288      1.0  0.042885348106467935  0.250128261575625  0.021413175736947565  1.0000
  N   N17       1.0  0.2961185147488928  0.17199860109788548  0.4797864592375081  1.0000
  C   C209      1.0  0.2961967832819544  0.15152905739381042  0.5193444490943178  1.0000
  C   C210      1.0  0.3123364000781993  0.1366534200493874  0.4510271649658618  1.0000
  C   C211      1.0  0.3279954930235345  0.2128102952809855  0.4795192608761429  1.0000
  C   C212      1.0  0.24790159649926163  0.18702544973265225  0.4693329215603273  1.0000
  H   H289      1.0  0.33202743314827243  0.13991765767896008  0.5282296799729318  1.0000
  H   H290      1.0  0.2725632918252967  0.12054431101036112  0.5206322261364523  1.0000
  H   H291      1.0  0.28392726529165185  0.17720793851813607  0.5417687395930925  1.0000
  H   H292      1.0  0.3123273821499539  0.1507436633893962  0.42079213454931325  1.0000
  H   H293      1.0  0.3485835349717577  0.12443253572182753  0.4579662757923526  1.0000
  H   H294      1.0  0.2889756998895713  0.10533442024536122  0.45075605075090125  1.0000
  H   H295      1.0  0.32871475144261464  0.2294565650950577  0.4502413829155497  1.0000
  H   H296      1.0  0.3647039470025444  0.20292867482336022  0.48746680303830825  1.0000
  H   H297      1.0  0.3166218642462174  0.23990415790012332  0.5010485466011005  1.0000
  H   H298      1.0  0.24655648429727037  0.20363557536485527  0.4400635180816662  1.0000
  H   H299      1.0  0.23397047740598598  0.2126368876193371  0.4909446051636536  1.0000
  H   H300      1.0  0.2229747848869111  0.1570837400670351  0.46855982295178034  1.0000
  N   N18       1.0  0.4990209214334292  0.7280441353338016  0.771330101805321  1.0000
  C   C213      1.0  0.5461566835661052  0.7463615034332264  0.7817508331881344  1.0000
  C   C214      1.0  0.49517287585464054  0.6789258220606066  0.7838299124072673  1.0000
  C   C215      1.0  0.4921826870485387  0.7303693328390009  0.7284263994532885  1.0000
  C   C216      1.0  0.4627620270679254  0.7564774143042117  0.7912704207051477  1.0000
  H   H301      1.0  0.5499754661820876  0.7837963588622271  0.7740375378228262  1.0000
  H   H302      1.0  0.5742774852573274  0.7267899253687231  0.7662040929315034  1.0000
  H   H303      1.0  0.5534185104044813  0.7434911793893761  0.8136738857403529  1.0000
  H   H304      1.0  0.4603823672370786  0.663642118458385  0.7757907675325032  1.0000
  H   H305      1.0  0.522654132556228  0.6567008087976844  0.7698753496224381  1.0000
  H   H306      1.0  0.4996146075579622  0.6757957408493122  0.816069946710672  1.0000
  H   H307      1.0  0.45689945460827863  0.717010691823879  0.7194297235706023  1.0000
  H   H308      1.0  0.5189474867322957  0.7088493978749314  0.7127165514630006  1.0000
  H   H309      1.0  0.4955887550134703  0.7667919395935273  0.7177907245146409  1.0000
  H   H310      1.0  0.4267175327346351  0.7429687277036546  0.7850755224446445  1.0000
  H   H311      1.0  0.4641049273584132  0.7935619968882918  0.7819476348620155  1.0000
  H   H312      1.0  0.46793761782300847  0.7564786602470557  0.8236384714762078  1.0000
  N   N19       1.0  0.9077669113179446  0.40250649507162606  0.3824554715545698  1.0000
  C   C217      1.0  0.9234615308651052  0.3586272583572806  0.3634299222103992  1.0000
  C   C218      1.0  0.8557402554401311  0.4040040481736967  0.38259936886570545  1.0000
  C   C219      1.0  0.9260197896556137  0.4428690880907229  0.36062820421199054  1.0000
  C   C220      1.0  0.9258661607611176  0.4045552823785733  0.42313975085325906  1.0000
  H   H313      1.0  0.9625212402441802  0.3560835656523767  0.3628570741864194  1.0000
  H   H314      1.0  0.9106108289535013  0.3560823137943637  0.33264265882713295  1.0000
  H   H315      1.0  0.9099836888431446  0.3274617829814155  0.3791027820958564  1.0000
  H   H316      1.0  0.8407931823857319  0.3741587270246696  0.3990440893634088  1.0000
  H   H317      1.0  0.8424748407546669  0.43676413753315735  0.3963884107974969  1.0000
  H   H318      1.0  0.8410054554010032  0.40209554437737255  0.35230809364326704  1.0000
  H   H319      1.0  0.965089354264508  0.442077548441425  0.3584940575386459  1.0000
  H   H320      1.0  0.9159382417486127  0.4765785168220455  0.3747636656413459  1.0000
  H   H321      1.0  0.9118582219461565  0.44331740589486063  0.33024723211982626  1.0000
  H   H322      1.0  0.9143024355433564  0.43698502788617977  0.43850500871180176  1.0000
  H   H323      1.0  0.9650200109015235  0.4035858385320653  0.4239707031553097  1.0000
  H   H324      1.0  0.9130949268191154  0.37445990998460316  0.44045610181337685  1.0000
  N   N20       1.0  0.09661339977296568  0.7927384889310782  0.43319338339243363  1.0000
  C   C221      1.0  0.12979379577064964  0.8139763630659308  0.4054448642386432  1.0000
  C   C222      1.0  0.05597403884956886  0.7731305885402676  0.41125460966207344  1.0000
  C   C223      1.0  0.08037678666678483  0.8289040918055477  0.4612202040850852  1.0000
  C   C224      1.0  0.12057321891701722  0.7550387929496877  0.45483824193165473  1.0000
  H   H325      1.0  0.15983487060906132  0.830824476914434  0.42112519647623375  1.0000
  H   H326      1.0  0.11260156627985629  0.8412884331792368  0.3873938705763833  1.0000
  H   H327      1.0  0.14461083592192958  0.7874218071314054  0.38502772782398725  1.0000
  H   H328      1.0  0.030727919717416396  0.7555612728811962  0.4310443535373234  1.0000
  H   H329      1.0  0.03656789206183397  0.8006954909799213  0.39509108874981047  1.0000
  H   H330      1.0  0.0674568505385118  0.7466345227789957  0.3891763605975345  1.0000
  H   H331      1.0  0.05500317611909322  0.8143564323759411  0.4825344589211081  1.0000
  H   H332      1.0  0.0629453259440318  0.8583751576242166  0.445875557172899  1.0000
  H   H333      1.0  0.11052516843467575  0.8439354503821199  0.47832387651266556  1.0000
  H   H334      1.0  0.13321596654644652  0.7270799766443283  0.43467931580819874  1.0000
  H   H335      1.0  0.09672566417858586  0.7384647884934488  0.4763072700883321  1.0000
  H   H336      1.0  0.15184013672893903  0.7684627181932463  0.47129359176069935  1.0000
  N   N21       1.0  0.9200351785043583  0.13540195208319913  0.6225396213265111  1.0000
  C   C225      1.0  0.892138407750867  0.12742057034328697  0.5863366306008058  1.0000
  C   C226      1.0  0.9048553621858854  0.17943834679713772  0.6415637686211555  1.0000
  C   C227      1.0  0.97039977228559  0.13880694830509296  0.6125183008816711  1.0000
  C   C228      1.0  0.9129204089681313  0.09611638105639674  0.6495980726789033  1.0000
  H   H337      1.0  0.9037924550933166  0.09522396037967701  0.5705377789691445  1.0000
  H   H338      1.0  0.8963394290847049  0.15678763847799448  0.5654908494527402  1.0000
  H   H339      1.0  0.8539630038117568  0.1238257240781095  0.5925999090301144  1.0000
  H   H340      1.0  0.9100658009690573  0.20976003418162126  0.6218700175482132  1.0000
  H   H341      1.0  0.8669116148442034  0.1782772330361398  0.6493794012036763  1.0000
  H   H342      1.0  0.9253199330482417  0.18648430815369724  0.6689573471963993  1.0000
  H   H343      1.0  0.9766179311046431  0.16763198731794332  0.5915636411548055  1.0000
  H   H344      1.0  0.9832475074778108  0.10614907296548579  0.5981510107597052  1.0000
  H   H345      1.0  0.9928220427355444  0.14539561546525648  0.6389073900792066  1.0000
  H   H346      1.0  0.9238743460222146  0.06236097328447654  0.6359991704217834  1.0000
  H   H347      1.0  0.8753539135736554  0.09262117568137958  0.6580655203148209  1.0000
  H   H348      1.0  0.9338807138661305  0.10078877195194633  0.6770970786566354  1.0000
  N   N22       1.0  0.23263966074795706  0.4418988561456475  0.5903308306213498  1.0000
  C   C229      1.0  0.25660049211241337  0.4446780931872365  0.5521320015251172  1.0000
  C   C230      1.0  0.2472631228573275  0.4818730757202121  0.61535674616305  1.0000
  C   C231      1.0  0.24548600713600546  0.39777862836576106  0.6098039778636641  1.0000
  C   C232      1.0  0.18115040932667342  0.44334308475801437  0.5839552699843494  1.0000
  H   H349      1.0  0.24474147094458212  0.416572580476114  0.5316996747767644  1.0000
  H   H350      1.0  0.29546690264269315  0.4416364286208351  0.5555489808794748  1.0000
  H   H351      1.0  0.2496536256133569  0.47863381374949066  0.5375626866645483  1.0000
  H   H352      1.0  0.2296526822252931  0.4814010110966393  0.644319616332599  1.0000
  H   H353      1.0  0.28595503735344857  0.48163964972796836  0.62074315622918  1.0000
  H   H354      1.0  0.23900935228034503  0.5158087754006024  0.6012059090278599  1.0000
  H   H355      1.0  0.28438156748925303  0.3939154145104517  0.6127758882583625  1.0000
  H   H356      1.0  0.2323916232348489  0.366938139257922  0.592943591420714  1.0000
  H   H357      1.0  0.23024793460690152  0.39571104194503054  0.6396445838087427  1.0000
  H   H358      1.0  0.1690739736422773  0.41347681986757634  0.5651624806987501  1.0000
  H   H359      1.0  0.1703580399446297  0.47612160708258006  0.5691230636317828  1.0000
  H   H360      1.0  0.16185085376738217  0.4413572563043458  0.6121322724781445  1.0000
  N   N23       1.0  0.851575876241134  0.6413270983531126  0.9146818898841571  1.0000
  C   C233      1.0  0.8981596342733384  0.6383482070043495  0.9340401319389744  1.0000
  C   C234      1.0  0.8363931054255498  0.6906354200619872  0.9133226116089311  1.0000
  C   C235      1.0  0.8169198206801802  0.6139024044473111  0.9369207908296464  1.0000
  C   C236      1.0  0.8549249313553514  0.6223606816304253  0.8743499803664289  1.0000
  H   H361      1.0  0.9104722861341912  0.6014258475026311  0.9356457341439605  1.0000
  H   H362      1.0  0.8970676852729457  0.652562532067531  0.9644774182491106  1.0000
  H   H363      1.0  0.925156163539959  0.658378095469446  0.9177191821914732  1.0000
  H   H364      1.0  0.8326380572994257  0.7061417218640584  0.9431283873834252  1.0000
  H   H365      1.0  0.8619770661100243  0.7124629032400512  0.8970496520566565  1.0000
  H   H366      1.0  0.801868206247186  0.6940762885247233  0.8980416592395373  1.0000
  H   H367      1.0  0.8121376002610291  0.6281923877035732  0.9670388470425677  1.0000
  H   H368      1.0  0.8282715176391382  0.5769166583383464  0.9397512845710344  1.0000
  H   H369      1.0  0.7817633700709723  0.6137122077936021  0.9222085725396642  1.0000
  H   H370      1.0  0.878108481697496  0.6442544300475606  0.8558311154539153  1.0000
  H   H371      1.0  0.8198135805947894  0.62125598305241  0.8595956113491737  1.0000
  H   H372      1.0  0.8693599524229142  0.586275579598412  0.8740865519319048  1.0000
  N   N24       1.0  0.6145702263282676  0.49780213310683036  0.5850094734016587  1.0000
  C   C237      1.0  0.6399240323044962  0.5146063240613558  0.6204364973055854  1.0000
  C   C238      1.0  0.5844344176595205  0.4578072857122919  0.5952941203564994  1.0000
  C   C239      1.0  0.6486084898932385  0.482760545836904  0.5548528725074724  1.0000
  C   C240      1.0  0.585027815841589  0.5358713014040279  0.5693715411759134  1.0000
  H   H373      1.0  0.6628533216506222  0.48690771275266226  0.6328814943655466  1.0000
  H   H374      1.0  0.6149276165265649  0.5253824098037068  0.6438811989366363  1.0000
  H   H375      1.0  0.6624327766158296  0.5453704589377658  0.6140543754298443  1.0000
  H   H376      1.0  0.6051105336786265  0.42895766881410846  0.6085390102651742  1.0000
  H   H377      1.0  0.5570063936457083  0.46819031616798773  0.6167212356286649  1.0000
  H   H378      1.0  0.5661202627353854  0.44321638084203097  0.5689932092049786  1.0000
  H   H379      1.0  0.6721793575158574  0.5119131034461144  0.5463567277017922  1.0000
  H   H380      1.0  0.63011340059674  0.47013304004520645  0.5277614257334653  1.0000
  H   H381      1.0  0.6710064707085374  0.4535412929461956  0.5654003747227473  1.0000
  H   H382      1.0  0.5647680401739236  0.5241501977252643  0.5429706544957326  1.0000
  H   H383      1.0  0.6066296655915288  0.5664629502788769  0.5608611679743261  1.0000
  H   H384      1.0  0.5590760010564199  0.5482325200489766  0.5914018745689612  1.0000
