data_image0
_chemical_formula_structural       FeS2FeS2FeSFeS3FeS2FeS2FeSFeS3FeS2FeS2FeSFeS3FeS2FeS2FeSFeS3FeS2FeS2FeSFeS3FeS2FeS2FeSFeS3FeS2FeS2FeSFeS3FeS2FeS2FeSFeS3FeS2FeS2FeSFeS3FeS2FeS2FeSFeS3FeS2FeS2FeSFeS3FeS2FeS2FeSFeS3FeS2FeS2FeSFeS3FeS2FeS2FeSFeS3FeS2FeS2FeSFeS3FeS2FeS2FeSFeS3FeS2FeS2FeSFeS3FeS2FeS2FeSFeS3FeS2FeS2FeSFeS3FeS2FeS2FeSFeS3FeS2FeS2FeSFeS3FeS2FeS2FeSFeS3FeS2FeS2FeSFeS3FeS2FeS2FeSFeS3FeS2FeS2FeSFeS3FeS2FeS2FeSFeS3FeS2FeS2FeSFeS3FeS2FeS2FeSFeS3FeS2FeS2FeSFeS3FeS2FeS2FeSFeS3FeS2FeS2FeSFeS3FeS2FeS2FeSFeS3C6H4C6H4C6H4C6H4C6H4C6H4C6H4C6H4C6H4C6H4C6H4C6H4C6H4C6H4C6H4C6H4C6H4C6H4C6H4C6H4C6H4C6H4C6H4C6H4C6H4C6H4C6H4C6H4C6H4C6H4C6H4C6H4C6H4C6H4C6H4C6H4C6H4C6H4C6H4C6H4C6H4C6H4C6H4C6H4C6H4C6H4C6H4C6H4C6H4C6H4C6H4C6H4C6H4C6H4C6H4C6H4C6H4C6H4C6H4C6H4C6H4C6H4C6H4C6H4NC4H12NC4H12NC4H12NC4H12NC4H12NC4H12NC4H12NC4H12NC4H12NC4H12NC4H12NC4H12NC4H12NC4H12NC4H12NC4H12NC4H12NC4H12NC4H12NC4H12NC4H12NC4H12NC4H12NC4H12NC4H12NC4H12NC4H12NC4H12NC4H12NC4H12NC4H12NC4H12NC4H12NC4H12NC4H12NC4H12NC4H12NC4H12NC4H12NC4H12NC4H12NC4H12NC4H12NC4H12NC4H12NC4H12NC4H12NC4H12NC4H12NC4H12NC4H12NC4H12NC4H12NC4H12NC4H12NC4H12NC4H12NC4H12NC4H12NC4H12NC4H12NC4H12NC4H12NC4H12
_chemical_formula_sum              "Fe128 S256 C640 H1024 N64"
_cell_length_a       70.12529431328373
_cell_length_b       32.75168381287937
_cell_length_c       39.41295417168412
_cell_angle_alpha    90.06908216773334
_cell_angle_beta     89.74610842501673
_cell_angle_gamma    90.80252301780119

_space_group_name_H-M_alt    "P 1"
_space_group_IT_number       1

loop_
  _space_group_symop_operation_xyz
  'x, y, z'

loop_
  _atom_site_type_symbol
  _atom_site_label
  _atom_site_symmetry_multiplicity
  _atom_site_fract_x
  _atom_site_fract_y
  _atom_site_fract_z
  _atom_site_occupancy
  Fe  Fe1       1.0  0.6546457610114154  0.2817234236382197  0.8943194073002598  1.0000
  S   S1        1.0  0.6234950927800591  0.27661739295489324  0.8824345890451845  1.0000
  S   S2        1.0  0.6720065134916764  0.32651850349703077  0.8631502004129484  1.0000
  Fe  Fe2       1.0  0.6517312877819672  0.216830164433643  0.9485949960822715  1.0000
  S   S3        1.0  0.6204738894347639  0.20550697322200245  0.9410440151561165  1.0000
  S   S4        1.0  0.6680408719212089  0.18362218133279926  0.9883600993123417  1.0000
  Fe  Fe3       1.0  0.6279099733783897  0.20919341953684972  0.8859267356096859  1.0000
  S   S5        1.0  0.6149155835127958  0.1675325343520585  0.8471180544121827  1.0000
  Fe  Fe4       1.0  0.6189008003353659  0.27358652115130516  0.9384538949236156  1.0000
  S   S6        1.0  0.5954541099976883  0.30885731677186806  0.9632944464965142  1.0000
  S   S7        1.0  0.6594574479080911  0.21416868900650704  0.8933586300207879  1.0000
  S   S8        1.0  0.6497467394720655  0.28512250227218705  0.9505627532361978  1.0000
  Fe  Fe5       1.0  0.6353459860864454  0.9629072254822315  0.9528295166104107  1.0000
  S   S9        1.0  0.6072848865230347  0.9899074707040728  0.9383115593140782  1.0000
  S   S10       1.0  0.6588408629761017  0.9918268775298508  0.9831855858039423  1.0000
  Fe  Fe6       1.0  0.6264759460040191  0.8804215449921394  0.9222519821479999  1.0000
  S   S11       1.0  0.5974581252095614  0.8990062746065061  0.9057964108068953  1.0000
  S   S12       1.0  0.6353604032668413  0.816888307795419  0.9088641496779362  1.0000
  Fe  Fe7       1.0  0.6116794351280419  0.9570746854861144  0.8888410224941722  1.0000
  S   S13       1.0  0.6066625581377846  0.9838757630741916  0.8369963788563284  1.0000
  Fe  Fe8       1.0  0.5952753891233186  0.9298247180880003  0.9562761248300683  1.0000
  S   S14       1.0  0.5682506707575294  0.9220926385993219  0.9862041114933663  1.0000
  S   S15       1.0  0.6411161198015117  0.9361357595145957  0.901459458402739  1.0000
  S   S16       1.0  0.6229503245244832  0.9051663457851542  0.9748131335854419  1.0000
  Fe  Fe9       1.0  0.05583717296454993  0.9312396340456948  0.93740488404547  1.0000
  S   S17       1.0  0.025470220765608786  0.9324697672839535  0.9203117410293853  1.0000
  S   S18       1.0  0.0806040698800636  0.9586193991858989  0.9080424811700927  1.0000
  Fe  Fe10      1.0  0.04534801016833079  0.8871943560587925  0.0027353787814847763  1.0000
  S   S19       1.0  0.0139868024072205  0.8842186870769416  0.9906111646633842  1.0000
  S   S20       1.0  0.05605353758436804  0.8614581819579026  0.0519357781130092  1.0000
  Fe  Fe11      1.0  0.023820536911194345  0.8677584595930232  0.9381290275317214  1.0000
  S   S21       1.0  0.010541121829630962  0.8250268955861866  0.8999695764823445  1.0000
  Fe  Fe12      1.0  0.018526616976894728  0.9489113733672706  0.9739060265236227  1.0000
  S   S22       1.0  0.9978679620752021  0.9995493842909496  0.9825078500769571  1.0000
  S   S23       1.0  0.054869132348747574  0.8649467966444929  0.951490620198567  1.0000
  S   S24       1.0  0.0490648894218213  0.9533494214213861  0.9897188260928748  1.0000
  Fe  Fe13      1.0  0.048335815192290355  0.18778459141147716  0.028596252445566295  1.0000
  S   S25       1.0  0.07828109932078542  0.19261453855079852  0.008928015902840647  1.0000
  S   S26       1.0  0.04272090259501282  0.13526269761892684  0.06383020613103763  1.0000
  Fe  Fe14      1.0  0.03674157697013336  0.2664107596454818  0.9943758073122446  1.0000
  S   S27       1.0  0.06573138674153922  0.2778141432105074  0.9720631482875998  1.0000
  S   S28       1.0  0.01453298216877208  0.3137134788686849  0.985753620903118  1.0000
  Fe  Fe15      1.0  0.06472029440655169  0.2109652298541413  0.9600418297705067  1.0000
  S   S29       1.0  0.07305436741049674  0.1849410270520716  0.9093774021457139  1.0000
  Fe  Fe16      1.0  0.07622802045120514  0.258560936718416  0.023137242256227708  1.0000
  S   S30       1.0  0.1006716639338685  0.2889086296190963  0.050190182955247575  1.0000
  S   S31       1.0  0.0346947137615603  0.20083592967424496  0.978412198015085  1.0000
  S   S32       1.0  0.04727502207854495  0.25238103818512514  0.04669465191156652  1.0000
  Fe  Fe17      1.0  0.890456182227733  0.40605360055505446  0.5811483115350522  1.0000
  S   S33       1.0  0.8745284017378755  0.37628063829729935  0.5385183205187425  1.0000
  S   S34       1.0  0.8856147171434393  0.3868176845762926  0.6348455720847802  1.0000
  Fe  Fe18      1.0  0.910415740903606  0.4678208357792691  0.5355047572061135  1.0000
  S   S35       1.0  0.8964645337992699  0.4436700758341872  0.488530636078715  1.0000
  S   S36       1.0  0.9297961524852555  0.5227040737083998  0.5365473202906456  1.0000
  Fe  Fe19      1.0  0.8700050284083167  0.4403616418831077  0.5205781268952452  1.0000
  S   S37       1.0  0.842196171730191  0.4679140842936233  0.5059018278730862  1.0000
  Fe  Fe20      1.0  0.9024286449476477  0.3821525668962245  0.5108135597706421  1.0000
  S   S38       1.0  0.9152015989811876  0.3327944240000246  0.47908260857603485  1.0000
  S   S39       1.0  0.8835327115458119  0.46950479239382104  0.5659323822378555  1.0000
  S   S40       1.0  0.9189313459713578  0.40669568454936356  0.5552125565943639  1.0000
  Fe  Fe21      1.0  0.9685064753238691  0.3704734598939642  0.8239224861689107  1.0000
  S   S41       1.0  0.9714524553860032  0.4380511717872545  0.8160701769501074  1.0000
  S   S42       1.0  0.9944628257162806  0.33136072636761094  0.8301874657942944  1.0000
  Fe  Fe22      1.0  0.9252818709016998  0.3715785410690845  0.8170967745874286  1.0000
  S   S43       1.0  0.924608336190449  0.43925828202879175  0.8091572678547198  1.0000
  S   S44       1.0  0.8986683674548125  0.33255565585047797  0.8195976104068105  1.0000
  Fe  Fe23      1.0  0.949749745380563  0.42876006518443494  0.7752905978589449  1.0000
  S   S45       1.0  0.9513965545483504  0.46009034933967397  0.7248800733999771  1.0000
  Fe  Fe24      1.0  0.9461402551142607  0.4419432803504165  0.8508437248837204  1.0000
  S   S46       1.0  0.9459543291863529  0.490277497735751  0.8911559473654058  1.0000
  S   S47       1.0  0.9488803131864966  0.36055414147498616  0.7797327215177834  1.0000
  S   S48       1.0  0.9447393205670996  0.37495895586091804  0.8621117588744022  1.0000
  Fe  Fe25      1.0  0.7487864892369972  0.423590689804488  0.5894820624998737  1.0000
  S   S49       1.0  0.7454447673427689  0.44824439697017077  0.6420558697386912  1.0000
  S   S50       1.0  0.7726057827476006  0.38027448697149685  0.5781753106894176  1.0000
  Fe  Fe26      1.0  0.7138988767970709  0.46703712303683936  0.5637216366153895  1.0000
  S   S51       1.0  0.7076360474516593  0.49552088304195663  0.6140873345364491  1.0000
  S   S52       1.0  0.6965395050962269  0.4835688139240861  0.51857792754582  1.0000
  Fe  Fe27      1.0  0.7391632011551701  0.5072102698763183  0.6160854854731971  1.0000
  S   S53       1.0  0.752770106035172  0.5656080570117207  0.6340902198833569  1.0000
  Fe  Fe28      1.0  0.7143248155730231  0.43378868154970535  0.6347720127133856  1.0000
  S   S54       1.0  0.6946809861112391  0.4082461457550147  0.6748673465921039  1.0000
  S   S55       1.0  0.7448593987201432  0.4839564518889214  0.563759228674768  1.0000
  S   S56       1.0  0.718127285181835  0.4039882896479197  0.58406407400987  1.0000
  Fe  Fe29      1.0  0.774949316859255  0.35765195991441584  0.8458887304814502  1.0000
  S   S57       1.0  0.7631379893370529  0.41280589608504453  0.8710933356428667  1.0000
  S   S58       1.0  0.7610554287136002  0.2988964798322034  0.8624880905324251  1.0000
  Fe  Fe30      1.0  0.8011834706662478  0.40780843111424847  0.8007880228328046  1.0000
  S   S59       1.0  0.7909212895769238  0.4676332565203592  0.8213932044696766  1.0000
  S   S60       1.0  0.8239931173089924  0.41041954655427654  0.7605008659557952  1.0000
  Fe  Fe31      1.0  0.7930500678416835  0.4366404584606566  0.871733035799337  1.0000
  S   S61       1.0  0.8041339964697838  0.470774719321457  0.9170036492026443  1.0000
  Fe  Fe32      1.0  0.7618586017942977  0.4385891612425163  0.8187994563868243  1.0000
  S   S62       1.0  0.7345867372500784  0.47115209739521513  0.807876534829716  1.0000
  S   S63       1.0  0.8054593889258238  0.3786447347364525  0.8517808538204005  1.0000
  S   S64       1.0  0.7717787091025202  0.3815241793929142  0.7930173270836804  1.0000
  Fe  Fe33      1.0  0.8747304119661289  0.719838856438941  0.5375149633197666  1.0000
  S   S65       1.0  0.8710012477388943  0.7869146311846776  0.5289293370389874  1.0000
  S   S66       1.0  0.8808686628542438  0.6754333883703337  0.49548639782884946  1.0000
  Fe  Fe34      1.0  0.8664991248332354  0.7256312506387981  0.6124378460049184  1.0000
  S   S67       1.0  0.8624078114513419  0.793260834084562  0.6116098157585851  1.0000
  S   S68       1.0  0.8628444581215378  0.6861087858623781  0.6582872388236153  1.0000
  Fe  Fe35      1.0  0.8458649055771852  0.7806560065400617  0.5640827844883464  1.0000
  S   S69       1.0  0.8177050400058703  0.8093063851227491  0.5529946960676766  1.0000
  Fe  Fe36      1.0  0.8878469513667974  0.7942509261984928  0.5768793929380671  1.0000
  S   S70       1.0  0.9119180424808002  0.8388654209900973  0.5856899374150343  1.0000
  S   S71       1.0  0.8477952858928895  0.7128027803901531  0.5677344516921825  1.0000
  S   S72       1.0  0.8936374366295845  0.7274299827400081  0.5826396410700336  1.0000
  Fe  Fe37      1.0  0.9088586625676484  0.7465920116933671  0.8901175958181611  1.0000
  S   S73       1.0  0.9182553172159482  0.6894184420408892  0.8636107588246086  1.0000
  S   S74       1.0  0.925332916892947  0.7746034526451511  0.933365711380342  1.0000
  Fe  Fe38      1.0  0.8728451593166288  0.7540954416783092  0.8483857326163723  1.0000
  S   S75       1.0  0.8791702869776191  0.6979883528572012  0.8185884350476541  1.0000
  S   S76       1.0  0.8459370664342776  0.7890220696094351  0.838824680959439  1.0000
  Fe  Fe39      1.0  0.887440487250824  0.6705789365346162  0.8680550208908034  1.0000
  S   S77       1.0  0.8760937268360326  0.6069015118608989  0.8759589418264482  1.0000
  Fe  Fe40      1.0  0.9091626675629412  0.7218045704774839  0.8165439363064957  1.0000
  S   S78       1.0  0.9257771425400877  0.7201487810305441  0.7677435817866878  1.0000
  S   S79       1.0  0.8786211478464439  0.7248213047871614  0.8986069004255084  1.0000
  S   S80       1.0  0.9022922232541882  0.7809319493367844  0.8423959565275442  1.0000
  Fe  Fe41      1.0  0.7048114308107869  0.7667364510709795  0.6267473539658918  1.0000
  S   S81       1.0  0.7228735856533275  0.8205043581253413  0.6114293236164673  1.0000
  S   S82       1.0  0.7015617623317378  0.7134134232187894  0.5914830906721115  1.0000
  Fe  Fe42      1.0  0.6930751872578358  0.8043740844938965  0.6936054145389097  1.0000
  S   S83       1.0  0.7103378715052678  0.8615098407409554  0.684632770589999  1.0000
  S   S84       1.0  0.6765036406530426  0.7979025274190894  0.7421695437964398  1.0000
  Fe  Fe43      1.0  0.698686635617136  0.85739707545162  0.631805267926208  1.0000
  S   S85       1.0  0.6864433226101612  0.9113350137545485  0.6050815642512575  1.0000
  Fe  Fe44      1.0  0.7329198372036418  0.8194888029421125  0.6652995577042844  1.0000
  S   S86       1.0  0.7637238782002604  0.8228205529290774  0.6809318781404177  1.0000
  S   S87       1.0  0.6795218425082321  0.8035940309279213  0.6423137155915153  1.0000
  S   S88       1.0  0.7166981550679391  0.7624828292566679  0.679278796297188  1.0000
  Fe  Fe45      1.0  0.7284883728191126  0.7245777939068109  0.8752326316243393  1.0000
  S   S89       1.0  0.710815941044845  0.6718126034028492  0.8946457834126575  1.0000
  S   S90       1.0  0.7235956969417757  0.7904533961682545  0.8883975558449501  1.0000
  Fe  Fe46      1.0  0.7550104091648202  0.6705548724194746  0.8349358943183486  1.0000
  S   S91       1.0  0.7399942917043772  0.612940451639006  0.8506468360559111  1.0000
  S   S92       1.0  0.7791642554069695  0.667988342234926  0.7977946430430926  1.0000
  Fe  Fe47      1.0  0.7132956313979226  0.6477562137006835  0.8414774047665844  1.0000
  S   S93       1.0  0.6900236184897102  0.6258326076822425  0.8071899082937757  1.0000
  Fe  Fe48      1.0  0.7390173075339164  0.6417975437287687  0.9022568377444867  1.0000
  S   S94       1.0  0.7467470249102287  0.611740408318297  0.9512579627378135  1.0000
  S   S95       1.0  0.7284711238446685  0.7031221201062993  0.8214876819237601  1.0000
  S   S96       1.0  0.7565882111310959  0.6965456185515432  0.88736490120921  1.0000
  Fe  Fe49      1.0  0.012273940261376515  0.9866314368111996  0.44036200619591775  1.0000
  S   S97       1.0  0.03409690340535154  0.9696960494026312  0.478754585291047  1.0000
  S   S98       1.0  0.01782759537604095  0.040493852411570774  0.4061839616223794  1.0000
  Fe  Fe50      1.0  0.9848453946622556  0.9194513010818502  0.46345908884597264  1.0000
  S   S99       1.0  0.0046609747202115415  0.8966614454820738  0.5036528702291346  1.0000
  S   S100      1.0  0.9559764249999467  0.8919441678781788  0.45280094892084566  1.0000
  Fe  Fe51      1.0  0.00948685001451488  0.9633551405773136  0.5143995704503423  1.0000
  S   S101      1.0  0.010151481106897453  0.988322022223075  0.5672742045004258  1.0000
  Fe  Fe52      1.0  0.02722685470854591  0.9055677724555365  0.4639648703982847  1.0000
  S   S102      1.0  0.05224962708419323  0.8664970805180372  0.4528464302896552  1.0000
  S   S103      1.0  0.987921935044786  0.9855490879275954  0.4773379296377964  1.0000
  S   S104      1.0  0.007151735301510476  0.9225913139561783  0.4225141521426393  1.0000
  Fe  Fe53      1.0  0.09859126281046465  0.014097432446375846  0.6537590880555056  1.0000
  S   S105      1.0  0.12635988181144084  0.981831001644255  0.6498707699267186  1.0000
  S   S106      1.0  0.09023788165026689  0.05733573051009988  0.6126205802743799  1.0000
  Fe  Fe54      1.0  0.08645607812902414  0.9684479158165411  0.7167122838739111  1.0000
  S   S107      1.0  0.11287519950882045  0.930804978092789  0.7183709123764311  1.0000
  S   S108      1.0  0.06165553834804616  0.9641797717725854  0.7524317505403815  1.0000
  Fe  Fe55      1.0  0.12769902312165432  0.9900692581881815  0.7061218736810005  1.0000
  S   S109      1.0  0.1555830028073345  0.0024916212134720173  0.7318316930489108  1.0000
  Fe  Fe56      1.0  0.10937742113358752  0.9254309375458287  0.6619708018003866  1.0000
  S   S110      1.0  0.11515277266330702  0.8716070663304009  0.6283502298900627  1.0000
  S   S111      1.0  0.10150391285572107  0.028523632392028597  0.7090691637685392  1.0000
  S   S112      1.0  0.08134690199551406  0.9569251793202811  0.6615578973262973  1.0000
  Fe  Fe57      1.0  0.005120996378523923  0.2625771973224053  0.5442358628611301  1.0000
  S   S113      1.0  0.015752390647218784  0.3265537642095298  0.5349164765011641  1.0000
  S   S114      1.0  0.9771042569484922  0.2509566203930425  0.5703365290967053  1.0000
  Fe  Fe58      1.0  0.04073963387097579  0.2240722303306696  0.5154258023440532  1.0000
  S   S115      1.0  0.05481831408411231  0.28441634483464945  0.5051157112334379  1.0000
  S   S116      1.0  0.05690616350900002  0.1665791260396789  0.5057273570225935  1.0000
  Fe  Fe59      1.0  0.04320789092699573  0.3031639878789653  0.5556167956927862  1.0000
  S   S117      1.0  0.06158332440504788  0.34041209175050374  0.5904836702806749  1.0000
  Fe  Fe60      1.0  0.026175185806698087  0.30165950538254654  0.4852523747078986  1.0000
  S   S118      1.0  0.02550538177630335  0.33373094243886675  0.4350532743298565  1.0000
  S   S119      1.0  0.031960046655906016  0.24071202997717028  0.5682963221051123  1.0000
  S   S120      1.0  0.012653199661363912  0.23976719112765257  0.49243255851935436  1.0000
  Fe  Fe61      1.0  0.14080144874937542  0.2799535561473371  0.7839436589708151  1.0000
  S   S121      1.0  0.16828274126229428  0.28903537426564163  0.755431652798355  1.0000
  S   S122      1.0  0.1365978438667737  0.2941589746932809  0.8390710921106378  1.0000
  Fe  Fe62      1.0  0.11959534620624845  0.24971845229040882  0.7230932423333699  1.0000
  S   S123      1.0  0.14482613119281643  0.2549939768217478  0.6880364039409335  1.0000
  S   S124      1.0  0.08995434878839953  0.22953296172489981  0.7096949695463871  1.0000
  Fe  Fe63      1.0  0.16116211236951633  0.2289246120764834  0.7313934118015167  1.0000
  S   S125      1.0  0.1849946535839938  0.18478147521944632  0.726006033226817  1.0000
  Fe  Fe64      1.0  0.1501222639671888  0.31497247710532567  0.7142889877257949  1.0000
  S   S126      1.0  0.15977564368829597  0.3680572926698877  0.6820921453085593  1.0000
  S   S127      1.0  0.13545210634681337  0.2169423265818221  0.7637225765502348  1.0000
  S   S128      1.0  0.12326876382693251  0.31216656665386366  0.7453226331932206  1.0000
  Fe  Fe65      1.0  0.628787539017148  0.8985114173394365  0.44971462440782883  1.0000
  S   S129      1.0  0.6097216208022326  0.8911580783075204  0.4045466194539727  1.0000
  S   S130      1.0  0.650043995415029  0.853055039571158  0.46719406698545823  1.0000
  Fe  Fe66      1.0  0.6148309409203446  0.9828493134828582  0.4662071394083322  1.0000
  S   S131      1.0  0.5941789153160467  0.9834189232733767  0.4232028006176096  1.0000
  S   S132      1.0  0.6192360783248506  0.03771335100469808  0.4995339242811729  1.0000
  Fe  Fe67      1.0  0.5876813114432802  0.9190013082848673  0.4384548393111775  1.0000
  S   S133      1.0  0.558039852000703  0.892988280081053  0.4381272715669643  1.0000
  Fe  Fe68      1.0  0.6178818565515968  0.9561697890350521  0.3928224033471365  1.0000
  S   S134      1.0  0.6232434356102737  0.9860370351758028  0.34223548812973004  1.0000
  S   S135      1.0  0.606031204858874  0.9208321856229448  0.4849025236872409  1.0000
  S   S136      1.0  0.6392762309317389  0.9604600899976905  0.4347236711964075  1.0000
  Fe  Fe69      1.0  0.5494150565291641  0.8836885050173552  0.6986936800556038  1.0000
  S   S137      1.0  0.5394085919131139  0.9479262027240407  0.6931155615911663  1.0000
  S   S138      1.0  0.5568414576646232  0.8605646545444869  0.750386890897015  1.0000
  Fe  Fe70      1.0  0.5457507913259335  0.8652976323098873  0.6239008012254743  1.0000
  S   S139      1.0  0.5358142338209224  0.9281872064013977  0.6116221703717315  1.0000
  S   S140      1.0  0.5468155826179117  0.8167938052346548  0.5837503766307657  1.0000
  Fe  Fe71      1.0  0.5586287870719301  0.9488690028604582  0.6474360027038929  1.0000
  S   S141      1.0  0.5781659025141022  0.002429184843713905  0.63782641673861  1.0000
  Fe  Fe72      1.0  0.5175483322107989  0.9209629437501647  0.6579496265240876  1.0000
  S   S142      1.0  0.48722160701572564  0.9404827400340182  0.652010483189617  1.0000
  S   S143      1.0  0.570432054933655  0.886416349298054  0.6557431997401763  1.0000
  S   S144      1.0  0.5256996222413653  0.8562514207226628  0.6676538164443637  1.0000
  Fe  Fe73      1.0  0.581663527719934  0.2680216644722439  0.695483732253513  1.0000
  S   S145      1.0  0.5553395145825591  0.26064521419502823  0.7273951262126137  1.0000
  S   S146      1.0  0.609609655487724  0.28222333523458365  0.7203150104192204  1.0000
  Fe  Fe74      1.0  0.5609469839518024  0.25113533211259886  0.630014095355489  1.0000
  S   S147      1.0  0.5326462466348801  0.2422290041699138  0.6554904868652106  1.0000
  S   S148      1.0  0.5642927694388191  0.24459031096046785  0.5738342226244432  1.0000
  Fe  Fe75      1.0  0.5412955271955363  0.29674671417569615  0.6865700596000168  1.0000
  S   S149      1.0  0.522526815671701  0.3496002804185975  0.6987828938577398  1.0000
  Fe  Fe76      1.0  0.5491854921890937  0.20698838388929638  0.6938632508048123  1.0000
  S   S150      1.0  0.5382080357698531  0.14722435762927397  0.7136279414950999  1.0000
  S   S151      1.0  0.5682759612200935  0.3091631143429572  0.657391092445871  1.0000
  S   S152      1.0  0.5768291011144522  0.21084955703083758  0.6654630383647535  1.0000
  Fe  Fe77      1.0  0.6769900378599445  0.3004400410304828  0.4203544550407416  1.0000
  S   S153      1.0  0.6489015226937934  0.3177973534457154  0.4433641930062314  1.0000
  S   S154      1.0  0.6972183216075957  0.34992745231203365  0.40370112552052867  1.0000
  Fe  Fe78      1.0  0.6696036358962634  0.21043236036196594  0.42771790890479855  1.0000
  S   S155      1.0  0.6410163930476811  0.21932251716095977  0.45159239281805025  1.0000
  S   S156      1.0  0.6780971957078364  0.14604320456794703  0.41789899252972  1.0000
  Fe  Fe79      1.0  0.6369838675446566  0.26675503112766513  0.4115873139291936  1.0000
  S   S157      1.0  0.6083116958345604  0.2661713974718683  0.38617467770107083  1.0000
  Fe  Fe80      1.0  0.6554809141470859  0.2690730220225846  0.4811148619374921  1.0000
  S   S158      1.0  0.6506486600905526  0.27781820813596325  0.5368675400966384  1.0000
  S   S159      1.0  0.6645410201936014  0.2536384581034663  0.38487737041750014  1.0000
  S   S160      1.0  0.6846765740787744  0.25579025355491447  0.46094274506963717  1.0000
  Fe  Fe81      1.0  0.5504324796611777  0.3232977831626388  0.17642273243255183  1.0000
  S   S161      1.0  0.5784187879773109  0.30602947349611764  0.15289290833230446  1.0000
  S   S162      1.0  0.539412993546707  0.3871524443272633  0.18032633114435956  1.0000
  Fe  Fe82      1.0  0.5443247080477887  0.24064887724807055  0.20921349700980527  1.0000
  S   S163      1.0  0.5718296728290193  0.2155711639653555  0.18942483225836806  1.0000
  S   S164      1.0  0.5230027312421193  0.21456832929587472  0.24582801256857742  1.0000
  Fe  Fe83      1.0  0.5842465041280911  0.27674784249581796  0.20298659722927848  1.0000
  S   S165      1.0  0.6126337275658009  0.2877343116442726  0.22732732445587026  1.0000
  Fe  Fe84      1.0  0.5636563145260054  0.2466038974144442  0.14074476872912017  1.0000
  S   S166      1.0  0.5664962440329289  0.2110856979883276  0.09208383243570073  1.0000
  S   S167      1.0  0.5575764388628408  0.2988270335006074  0.22744852290446485  1.0000
  S   S168      1.0  0.5349753262318064  0.2663753941147506  0.15955552504797477  1.0000
  Fe  Fe85      1.0  0.5615835984643537  0.9287176365065836  0.20283367983260106  1.0000
  S   S169      1.0  0.5326555319506722  0.9237358268168733  0.22675625754980486  1.0000
  S   S170      1.0  0.5854300951614492  0.8894199763111323  0.22085943351151383  1.0000
  Fe  Fe86      1.0  0.5498069538440079  0.9951196134599519  0.15469882403880797  1.0000
  S   S171      1.0  0.5197778446194667  0.9973651865668574  0.1742957975614065  1.0000
  S   S172      1.0  0.5621625610638483  0.035560950589473395  0.11409073640484393  1.0000
  Fe  Fe87      1.0  0.533337739516489  0.9919143910156851  0.22540933556980464  1.0000
  S   S173      1.0  0.5231074689831128  0.024982629879517715  0.2713009081529607  1.0000
  Fe  Fe88      1.0  0.5214395800654739  0.9290310691634872  0.1739715019683161  1.0000
  S   S174      1.0  0.4970354480368468  0.8886324173364192  0.1580657485590931  1.0000
  S   S175      1.0  0.563250488830684  0.9968235035952316  0.20607443882088083  1.0000
  S   S176      1.0  0.5504070517829461  0.9268814877225644  0.14978499251844568  1.0000
  Fe  Fe89      1.0  0.0932798007892716  0.9632632890611119  0.20933655638015627  1.0000
  S   S177      1.0  0.12307184938629531  0.9701298149301032  0.22896037843795197  1.0000
  S   S178      1.0  0.08767672055527062  0.9901369223627784  0.15799642434705818  1.0000
  Fe  Fe90      1.0  0.07957337142112354  0.9188520943358424  0.27222465726516093  1.0000
  S   S179      1.0  0.10810888632405573  0.9217815622750767  0.29753595680233474  1.0000
  S   S180      1.0  0.05367584031699413  0.8874322765591753  0.2939105147792119  1.0000
  Fe  Fe91      1.0  0.10901399777462537  0.9861614794034523  0.27815877108511844  1.0000
  S   S181      1.0  0.11980883199231723  0.0378956890474762  0.31049711338479447  1.0000
  Fe  Fe92      1.0  0.11960712794775322  0.9055690040364587  0.2462357253017178  1.0000
  S   S182      1.0  0.1436412438613089  0.8626659934205703  0.2362379074590621  1.0000
  S   S183      1.0  0.07934748782996724  0.9849618617546  0.25729159221143555  1.0000
  S   S184      1.0  0.09098457651643023  0.8968494932338654  0.2223301526651203  1.0000
  Fe  Fe93      1.0  0.12893434865049752  0.32490694847932516  0.292866329603036  1.0000
  S   S185      1.0  0.09706265343197565  0.33125743878298214  0.29330700516068775  1.0000
  S   S186      1.0  0.14530248038247595  0.3684742990174893  0.3267958519121625  1.0000
  Fe  Fe94      1.0  0.1271332069720535  0.24798002814176756  0.24992225344796384  1.0000
  S   S187      1.0  0.09533323375723582  0.2480119252465473  0.2470524697107277  1.0000
  S   S188      1.0  0.13998800970393532  0.19422307609546335  0.22347144109897493  1.0000
  Fe  Fe95      1.0  0.09905698854979055  0.3150624278140915  0.23807863070211538  1.0000
  S   S189      1.0  0.07989414685051838  0.3432026079673758  0.19942008949576195  1.0000
  Fe  Fe96      1.0  0.09628704245957048  0.2638597349371538  0.3020743500234499  1.0000
  S   S190      1.0  0.07884751449200787  0.22900707463528866  0.3404429584994421  1.0000
  S   S191      1.0  0.1310800320424991  0.31429687314179355  0.23650772315403415  1.0000
  S   S192      1.0  0.1279484990390448  0.2583451752281926  0.30609851236728014  1.0000
  Fe  Fe97      1.0  0.2133707883149239  0.7779787316231429  0.641390383001286  1.0000
  S   S193      1.0  0.20843597905899397  0.751036961173393  0.5898647084191104  1.0000
  S   S194      1.0  0.19080964791517738  0.7907702909204901  0.6805450139776601  1.0000
  Fe  Fe98      1.0  0.2564205409773945  0.7801409908495373  0.6327457188004804  1.0000
  S   S195      1.0  0.2553591925538031  0.752990786813998  0.5805950270665521  1.0000
  S   S196      1.0  0.28389400751067223  0.7944387602683765  0.6597540720058708  1.0000
  Fe  Fe99      1.0  0.23099232419412466  0.7957675519952548  0.5725410864359823  1.0000
  S   S197      1.0  0.22546863873947046  0.8342114367242249  0.5263457538099048  1.0000
  Fe  Fe100     1.0  0.23305142964858072  0.7109122272630883  0.6023071887957204  1.0000
  S   S198      1.0  0.2326895245924197  0.6446059057309651  0.5876633407888536  1.0000
  S   S199      1.0  0.23387231682252715  0.8264982185780467  0.6232948305824164  1.0000
  S   S200      1.0  0.23619663022702933  0.7340345180236758  0.6554581475254723  1.0000
  Fe  Fe101     1.0  0.2515402109644089  0.796966961290425  0.29350418886490287  1.0000
  S   S201      1.0  0.25022113323853046  0.8554866205759487  0.26458249310627807  1.0000
  S   S202      1.0  0.23988456624708962  0.7387070144380766  0.2715887135080991  1.0000
  Fe  Fe102     1.0  0.27064181141067534  0.8362543936098656  0.3542301701379342  1.0000
  S   S203      1.0  0.27085535919634157  0.8989649996988736  0.33123247095002184  1.0000
  S   S204      1.0  0.28353123269360325  0.8185302528032844  0.4040165112104057  1.0000
  Fe  Fe103     1.0  0.24109293430858486  0.8824853702978346  0.3142238377531241  1.0000
  S   S205      1.0  0.21559500019034983  0.9230732240332669  0.31912520811283424  1.0000
  Fe  Fe104     1.0  0.2798218729149844  0.866406129648783  0.28373057490217457  1.0000
  S   S206      1.0  0.30258839272084553  0.8862890721570829  0.247182411232368  1.0000
  S   S207      1.0  0.24008187900190445  0.822864296134654  0.3418343676591081  1.0000
  S   S208      1.0  0.28207763948889963  0.8049527052681231  0.30804556172586844  1.0000
  Fe  Fe105     1.0  0.4174443697531524  0.8539218192202515  0.2791379510431837  1.0000
  S   S209      1.0  0.4307900250926385  0.831500576422768  0.3270046916397186  1.0000
  S   S210      1.0  0.4267372738277503  0.9134752784703851  0.2561955153056052  1.0000
  Fe  Fe106     1.0  0.39011817278180067  0.7818806626830206  0.2743107339831912  1.0000
  S   S211      1.0  0.4008503453170154  0.7525366354900197  0.32156534101405077  1.0000
  S   S212      1.0  0.3666848872516479  0.7544464080725575  0.24291751915398158  1.0000
  Fe  Fe107     1.0  0.4008699534452743  0.81596056165247  0.3427650541500088  1.0000
  S   S213      1.0  0.3891686681517077  0.8300606188925099  0.3941222763612061  1.0000
  Fe  Fe108     1.0  0.42967845733085536  0.7705159651750397  0.3013938160155645  1.0000
  S   S214      1.0  0.45386704812592177  0.7273689397786618  0.30594470482896186  1.0000
  S   S215      1.0  0.38747508110068535  0.8441045612862568  0.2972803671864388  1.0000
  S   S216      1.0  0.4190270591071953  0.794214118179192  0.25180419329200326  1.0000
  Fe  Fe109     1.0  0.3797787293649103  0.7875132912698878  0.5800684539155605  1.0000
  S   S217      1.0  0.386834922112911  0.7323610306904367  0.5492543816406309  1.0000
  S   S218      1.0  0.3544951030719122  0.8234296861200232  0.5627105134068249  1.0000
  Fe  Fe110     1.0  0.41254944023089635  0.774418011826989  0.6282980260573507  1.0000
  S   S219      1.0  0.42227291220169705  0.7176389005736991  0.6018782341694672  1.0000
  S   S220      1.0  0.42771736143738653  0.7964939906536078  0.6749749387892895  1.0000
  Fe  Fe111     1.0  0.4171690752049726  0.7531914626930071  0.5546443126283996  1.0000
  S   S221      1.0  0.4369908137444998  0.748692037606266  0.5102204053558701  1.0000
  Fe  Fe112     1.0  0.39106524110259916  0.701809192629264  0.5991914673643887  1.0000
  S   S222      1.0  0.3779481234533228  0.6392954928934903  0.6041684997128249  1.0000
  S   S223      1.0  0.4099097735245788  0.8116878876015104  0.5809946150050312  1.0000
  S   S224      1.0  0.381696672631995  0.7552203408498033  0.630093893997613  1.0000
  Fe  Fe113     1.0  0.24430956281457183  0.47106097418672027  0.3113348328578975  1.0000
  S   S225      1.0  0.23728056077053522  0.4809759402552691  0.36624249177737284  1.0000
  S   S226      1.0  0.2268932379008467  0.42974165609715276  0.2771906338899457  1.0000
  Fe  Fe114     1.0  0.2825224205935707  0.517246935297824  0.3164216720334193  1.0000
  S   S227      1.0  0.27869622762997115  0.5295544351370969  0.37190852345998887  1.0000
  S   S228      1.0  0.30883107541436583  0.5406553590987342  0.28914468417042644  1.0000
  Fe  Fe115     1.0  0.2677823848867166  0.4650714842578782  0.3749598006616439  1.0000
  S   S229      1.0  0.27683787490410855  0.41953029505589995  0.4139232002106411  1.0000
  Fe  Fe116     1.0  0.24869101684321315  0.5442523891098646  0.3575698124165484  1.0000
  S   S230      1.0  0.23622960203452462  0.5998214814030509  0.38166716483567986  1.0000
  S   S231      1.0  0.27432732646011987  0.4512272445616961  0.3206209355679667  1.0000
  S   S232      1.0  0.2530730634064702  0.5363606916813028  0.30152613815075946  1.0000
  Fe  Fe117     1.0  0.2636280542008896  0.4147895304290742  0.6739509069029737  1.0000
  S   S233      1.0  0.25772488828864804  0.4723110828586875  0.6463850511350353  1.0000
  S   S234      1.0  0.24565436185802944  0.4003150305242164  0.7195344682493641  1.0000
  Fe  Fe118     1.0  0.2958567174883355  0.3931230105302017  0.6270887632231598  1.0000
  S   S235      1.0  0.2928689737758261  0.4492132529120311  0.59489840321556  1.0000
  S   S236      1.0  0.31888365391533396  0.34699137545816383  0.6205128458072452  1.0000
  Fe  Fe119     1.0  0.28928289202473617  0.4813464534266305  0.6444321946587555  1.0000
  S   S237      1.0  0.2997496321021211  0.5454540662205757  0.6521711709805954  1.0000
  Fe  Fe120     1.0  0.26149684456739525  0.435689921053376  0.5991813568271404  1.0000
  S   S238      1.0  0.24026127451658993  0.4487676367480038  0.5582714778181551  1.0000
  S   S239      1.0  0.29510433651145557  0.4268692263965726  0.6767263078779687  1.0000
  S   S240      1.0  0.26466310573551394  0.3763553866023374  0.6269050957259207  1.0000
  Fe  Fe121     1.0  0.44582991748187073  0.432436611620559  0.2756722048269886  1.0000
  S   S241      1.0  0.4599636529429816  0.49410191267532216  0.2796226394650869  1.0000
  S   S242      1.0  0.45942503763918874  0.3759698128627988  0.25449003092871414  1.0000
  Fe  Fe122     1.0  0.4091535930927778  0.4599848082163609  0.30981886169109263  1.0000
  S   S243      1.0  0.4200229077573967  0.5237830314288352  0.3163884777747352  1.0000
  S   S244      1.0  0.38131150340339465  0.4417269901996161  0.33423790265115455  1.0000
  Fe  Fe123     1.0  0.43141237781764  0.5168639663091569  0.26357355848971625  1.0000
  S   S245      1.0  0.42831417402174443  0.5689549682180868  0.22751708206236151  1.0000
  Fe  Fe124     1.0  0.44739969202608454  0.49541142835370433  0.33190508419095494  1.0000
  S   S246      1.0  0.4617228952358696  0.5221186110766398  0.3776941888323689  1.0000
  S   S247      1.0  0.4180062223949366  0.45508642945066885  0.25525962540942077  1.0000
  S   S248      1.0  0.43569558143489706  0.43154709189427054  0.329743570470249  1.0000
  Fe  Fe125     1.0  0.43726750076164655  0.3736927357468761  0.5963356891703159  1.0000
  S   S249      1.0  0.46237062403227147  0.41210996702000185  0.5800765735927917  1.0000
  S   S250      1.0  0.4415363651088111  0.32305020876419177  0.6335731885873355  1.0000
  Fe  Fe126     1.0  0.41043491681705524  0.4145826465908827  0.5474162202744165  1.0000
  S   S251      1.0  0.43318849037982343  0.4563634674113516  0.5270572899892003  1.0000
  S   S252      1.0  0.38168957122010616  0.4214661318054201  0.5238531766191905  1.0000
  Fe  Fe127     1.0  0.4515332462030055  0.40091521221970644  0.5276708722262349  1.0000
  S   S253      1.0  0.4700944882235691  0.38171078534657377  0.48429008809966434  1.0000
  Fe  Fe128     1.0  0.44155452904153125  0.46326774083620303  0.5813667210899535  1.0000
  S   S254      1.0  0.4489202618148784  0.5247764448063168  0.602323806179779  1.0000
  S   S255      1.0  0.42798502252690174  0.35826526467416747  0.5434155488016885  1.0000
  S   S256      1.0  0.417157511088667  0.4260121893522653  0.6022310612885108  1.0000
  C   C1        1.0  0.46683217407696487  0.4837743849677548  0.4068835414013729  1.0000
  C   C2        1.0  0.46952662220601926  0.4435545481071454  0.396039350412542  1.0000
  C   C3        1.0  0.47144951960947756  0.4122426382702298  0.41994087888052534  1.0000
  C   C4        1.0  0.47060691796719967  0.42127333926061933  0.45460316102441495  1.0000
  C   C5        1.0  0.4688082427907873  0.4617232289971732  0.4653860507036277  1.0000
  C   C6        1.0  0.4669808619749316  0.4930152100534663  0.44151022159626546  1.0000
  H   H1        1.0  0.4700144884462632  0.43661589950963636  0.36924832010515085  1.0000
  H   H2        1.0  0.472993674868858  0.3809850209826523  0.4116042426045276  1.0000
  H   H3        1.0  0.46882373918561326  0.46889028137436645  0.49215535117655984  1.0000
  H   H4        1.0  0.4651801779903336  0.5241965250215794  0.4498214832650158  1.0000
  C   C7        1.0  0.3359969593816338  0.36296373780953695  0.5906975339866811  1.0000
  C   C8        1.0  0.3551926920434448  0.35363423430981067  0.5957867375893093  1.0000
  C   C9        1.0  0.36931564243698245  0.37072285408916333  0.5746630833847652  1.0000
  C   C10       1.0  0.36416258492161035  0.3962512373526975  0.5479153083683721  1.0000
  C   C11       1.0  0.3449094503116722  0.4037617751125301  0.5416725853883102  1.0000
  C   C12       1.0  0.3308318520361116  0.38730571700336086  0.5632022283640872  1.0000
  H   H5        1.0  0.35920228115346886  0.33444832824291787  0.616857844410541  1.0000
  H   H6        1.0  0.38417920754498275  0.36445206649435813  0.5793452721010567  1.0000
  H   H7        1.0  0.3408876516163633  0.4231471506313028  0.5207472414083988  1.0000
  H   H8        1.0  0.31598331114517225  0.3932767859310283  0.5583950730739857  1.0000
  C   C13       1.0  0.32893275457403187  0.5126365254139802  0.30107795825574757  1.0000
  C   C14       1.0  0.34617041147315  0.5174495701504263  0.2832615985852333  1.0000
  C   C15       1.0  0.36241689180063646  0.4959228409068438  0.29330244741665873  1.0000
  C   C16       1.0  0.36133489439463085  0.46917400078490756  0.3209475214911111  1.0000
  C   C17       1.0  0.344062617984491  0.4641841119836044  0.3385271383874286  1.0000
  C   C18       1.0  0.32791576616985924  0.48593749685738313  0.3286947467552534  1.0000
  H   H9        1.0  0.34687638790932984  0.5374150235274532  0.26146349945956304  1.0000
  H   H10       1.0  0.3756548146194595  0.4993655783021862  0.2793235638869449  1.0000
  H   H11       1.0  0.3431414770998071  0.4434552563574715  0.3598493665443927  1.0000
  H   H12       1.0  0.3146943612399953  0.48200201628073486  0.34259371361455987  1.0000
  C   C19       1.0  0.26613932469129475  0.4261845353016964  0.45380054888493093  1.0000
  C   C20       1.0  0.24841618058075232  0.4449657698812996  0.45687621215857827  1.0000
  C   C21       1.0  0.24013390538211796  0.45030886886468835  0.48900436212792514  1.0000
  C   C22       1.0  0.24979752129858243  0.43789992847583226  0.5181447879279771  1.0000
  C   C23       1.0  0.26734203857208827  0.41847505066048674  0.5150296568452837  1.0000
  C   C24       1.0  0.2754236735475146  0.4123154568198232  0.4828578453240761  1.0000
  H   H13       1.0  0.24097482704554604  0.45491889223648974  0.43457322045860636  1.0000
  H   H14       1.0  0.2263718935175478  0.46453586531523433  0.4913626654735981  1.0000
  H   H15       1.0  0.27469266958055505  0.4079961333004392  0.5373521722995733  1.0000
  H   H16       1.0  0.28905613407659997  0.3974158576783204  0.4805689062085718  1.0000
  C   C25       1.0  0.3966217540460091  0.6048066925257625  0.6073999452680359  1.0000
  C   C26       1.0  0.41325530735077626  0.6162156066097193  0.62453364484378  1.0000
  C   C27       1.0  0.4291415814653501  0.5908791448847047  0.6237663874675959  1.0000
  C   C28       1.0  0.42833505651724885  0.5538717615506252  0.6061589723771061  1.0000
  C   C29       1.0  0.411427529989248  0.5416005505656005  0.5900638228921355  1.0000
  C   C30       1.0  0.3955574282424294  0.5671778917836371  0.5906168170429964  1.0000
  H   H17       1.0  0.41390072423869523  0.6446176003839608  0.6384826120998115  1.0000
  H   H18       1.0  0.4421336154276207  0.6001512256711752  0.6365596412464632  1.0000
  H   H19       1.0  0.410785394266646  0.5131225815002799  0.5761939821389741  1.0000
  H   H20       1.0  0.38279212813582925  0.5585836454378776  0.5769069680227734  1.0000
  C   C31       1.0  0.44883458185478214  0.6837203025344865  0.28185699847600926  1.0000
  C   C32       1.0  0.4388042245161439  0.6867564542785515  0.2513615287826371  1.0000
  C   C33       1.0  0.4333500146259183  0.6513680554243815  0.23367873631757333  1.0000
  C   C34       1.0  0.4375955022494966  0.6129520235289915  0.24686300758240268  1.0000
  C   C35       1.0  0.44801161224703917  0.6100054613307448  0.2769369646195768  1.0000
  C   C36       1.0  0.4538270498765578  0.645393194915044  0.29422022349950994  1.0000
  H   H21       1.0  0.43508717157885  0.7162306150113811  0.2414449318270067  1.0000
  H   H22       1.0  0.4253279551564266  0.6537014552668508  0.21037753956522243  1.0000
  H   H23       1.0  0.45140276365464826  0.5804807983144555  0.2872383017101677  1.0000
  H   H24       1.0  0.461556717154396  0.6429068141205047  0.31782815223693645  1.0000
  C   C37       1.0  0.40364067839982826  0.8092818557949794  0.4256046729022455  1.0000
  C   C38       1.0  0.4188496616830672  0.7837378413805031  0.417320761819457  1.0000
  C   C39       1.0  0.4296353236671843  0.7658560713500221  0.4432267868780159  1.0000
  C   C40       1.0  0.4249662436620283  0.7731524325646787  0.47725006232870487  1.0000
  C   C41       1.0  0.40994234980284017  0.7990782136047608  0.4852476116030448  1.0000
  C   C42       1.0  0.3994834463932981  0.8174882993434295  0.4595730264033492  1.0000
  H   H25       1.0  0.42218423488970575  0.7773902595596004  0.39104530509727825  1.0000
  H   H26       1.0  0.4412509242663364  0.7458139895814937  0.4368574315431422  1.0000
  H   H27       1.0  0.4062824094101456  0.8051709190265625  0.5112578068117843  1.0000
  H   H28       1.0  0.38811319626656765  0.8379446474192332  0.4662115476869648  1.0000
  C   C43       1.0  0.23783278090035806  0.701035654796599  0.3028193980912486  1.0000
  C   C44       1.0  0.2442225473328246  0.7086821770225601  0.33581482690737247  1.0000
  C   C45       1.0  0.24299807831668147  0.6779296959073574  0.3604390001843404  1.0000
  C   C46       1.0  0.2359214169146637  0.6391762525842567  0.3517830535942641  1.0000
  C   C47       1.0  0.22945740914589036  0.6315783672576322  0.31883040609931623  1.0000
  C   C48       1.0  0.23024589823966915  0.6626405270932358  0.29442246083529816  1.0000
  H   H29       1.0  0.25045556605616653  0.7379814821964362  0.34232979103863076  1.0000
  H   H30       1.0  0.24814342964221817  0.6838014764562708  0.38585877779711525  1.0000
  H   H31       1.0  0.22378078266752133  0.6017472589779681  0.3121836114824228  1.0000
  H   H32       1.0  0.2252937716648246  0.6566299586811353  0.2689004116127426  1.0000
  C   C49       1.0  0.3192566253371383  0.8471823461962552  0.24648360329464036  1.0000
  C   C50       1.0  0.3284211033985746  0.8359255327871711  0.2764108253225736  1.0000
  C   C51       1.0  0.34262308893563537  0.8063007333372877  0.2755367078415777  1.0000
  C   C52       1.0  0.3473481325877812  0.7873675720000152  0.24486948806261408  1.0000
  C   C53       1.0  0.3376784918207145  0.7974988376831051  0.2151575183697514  1.0000
  C   C54       1.0  0.32379405550216234  0.8278498972357391  0.21588032821777753  1.0000
  H   H33       1.0  0.32485756055268433  0.8507955836726381  0.300101248359162  1.0000
  H   H34       1.0  0.3499959015009152  0.7982833571901515  0.2985903807571927  1.0000
  H   H35       1.0  0.34142288814738353  0.7830133342183095  0.19139363532963138  1.0000
  H   H36       1.0  0.316592499695865  0.8364155569327412  0.1927798304048831  1.0000
  C   C55       1.0  0.25167553587976493  0.6182683851939387  0.6056126369900112  1.0000
  C   C56       1.0  0.26216045596349585  0.6348308469057582  0.6325651284574911  1.0000
  C   C57       1.0  0.2770078826019149  0.6125451946035754  0.647076392360275  1.0000
  C   C58       1.0  0.28171673148305376  0.5743522345131075  0.6338709501570117  1.0000
  C   C59       1.0  0.27139951360105113  0.5582378920794038  0.6065730458922679  1.0000
  C   C60       1.0  0.2561934615166387  0.5797754325226517  0.5929412058109287  1.0000
  H   H37       1.0  0.2585938469086865  0.6643276896649662  0.6427840357301874  1.0000
  H   H38       1.0  0.2845917276156797  0.6245579544446723  0.6688476024948709  1.0000
  H   H39       1.0  0.2749786249013791  0.5288493589467279  0.5960758647831296  1.0000
  H   H40       1.0  0.2478722523695054  0.5663424713979799  0.5727449591427727  1.0000
  C   C61       1.0  0.30312302052641976  0.8069683983194492  0.6330384689338675  1.0000
  C   C62       1.0  0.30039509064703696  0.8153868173545598  0.5986114167794713  1.0000
  C   C63       1.0  0.31622046394870124  0.8215624047219362  0.5771579268376237  1.0000
  C   C64       1.0  0.33474312101335746  0.8185580081485084  0.5900009448727727  1.0000
  C   C65       1.0  0.3373745843759709  0.8107053366200236  0.6244721420606676  1.0000
  C   C66       1.0  0.32162827259092663  0.805421934691  0.6460345195921929  1.0000
  H   H41       1.0  0.286109921471456  0.8170398231061475  0.5885081184093748  1.0000
  H   H42       1.0  0.31405320868603775  0.8278139528056963  0.5505372473148094  1.0000
  H   H43       1.0  0.3515159743998119  0.8087462407311756  0.6345763762651547  1.0000
  H   H44       1.0  0.3237437178550719  0.7987999812363152  0.672639550538251  1.0000
  C   C67       1.0  0.24147644316239583  0.8289674187702417  0.4922063085948725  1.0000
  C   C68       1.0  0.23820707414415754  0.8500775086015722  0.4619119678465322  1.0000
  C   C69       1.0  0.25094773294238654  0.8465940413965606  0.43450116233178815  1.0000
  C   C70       1.0  0.2670284676306268  0.8220874126100917  0.4374269856570439  1.0000
  C   C71       1.0  0.27020012639032925  0.8006939271455459  0.46754598393261393  1.0000
  C   C72       1.0  0.25747831172242974  0.8042210981295138  0.49486836051099053  1.0000
  H   H45       1.0  0.22586976362280067  0.8693592593279305  0.45974126667025766  1.0000
  H   H46       1.0  0.24849114582483398  0.8634680287311104  0.411396118910422  1.0000
  H   H47       1.0  0.28236948205689094  0.7810199838088089  0.4697237650430634  1.0000
  H   H48       1.0  0.26012978599102554  0.7879294264618519  0.5179655590649862  1.0000
  C   C73       1.0  0.16766473350145283  0.3861188755211278  0.3120409441716402  1.0000
  C   C74       1.0  0.17596637014418515  0.37002572335917383  0.28270070016732785  1.0000
  C   C75       1.0  0.19399525119345004  0.3842228715310464  0.27186817094693505  1.0000
  C   C76       1.0  0.20379309382776684  0.41453440337582337  0.29027729632977967  1.0000
  C   C77       1.0  0.19538726220236047  0.43084535840692256  0.31944812748278373  1.0000
  C   C78       1.0  0.1774350687007133  0.4164757902268544  0.330412184885994  1.0000
  H   H49       1.0  0.1685301322489102  0.3466288382612562  0.2683567900918738  1.0000
  H   H50       1.0  0.2003763994178481  0.37161969494859887  0.2491731064865276  1.0000
  H   H51       1.0  0.20260353503042325  0.45476720703614176  0.3334246876884269  1.0000
  H   H52       1.0  0.17100866379492102  0.42926071772760394  0.352973804024016  1.0000
  C   C79       1.0  0.16356135167472  0.8785660713890143  0.2597739581225763  1.0000
  C   C80       1.0  0.16181651956015747  0.9088765967672567  0.2845650525824284  1.0000
  C   C81       1.0  0.17778389334035008  0.9217589713959864  0.3031716224316043  1.0000
  C   C82       1.0  0.19562489370208014  0.9047242893151621  0.2968256343936337  1.0000
  C   C83       1.0  0.19731864589246634  0.874008382185423  0.2723381697023929  1.0000
  C   C84       1.0  0.18132631617136002  0.8610725010253579  0.25372113250580314  1.0000
  H   H53       1.0  0.1481820450617071  0.9225274277719294  0.28947749979115456  1.0000
  H   H54       1.0  0.17627509750841042  0.944878865720355  0.32258369342254967  1.0000
  H   H55       1.0  0.2109472399584834  0.8605079649061523  0.26733225778438274  1.0000
  H   H56       1.0  0.18278857212113683  0.8378247663471258  0.2343844800816181  1.0000
  C   C85       1.0  0.1250242263709621  0.08137537863718869  0.2861154042377637  1.0000
  C   C86       1.0  0.1220058718476256  0.08130394708748767  0.25104364873288243  1.0000
  C   C87       1.0  0.12700484702278958  0.11571982651211088  0.23163589733821158  1.0000
  C   C88       1.0  0.13436649932621292  0.15075206312978015  0.2474746127617471  1.0000
  C   C89       1.0  0.1370329753503604  0.1510627249139389  0.28261852745320676  1.0000
  C   C90       1.0  0.1325585735428386  0.11627727686733658  0.30187354986774223  1.0000
  H   H57       1.0  0.11576647183937967  0.05487513526952115  0.23876864622611976  1.0000
  H   H58       1.0  0.12477830081861725  0.11551243936858624  0.20448443177885098  1.0000
  H   H59       1.0  0.14303416410180364  0.1778019688566312  0.2948468841954337  1.0000
  H   H60       1.0  0.13513432083259835  0.11640680802080894  0.3289068737542443  1.0000
  C   C91       1.0  0.47709103242753487  0.8969823282650318  0.18407718045864385  1.0000
  C   C92       1.0  0.4773628199673676  0.9283296683245524  0.20821794193110119  1.0000
  C   C93       1.0  0.4616779540301057  0.9337930472812326  0.22986097124890445  1.0000
  C   C94       1.0  0.445932929421488  0.9071783886383626  0.22812247034033475  1.0000
  C   C95       1.0  0.4456950214409894  0.8756145176291777  0.20415880014804558  1.0000
  C   C96       1.0  0.46117868926770716  0.870834108147069  0.18188830688817031  1.0000
  H   H61       1.0  0.48961642820400847  0.9485262539202305  0.21023537255777772  1.0000
  H   H62       1.0  0.46191124273101813  0.9582437148071806  0.24837198058831012  1.0000
  H   H63       1.0  0.4334426232254966  0.8553822390936312  0.20229757715331176  1.0000
  H   H64       1.0  0.4609084468982835  0.8466683905754145  0.16313416160310687  1.0000
  C   C97       1.0  0.5163774084608626  0.38617574128954457  0.19824084185128907  1.0000
  C   C98       1.0  0.5095032443378463  0.4201257673938901  0.21590276304252753  1.0000
  C   C99       1.0  0.49165072292368833  0.4180528908185858  0.23231108219246957  1.0000
  C   C100      1.0  0.4805440196535047  0.3822289994513736  0.23065663081221618  1.0000
  C   C101      1.0  0.4872109709303351  0.3489295903876907  0.21207136277689434  1.0000
  C   C102      1.0  0.5051126972371854  0.3507487888020632  0.19625269237650042  1.0000
  H   H65       1.0  0.518082150173484  0.44776412219372347  0.2174172902089946  1.0000
  H   H66       1.0  0.486711310432103  0.44387311010570574  0.24667845961298493  1.0000
  H   H67       1.0  0.47858785148341465  0.3213621947501964  0.21021981493127365  1.0000
  H   H68       1.0  0.5100171179173829  0.3248051470999117  0.1821226513619776  1.0000
  C   C103      1.0  0.5239218183809644  0.16201123890233018  0.25293977792168404  1.0000
  C   C104      1.0  0.5129367870606026  0.1452013990719323  0.27924826908455896  1.0000
  C   C105      1.0  0.5130255944363759  0.10310145547676353  0.28513998330062507  1.0000
  C   C106      1.0  0.5237555232647475  0.07764764477580166  0.2642328290741097  1.0000
  C   C107      1.0  0.5347520207970287  0.09438844567096494  0.23779534659711987  1.0000
  C   C108      1.0  0.5350437725039087  0.13675639763629355  0.23245069988046543  1.0000
  H   H69       1.0  0.5043007229174028  0.16469877352489815  0.29507198748734315  1.0000
  H   H70       1.0  0.5044751350249685  0.09015692526095487  0.3054793947142495  1.0000
  H   H71       1.0  0.5431352560566459  0.07477456642609148  0.2217042587940296  1.0000
  H   H72       1.0  0.5436691416540677  0.14978720404454957  0.2123575777948012  1.0000
  C   C109      1.0  0.6096503854507592  0.272465249854847  0.34212926992716897  1.0000
  C   C110      1.0  0.5940499228856995  0.26092649709541754  0.3220728747362335  1.0000
  C   C111      1.0  0.5950958228362451  0.2644966537011779  0.2866708204066182  1.0000
  C   C112      1.0  0.6116358268441295  0.2802808285683586  0.27131462787226324  1.0000
  C   C113      1.0  0.6272338594904354  0.29179521142637027  0.2913600725083378  1.0000
  C   C114      1.0  0.6262465852411921  0.2878815989103954  0.32675624750052357  1.0000
  H   H73       1.0  0.581237283321644  0.24873593245248085  0.3339211626410829  1.0000
  H   H74       1.0  0.5831297696055875  0.2548290528951591  0.27133189622341886  1.0000
  H   H75       1.0  0.6400220532005388  0.3042101097803097  0.2795760412008666  1.0000
  H   H76       1.0  0.6382030834568289  0.2975477602128508  0.34214693080573966  1.0000
  C   C115      1.0  0.5882383766103674  0.2540068150212954  0.5634565425557474  1.0000
  C   C116      1.0  0.6017463920126  0.25949505275053697  0.5891424437219269  1.0000
  C   C117      1.0  0.6209561996897999  0.26641107594175834  0.5808528009354234  1.0000
  C   C118      1.0  0.6266492443079846  0.26842390211716105  0.5468524266771421  1.0000
  C   C119      1.0  0.613095784986439  0.2636325990744549  0.5211574330780108  1.0000
  C   C120      1.0  0.5939185033898565  0.25598883958064567  0.5294528266659014  1.0000
  H   H77       1.0  0.5974632529953617  0.2584804053504562  0.6154525203258542  1.0000
  H   H78       1.0  0.6313780018893059  0.27028954983211567  0.6008011830209926  1.0000
  H   H79       1.0  0.6172799901809237  0.2664395612987074  0.49486426438968456  1.0000
  H   H80       1.0  0.5834833180560772  0.2522237994423256  0.5095043425671246  1.0000
  C   C121      1.0  0.498989430054173  0.3420939757812248  0.685021906825157  1.0000
  C   C122      1.0  0.49132777906467734  0.30268078261957343  0.6812818065504038  1.0000
  C   C123      1.0  0.4731514467022988  0.29702367668015933  0.6671378464926628  1.0000
  C   C124      1.0  0.46281305726511535  0.33070858644649714  0.6560552694839439  1.0000
  C   C125      1.0  0.4702272656717755  0.37015039589896415  0.6608056370207321  1.0000
  C   C126      1.0  0.488221239500745  0.37585126096898347  0.6755784421788616  1.0000
  H   H81       1.0  0.49937342284839453  0.27655458888862117  0.6893352602611382  1.0000
  H   H82       1.0  0.46736223714367137  0.26648870103690087  0.6637883106496035  1.0000
  H   H83       1.0  0.4620843040195411  0.39633169743371244  0.653130558857962  1.0000
  H   H84       1.0  0.49403620732810294  0.4064028338363634  0.6787027337801886  1.0000
  C   C127      1.0  0.5671507754371679  0.04439788382967724  0.6564732507822786  1.0000
  C   C128      1.0  0.5472861741072403  0.04489141652766193  0.6594782209940727  1.0000
  C   C129      1.0  0.5383937195095411  0.07687190849230463  0.6766676972403987  1.0000
  C   C130      1.0  0.5493495755630825  0.10860460931577266  0.6905957187759826  1.0000
  C   C131      1.0  0.5692310099391495  0.10848844208587138  0.6871850487947919  1.0000
  C   C132      1.0  0.5781497082995486  0.07635092037964442  0.6700820316817895  1.0000
  H   H85       1.0  0.538709440487095  0.02055640906307943  0.6485453184207322  1.0000
  H   H86       1.0  0.5230080002760622  0.07700699972999403  0.6791115774918759  1.0000
  H   H87       1.0  0.5777813891359366  0.13231855574295298  0.6988543798184779  1.0000
  H   H88       1.0  0.5935429653027139  0.07558741923224832  0.6684149919852626  1.0000
  C   C133      1.0  0.47069119004576815  0.9008209605505715  0.6591280392209327  1.0000
  C   C134      1.0  0.47390518833245493  0.8711016294623011  0.6838191575340168  1.0000
  C   C135      1.0  0.46056730568012866  0.8392495449972565  0.6887286298026767  1.0000
  C   C136      1.0  0.4443354801901871  0.836336015035353  0.6682454742438267  1.0000
  C   C137      1.0  0.4412056491139308  0.8660423191570803  0.6434862054817277  1.0000
  C   C138      1.0  0.4542040637847453  0.8985603210413167  0.6393173848567649  1.0000
  H   H89       1.0  0.4865066463880741  0.8730288361054431  0.6995182964764233  1.0000
  H   H90       1.0  0.46297089745645004  0.8165938279399851  0.7081705127760881  1.0000
  H   H91       1.0  0.428683648210887  0.8645703264815273  0.627831506724709  1.0000
  H   H92       1.0  0.4516706111313432  0.9216853905918545  0.6203233373809063  1.0000
  C   C139      1.0  0.6147438047293133  0.9577129388229414  0.3074648017903173  1.0000
  C   C140      1.0  0.6109109329881032  0.9778681406161569  0.2770180356408588  1.0000
  C   C141      1.0  0.6025535875414809  0.9565579609469137  0.2498944729648447  1.0000
  C   C142      1.0  0.5980955186052022  0.9149745197725058  0.2530253543796789  1.0000
  C   C143      1.0  0.6028503723735116  0.8943207424718973  0.28280731809939513  1.0000
  C   C144      1.0  0.6110276391443094  0.9157550760920539  0.3101192750889417  1.0000
  H   H93       1.0  0.6140239572663343  0.010179501113497746  0.2746277295651326  1.0000
  H   H94       1.0  0.5996836586925208  0.9723183100316138  0.22648508914673632  1.0000
  H   H95       1.0  0.5997173808455005  0.8619952961788624  0.2851515599058715  1.0000
  H   H96       1.0  0.6144824777527648  0.8997357822171866  0.33313045276511205  1.0000
  C   C145      1.0  0.6344690679160156  0.07045900823534068  0.4768050378700096  1.0000
  C   C146      1.0  0.6441401968565944  0.10254763386516297  0.4930426931513036  1.0000
  C   C147      1.0  0.6576896733820395  0.1259429179140119  0.47499773490010494  1.0000
  C   C148      1.0  0.661865363842622  0.11638194510935773  0.4411474226460298  1.0000
  C   C149      1.0  0.6521945321581414  0.0843378729378208  0.4251133064985971  1.0000
  C   C150      1.0  0.63800089100803  0.06256504378802874  0.442534142608724  1.0000
  H   H97       1.0  0.6413850403170863  0.10900095413668631  0.5195253964362424  1.0000
  H   H98       1.0  0.6650811030077454  0.15106367219906178  0.48736941921600385  1.0000
  H   H99       1.0  0.6553495614106501  0.07683283580592826  0.3990056459136038  1.0000
  H   H100      1.0  0.6296893110381738  0.039822508870308804  0.42921974220688763  1.0000
  C   C151      1.0  0.5538412153860359  0.8727317885593927  0.47856573869099167  1.0000
  C   C152      1.0  0.5465788489707013  0.8329728801056953  0.48214714102779976  1.0000
  C   C153      1.0  0.5446820557298577  0.8156272388286384  0.514519052925367  1.0000
  C   C154      1.0  0.5494421408599522  0.8385190705506987  0.5433442833416675  1.0000
  C   C155      1.0  0.5563965673922081  0.8785131758508128  0.5397243710833581  1.0000
  C   C156      1.0  0.5587636383158818  0.895463662860158  0.5073516944260755  1.0000
  H   H101      1.0  0.5430464257976199  0.8151445724546348  0.4598562235399462  1.0000
  H   H102      1.0  0.5396478729946432  0.7844193793126487  0.5171274598724173  1.0000
  H   H103      1.0  0.5605279945478664  0.8961018813558917  0.5617314096746326  1.0000
  H   H104      1.0  0.5643407389800422  0.9262595106121498  0.5046530932506146  1.0000
  C   C157      1.0  0.18305447798990715  0.3827064881291527  0.692937622324694  1.0000
  C   C158      1.0  0.1961965469314592  0.3933178924473149  0.667462225878042  1.0000
  C   C159      1.0  0.21541046078110676  0.4003866988274988  0.6756671785653631  1.0000
  C   C160      1.0  0.2213973873450527  0.39728088749929596  0.7093971891264261  1.0000
  C   C161      1.0  0.20807218034302824  0.38870773425888594  0.7349766455500315  1.0000
  C   C162      1.0  0.18893389153964282  0.381248701397319  0.726735210822269  1.0000
  H   H105      1.0  0.191678668228758  0.39428289824902674  0.6412523641902017  1.0000
  H   H106      1.0  0.22567771677347145  0.4067171238075372  0.6557546950216484  1.0000
  H   H107      1.0  0.21263995499000743  0.386650538365223  0.761117478210394  1.0000
  H   H108      1.0  0.17871965020747532  0.374219654798253  0.7465873901929323  1.0000
  C   C163      1.0  0.03880482637565641  0.303781214357559  0.4067351090433802  1.0000
  C   C164      1.0  0.0449094114631825  0.26525917931436327  0.4169576052182967  1.0000
  C   C165      1.0  0.056814516528984615  0.24229890172952653  0.3960374746179185  1.0000
  C   C166      1.0  0.06279071654397517  0.2576799121088194  0.36464799401090064  1.0000
  C   C167      1.0  0.0564864819868518  0.29592185475392974  0.3538925101092532  1.0000
  C   C168      1.0  0.04441528915214055  0.31895079314925223  0.37492045166678045  1.0000
  H   H109      1.0  0.04063251299650972  0.2530347728873914  0.44118837968141233  1.0000
  H   H110      1.0  0.06171778898651814  0.21294846739087575  0.404698711435994  1.0000
  H   H111      1.0  0.06080109445218752  0.3076476632654695  0.3293618458869754  1.0000
  H   H112      1.0  0.03966830941908461  0.34864866842592196  0.3667695354522846  1.0000
  C   C169      1.0  0.06832071232556669  0.3128259927275554  0.6263949675137622  1.0000
  C   C170      1.0  0.05636264230379684  0.2822922596565649  0.6398885790685279  1.0000
  C   C171      1.0  0.06283213513543484  0.25730174970559494  0.6661979432946337  1.0000
  C   C172      1.0  0.08125337931890762  0.2629125638393894  0.6789916369403517  1.0000
  C   C173      1.0  0.09292898454908198  0.29440766087800774  0.6663818345596747  1.0000
  C   C174      1.0  0.08641189682219563  0.31953285742888915  0.6402738584934963  1.0000
  H   H113      1.0  0.042114937985958445  0.27808033469618765  0.6301563320785751  1.0000
  H   H114      1.0  0.05368585586367325  0.23328968542627243  0.6762411767932787  1.0000
  H   H115      1.0  0.1071661944263845  0.2990415400159125  0.6761329452206779  1.0000
  H   H116      1.0  0.09567352276136254  0.34323916454527126  0.6300082162560123  1.0000
  C   C175      1.0  0.16363061930888323  0.05307617791768049  0.72827798212606  1.0000
  C   C176      1.0  0.15179279197576975  0.08357352239935745  0.715721254859632  1.0000
  C   C177      1.0  0.15821024436862727  0.12437215099919663  0.7151799419612753  1.0000
  C   C178      1.0  0.1766652208811173  0.13425729740778722  0.7261746167872576  1.0000
  C   C179      1.0  0.1886112311827093  0.10357670446565193  0.73788987692328  1.0000
  C   C180      1.0  0.1820092584765105  0.06311722480717896  0.739377695294675  1.0000
  H   H117      1.0  0.13766870198083642  0.07587045690289873  0.7067205198722589  1.0000
  H   H118      1.0  0.14900812490717785  0.1480811089175517  0.7058553984205282  1.0000
  H   H119      1.0  0.20284893053211614  0.1112533407616143  0.746517154402426  1.0000
  H   H120      1.0  0.1911457849511491  0.03964010787475947  0.7492861354280232  1.0000
  C   C181      1.0  0.13562671927507625  0.8466709650719926  0.6425300088611741  1.0000
  C   C182      1.0  0.13930984165688023  0.8438320619469268  0.6772653030035225  1.0000
  C   C183      1.0  0.1560714353032163  0.8256138028185996  0.6886310901266424  1.0000
  C   C184      1.0  0.16939006755481836  0.8107440098176593  0.6653170120528622  1.0000
  C   C185      1.0  0.16577691193913063  0.8136344515186394  0.6305126066612253  1.0000
  C   C186      1.0  0.14876909661733806  0.8311193692024808  0.6191351014319761  1.0000
  H   H121      1.0  0.12910156314189974  0.8550955845502011  0.6954517424497181  1.0000
  H   H122      1.0  0.15880821970248624  0.8233733031188412  0.7155608104904354  1.0000
  H   H123      1.0  0.17604195918785548  0.802407138890754  0.6123611391343199  1.0000
  H   H124      1.0  0.14601257827561587  0.8333694558625284  0.592220232229057  1.0000
  C   C187      1.0  0.05417382043279195  0.86863059027921  0.40857052713585024  1.0000
  C   C188      1.0  0.0681893584760438  0.8933734690534142  0.39330366552102447  1.0000
  C   C189      1.0  0.06829286173326574  0.8989005295111939  0.35799025238212095  1.0000
  C   C190      1.0  0.05455996319644729  0.8792092165695821  0.33789259747242717  1.0000
  C   C191      1.0  0.04059841987233237  0.8543947592154905  0.3532297287256338  1.0000
  C   C192      1.0  0.040293138660526084  0.8494285831378647  0.38853492081095464  1.0000
  H   H125      1.0  0.07863454865824675  0.9091242623668615  0.4088343924008126  1.0000
  H   H126      1.0  0.07872620377615412  0.9191052566120624  0.34653675089112546  1.0000
  H   H127      1.0  0.029914579964150256  0.8391840519788158  0.3378367656990551  1.0000
  H   H128      1.0  0.02923043294778438  0.8309015451972118  0.40034831319214276  1.0000
  C   C193      1.0  0.04705120116163797  0.13355379849264665  0.4752031097755233  1.0000
  C   C194      1.0  0.03205570984911077  0.14559093423043645  0.454302084214766  1.0000
  C   C195      1.0  0.023389869080485015  0.11736905432721301  0.43216690375456696  1.0000
  C   C196      1.0  0.02983784811714907  0.07717574322432097  0.43079820801316904  1.0000
  C   C197      1.0  0.04558200507893573  0.06597392997575136  0.45012160807123913  1.0000
  C   C198      1.0  0.054099593171968996  0.09399392372715631  0.47241719556829065  1.0000
  H   H129      1.0  0.027103357636111713  0.1765174105705688  0.4550418059019767  1.0000
  H   H130      1.0  0.01144988397330815  0.1264727940267476  0.4167321105565484  1.0000
  H   H131      1.0  0.0513343802240851  0.03573768221209739  0.44774047184470644  1.0000
  H   H132      1.0  0.06597154973947172  0.08475751392083652  0.487935018220509  1.0000
  C   C199      1.0  0.03177416879127404  0.011375472828674349  0.5794176944767384  1.0000
  C   C200      1.0  0.036469231949834535  0.012488908072646465  0.6138236747518336  1.0000
  C   C201      1.0  0.05415337044557278  0.02831911989895919  0.6241429719232534  1.0000
  C   C202      1.0  0.06713993292182864  0.04336895321505274  0.6001080515969222  1.0000
  C   C203      1.0  0.06203512018349611  0.044603444299005535  0.5658461218846911  1.0000
  C   C204      1.0  0.044367708101002545  0.028374044612563765  0.5554559603200997  1.0000
  H   H133      1.0  0.026653206933626494  0.999980947559151  0.6325164626837274  1.0000
  H   H134      1.0  0.05781055848297956  0.02840790005292604  0.6507872784079395  1.0000
  H   H135      1.0  0.07197160385624238  0.05680838998074611  0.5472611869261794  1.0000
  H   H136      1.0  0.040562175028885594  0.029161117424163496  0.5289964039503987  1.0000
  C   C205      1.0  0.6607732282514112  0.8700929833703871  0.5046872165634625  1.0000
  C   C206      1.0  0.6558030383170265  0.9077116342147763  0.5188277727188169  1.0000
  C   C207      1.0  0.663892007146321  0.9204894372740354  0.549559379093554  1.0000
  C   C208      1.0  0.6768460047280365  0.8955651424128545  0.5662966211766882  1.0000
  C   C209      1.0  0.681758059118625  0.8579037474660819  0.5522405017574892  1.0000
  C   C210      1.0  0.673831528463699  0.8453103320367235  0.5213085523058014  1.0000
  H   H137      1.0  0.6456750140674107  0.9269518191472376  0.5062312959828431  1.0000
  H   H138      1.0  0.6597655956343452  0.9492120911443698  0.5608169736361401  1.0000
  H   H139      1.0  0.6916142894542445  0.8383181807897492  0.5651884404760411  1.0000
  H   H140      1.0  0.6775598531243388  0.8160149084354186  0.510590674638617  1.0000
  C   C211      1.0  0.6777568602706828  0.748433979971086  0.7589628758083015  1.0000
  C   C212      1.0  0.6822265395394355  0.7151023404939275  0.7382646996659875  1.0000
  C   C213      1.0  0.6845305098126596  0.6762536153780621  0.752639092791909  1.0000
  C   C214      1.0  0.6825900238744468  0.670948104350552  0.7877220625086452  1.0000
  C   C215      1.0  0.6773401373116379  0.7038914260421979  0.8080731903759721  1.0000
  C   C216      1.0  0.6748331489071578  0.7425571530962859  0.7937551314810536  1.0000
  H   H141      1.0  0.6840198155540647  0.719253047433604  0.7112256335245835  1.0000
  H   H142      1.0  0.6884168850274863  0.6507944788899923  0.7367473367673707  1.0000
  H   H143      1.0  0.6755404608339131  0.6994553619102254  0.8350446240474634  1.0000
  H   H144      1.0  0.6713802681241492  0.768142369712852  0.8099057210584406  1.0000
  C   C217      1.0  0.82710320238801  0.7569574909035309  0.8256505429261946  1.0000
  C   C218      1.0  0.8086248718976409  0.763407867103228  0.8379615219571042  1.0000
  C   C219      1.0  0.7936843534049806  0.7366252925496284  0.8289350757654939  1.0000
  C   C220      1.0  0.7971351915627379  0.7039373560055248  0.8069788269824488  1.0000
  C   C221      1.0  0.8153628002018574  0.6987759384893367  0.7933064001197571  1.0000
  C   C222      1.0  0.8303625511303072  0.7248709907427915  0.8029865604089875  1.0000
  H   H145      1.0  0.8059972771575432  0.7884286096837978  0.8552498381104082  1.0000
  H   H146      1.0  0.7795557793525006  0.7412750620267673  0.8390228201331104  1.0000
  H   H147      1.0  0.8180140866486005  0.6739533735419061  0.775821315671037  1.0000
  H   H148      1.0  0.844344594489897  0.7202982665223224  0.7924119321927594  1.0000
  C   C223      1.0  0.9230368013294344  0.8586842223283356  0.5491014441498505  1.0000
  C   C224      1.0  0.9140091902124878  0.8570144095911707  0.517545500302396  1.0000
  C   C225      1.0  0.9239439470981142  0.8687750807632026  0.4880735610304773  1.0000
  C   C226      1.0  0.9428548707428174  0.8828083706137387  0.4901556654056096  1.0000
  C   C227      1.0  0.9514959142091705  0.886692525908171  0.5219216989522496  1.0000
  C   C228      1.0  0.9416313583738752  0.8744945097558845  0.5513217326530745  1.0000
  H   H149      1.0  0.899437536777393  0.8463905546333473  0.5157687803464067  1.0000
  H   H150      1.0  0.9170589402224631  0.8664897824998326  0.46361921738412887  1.0000
  H   H151      1.0  0.965896146220832  0.898353032339117  0.5239221060223819  1.0000
  H   H152      1.0  0.9485893820897122  0.8764496996664031  0.5757424309715062  1.0000
  C   C229      1.0  0.8036445240742931  0.815846614368859  0.5894523086299215  1.0000
  C   C230      1.0  0.7863418228397191  0.836395732708701  0.5869217407626582  1.0000
  C   C231      1.0  0.7741313745167006  0.8390004267813809  0.6150908179789059  1.0000
  C   C232      1.0  0.779234393558692  0.8212519238712792  0.6459263921968318  1.0000
  C   C233      1.0  0.796719460820764  0.8014134683736664  0.6487018948458108  1.0000
  C   C234      1.0  0.8088482931766909  0.7983901611881188  0.6204085827032947  1.0000
  H   H153      1.0  0.7823326049876183  0.8501646257099119  0.5630964455760721  1.0000
  H   H154      1.0  0.7609310435071532  0.8554175084292749  0.6130926935371804  1.0000
  H   H155      1.0  0.8006308544998142  0.7874031058912877  0.6724657925068194  1.0000
  H   H156      1.0  0.8219399886495226  0.7816287142664794  0.6223492512193443  1.0000
  C   C235      1.0  0.8820450292459892  0.6916173918074352  0.68618294401982  1.0000
  C   C236      1.0  0.8819959734843947  0.6692462830309703  0.7163462440304037  1.0000
  C   C237      1.0  0.89624272205739  0.6761915998092571  0.7405029831123736  1.0000
  C   C238      1.0  0.910428003301867  0.7058073975542517  0.7347818271959379  1.0000
  C   C239      1.0  0.9110746357729924  0.7267100868441632  0.70384459936283  1.0000
  C   C240      1.0  0.8968087211889503  0.7197365446703218  0.679565993717653  1.0000
  H   H157      1.0  0.8706669501484555  0.6472906914905804  0.7214343210360433  1.0000
  H   H158      1.0  0.8960417964321764  0.6591332714318994  0.763859708971232  1.0000
  H   H159      1.0  0.9220618704277134  0.7496289280014686  0.6993009735324027  1.0000
  H   H160      1.0  0.8969341907120087  0.7371684064193841  0.6563157449576777  1.0000
  C   C241      1.0  0.7874874193015079  0.508091617329129  0.9279010003889252  1.0000
  C   C242      1.0  0.789802465493355  0.5312470382773852  0.9575065360951777  1.0000
  C   C243      1.0  0.7768931613906929  0.562319411652617  0.9653158643882715  1.0000
  C   C244      1.0  0.7618089870840186  0.5705077424150472  0.9433123284810718  1.0000
  C   C245      1.0  0.7593397204728644  0.5468481060711771  0.9141121662960183  1.0000
  C   C246      1.0  0.7721624642037247  0.5157993952179005  0.9063598172102222  1.0000
  H   H161      1.0  0.8016146944026409  0.5253079283302675  0.974288834802193  1.0000
  H   H162      1.0  0.7788288038342144  0.5804963108111171  0.9880169477163806  1.0000
  H   H163      1.0  0.7474628294782975  0.552219550689565  0.8975340677140321  1.0000
  H   H164      1.0  0.7703393203744335  0.4984503453217491  0.8832972109380572  1.0000
  C   C247      1.0  0.6969078736021496  0.4462403556678413  0.48688406780333265  1.0000
  C   C248      1.0  0.6986009977623264  0.4579765602140756  0.4528846448775785  1.0000
  C   C249      1.0  0.6990521176947354  0.4282900387635978  0.42727547243304537  1.0000
  C   C250      1.0  0.6970609847333008  0.38698481083921105  0.43561957270211843  1.0000
  C   C251      1.0  0.6951855473237203  0.3752602084569254  0.4696195008507068  1.0000
  C   C252      1.0  0.6954937286874417  0.40485307155958117  0.4952968614301354  1.0000
  H   H165      1.0  0.6996828089851048  0.49002286166447384  0.4463683532922242  1.0000
  H   H166      1.0  0.7004363780363512  0.43736375354279805  0.4009762786026395  1.0000
  H   H167      1.0  0.6937317417793497  0.3433273009818435  0.47615742674543116  1.0000
  H   H168      1.0  0.6943448942245581  0.39562533543541745  0.5215009479972392  1.0000
  C   C253      1.0  0.739558497891605  0.6071969148846363  0.6199146824112822  1.0000
  C   C254      1.0  0.7434621670712899  0.646233921438068  0.6327681312530876  1.0000
  C   C255      1.0  0.731705317010305  0.6788934152006398  0.6243461895905003  1.0000
  C   C256      1.0  0.7162797463557172  0.6727849870794825  0.6024434731488894  1.0000
  C   C257      1.0  0.7129603553479038  0.6341748153521559  0.5882833009415586  1.0000
  C   C258      1.0  0.7245468989732473  0.6013536630479354  0.5971173439437972  1.0000
  H   H169      1.0  0.7553311691597249  0.6510895336599228  0.6498252281959733  1.0000
  H   H170      1.0  0.7347902333056086  0.7088692442221611  0.6344317665132967  1.0000
  H   H171      1.0  0.7012322724192283  0.6294654109474045  0.5708687029932777  1.0000
  H   H172      1.0  0.7217669154867408  0.5715644436704691  0.5862960459219804  1.0000
  C   C259      1.0  0.7051994219631207  0.4216754855976807  0.7135288883738039  1.0000
  C   C260      1.0  0.7247508379180236  0.41628799641518466  0.7179529550493955  1.0000
  C   C261      1.0  0.7337075575550975  0.4304593493414909  0.7474048635579443  1.0000
  C   C262      1.0  0.723078607430247  0.44951519586177396  0.7727593337995377  1.0000
  C   C263      1.0  0.703340423301294  0.45346677790997514  0.7690045780794397  1.0000
  C   C264      1.0  0.694387712234082  0.43958250922757247  0.7393196161695774  1.0000
  H   H173      1.0  0.7330575889699533  0.4014178115755194  0.6985073955238106  1.0000
  H   H174      1.0  0.748982122263693  0.42819947742890163  0.7497200189084614  1.0000
  H   H175      1.0  0.6950781577309485  0.4684266082627194  0.788526874170881  1.0000
  H   H176      1.0  0.679266732025966  0.4441236967485543  0.735839242621147  1.0000
  C   C265      1.0  0.9257442656103333  0.5210040581816886  0.8902412690530809  1.0000
  C   C266      1.0  0.9269478304742619  0.5609594704146794  0.9027058749909447  1.0000
  C   C267      1.0  0.911495643751277  0.587259162077131  0.8992013409800449  1.0000
  C   C268      1.0  0.8947000360941739  0.573318851306378  0.8838606959741951  1.0000
  C   C269      1.0  0.8931723793181738  0.532849903994247  0.872737043261182  1.0000
  C   C270      1.0  0.9087681417245059  0.5067894923842456  0.875618082687878  1.0000
  H   H177      1.0  0.9400213488158545  0.5719364763076976  0.9142870986289442  1.0000
  H   H178      1.0  0.91259030780458  0.6182876175208725  0.9084735277242972  1.0000
  H   H179      1.0  0.8802285188639202  0.5223180234087831  0.8605829725038198  1.0000
  H   H180      1.0  0.9076854754467711  0.4758016185727246  0.866503580526572  1.0000
  C   C271      1.0  0.8782431473964623  0.3525974807858591  0.8005274097726123  1.0000
  C   C272      1.0  0.8604212177658733  0.3347041844233278  0.8076132051611676  1.0000
  C   C273      1.0  0.8437299686406746  0.35216950730440805  0.7950594009123167  1.0000
  C   C274      1.0  0.844839520321809  0.3871481821843549  0.7748131451510255  1.0000
  C   C275      1.0  0.8626918235691969  0.4041683268433784  0.766604209305309  1.0000
  C   C276      1.0  0.8793578084187207  0.3871717372312026  0.7797860986344639  1.0000
  H   H181      1.0  0.859494824351941  0.30764015648790816  0.8232980862643517  1.0000
  H   H182      1.0  0.8300114674488476  0.33826846420804807  0.8007661519620985  1.0000
  H   H183      1.0  0.8636344600245038  0.43111970558320706  0.7507977252124538  1.0000
  H   H184      1.0  0.8930135979206676  0.40097942114502644  0.7740391031678602  1.0000
  C   C277      1.0  0.9309019387811763  0.30478607497926624  0.5039948675075177  1.0000
  C   C278      1.0  0.9284265468282763  0.3028944952284118  0.539199946385935  1.0000
  C   C279      1.0  0.9421933647833681  0.284221925938957  0.5594021818666063  1.0000
  C   C280      1.0  0.9586858331779735  0.2685632804673377  0.5445367126683358  1.0000
  C   C281      1.0  0.9608190798008255  0.2691699748154856  0.5092428715671548  1.0000
  C   C282      1.0  0.9468028947597643  0.2867943176855381  0.48893006692663016  1.0000
  H   H185      1.0  0.9158731091863282  0.31580384577190307  0.5508293228417191  1.0000
  H   H186      1.0  0.9402636774313811  0.28280420660063765  0.586527264036147  1.0000
  H   H187      1.0  0.9733053967980551  0.25644826393847725  0.4974877482893975  1.0000
  H   H188      1.0  0.9486342902385271  0.2878359158828935  0.4616584437156679  1.0000
  C   C283      1.0  0.9167619577297693  0.5655760894083617  0.5243765261742572  1.0000
  C   C284      1.0  0.9026016853862808  0.5620027172612059  0.49962232905702647  1.0000
  C   C285      1.0  0.8918941394769174  0.5960888685060927  0.4905000295023834  1.0000
  C   C286      1.0  0.8948196798375416  0.6335294311442515  0.5069209848031843  1.0000
  C   C287      1.0  0.908859516131613  0.6370256912486468  0.5319266253664514  1.0000
  C   C288      1.0  0.920019194062122  0.6032585187857906  0.5402738224743495  1.0000
  H   H189      1.0  0.9000478930612469  0.5330986089159054  0.48709634562239107  1.0000
  H   H190      1.0  0.8811262303432431  0.5932109303477465  0.4710073506404961  1.0000
  H   H191      1.0  0.9113075076027247  0.6656848237556854  0.5446921937447564  1.0000
  H   H192      1.0  0.9308582616737224  0.60603445936213  0.5596398222147513  1.0000
  C   C289      1.0  0.823284292621849  0.4433147358415716  0.5268678463599848  1.0000
  C   C290      1.0  0.8228973045621681  0.4008357324173109  0.5305393694764918  1.0000
  C   C291      1.0  0.8074088256502668  0.38153093609250105  0.5468283212475872  1.0000
  C   C292      1.0  0.7924857744150198  0.4047909349657793  0.5599236766016351  1.0000
  C   C293      1.0  0.7933097078149165  0.44731589604834315  0.5574043602541002  1.0000
  C   C294      1.0  0.8084646077484114  0.46651722508034893  0.5402477546248763  1.0000
  H   H193      1.0  0.8342188080002186  0.38276064902429247  0.5198255285639584  1.0000
  H   H194      1.0  0.8068923158869639  0.3485778279458906  0.5488360515225109  1.0000
  H   H195      1.0  0.7823618538452787  0.4655719757311574  0.5687583943825023  1.0000
  H   H196      1.0  0.8087739497285815  0.49939260272391683  0.5375925094958082  1.0000
  C   C295      1.0  0.9022739721062567  0.41154350414128743  0.6608535072435634  1.0000
  C   C296      1.0  0.9041211939882042  0.399163494357896  0.6945563835362892  1.0000
  C   C297      1.0  0.9188942003580676  0.41524163095097366  0.714489127869927  1.0000
  C   C298      1.0  0.9317546071016288  0.4438736414745408  0.7009082662878097  1.0000
  C   C299      1.0  0.9294661449976581  0.45754438238789574  0.6675873880953151  1.0000
  C   C300      1.0  0.914694755986586  0.4413741362991697  0.64752170958574  1.0000
  H   H197      1.0  0.8945199095975406  0.37617776545642806  0.7049736822360847  1.0000
  H   H198      1.0  0.9206309950558368  0.40449885179498996  0.7400965643639892  1.0000
  H   H199      1.0  0.9393776643262702  0.47978745991102323  0.6570015940016352  1.0000
  H   H200      1.0  0.9132627053524789  0.45131355972304443  0.6215419764223999  1.0000
  C   C301      1.0  0.09504306468836175  0.30602130235557706  0.091178194849876  1.0000
  C   C302      1.0  0.10921145519641927  0.30742387499445206  0.11604272870297971  1.0000
  C   C303      1.0  0.10464367137450879  0.3187641330007419  0.14940991048602356  1.0000
  C   C304      1.0  0.08601395411123763  0.3298806519679365  0.15773099734956128  1.0000
  C   C305      1.0  0.07198755406704553  0.32978043882888547  0.13257967533685644  1.0000
  C   C306      1.0  0.07645432346285186  0.3173860522361627  0.09946683217069308  1.0000
  H   H201      1.0  0.12367004861611944  0.2990393027932232  0.10968079883624715  1.0000
  H   H202      1.0  0.11560373322973863  0.31936301110241866  0.16855412053058114  1.0000
  H   H203      1.0  0.05757483883634329  0.33847647834737665  0.13895467377449294  1.0000
  H   H204      1.0  0.06554638276539926  0.3169483755553458  0.08038005965089612  1.0000
  C   C307      1.0  0.009384685142572513  0.31890600643013084  0.9424095476491507  1.0000
  C   C308      1.0  0.997094287128385  0.34960600981312845  0.9317661908445485  1.0000
  C   C309      1.0  0.9927035443077418  0.3538430647330346  0.8972631728951274  1.0000
  C   C310      1.0  0.0004385122346706183  0.32713613573186023  0.8733116670264093  1.0000
  C   C311      1.0  0.0129675558293747  0.296769120479985  0.8838973786521349  1.0000
  C   C312      1.0  0.01751924806981431  0.29278218134277556  0.9183926336506913  1.0000
  H   H205      1.0  0.9908386663677687  0.3699937814059982  0.9502055373341042  1.0000
  H   H206      1.0  0.9833304676544329  0.37785471363280587  0.8892619625381768  1.0000
  H   H207      1.0  0.01879709123078266  0.2757028097522547  0.8655769177921891  1.0000
  H   H208      1.0  0.0270166336065214  0.26898874811788476  0.9264223187078018  1.0000
  C   C313      1.0  0.09072001395707267  0.21533022709349792  0.8901603786748663  1.0000
  C   C314      1.0  0.10194719376540745  0.24215666317703222  0.9094528541556004  1.0000
  C   C315      1.0  0.11605670457473535  0.2663165808613307  0.8936242180214122  1.0000
  C   C316      1.0  0.11889706011367664  0.26377890427284517  0.8585219812830961  1.0000
  C   C317      1.0  0.10744413524142539  0.23729530947108238  0.8392627657207359  1.0000
  C   C318      1.0  0.09350353574714126  0.21281579254098  0.8550907378418298  1.0000
  H   H209      1.0  0.09999925385301858  0.24390748653287042  0.9366440640764565  1.0000
  H   H210      1.0  0.12485036667357002  0.286832961067879  0.9086286440332304  1.0000
  H   H211      1.0  0.10901221433465796  0.23629758557270505  0.8121195824296646  1.0000
  H   H212      1.0  0.08462799495659344  0.1924922593274488  0.8401063009951246  1.0000
  C   C319      1.0  0.06340992736967754  0.8988887369810321  0.0812363111515344  1.0000
  C   C320      1.0  0.06163764514317859  0.8911175192159504  0.11605748175435049  1.0000
  C   C321      1.0  0.06844011504730906  0.9197100222157527  0.13981662234521214  1.0000
  C   C322      1.0  0.07728518078339554  0.9559200485539493  0.12883810614592187  1.0000
  C   C323      1.0  0.07893862871514662  0.963833599110692  0.09405167572997987  1.0000
  C   C324      1.0  0.07210937562282194  0.9352876439716976  0.07030183563145664  1.0000
  H   H213      1.0  0.05488042648481284  0.8630439221571405  0.12463739206049951  1.0000
  H   H214      1.0  0.06664442691990298  0.9138596285508156  0.16658017487954896  1.0000
  H   H215      1.0  0.08587965732257885  0.9916757435500052  0.0854338681252318  1.0000
  H   H216      1.0  0.07421616744326243  0.9408565294639395  0.0435892245599272  1.0000
  C   C325      1.0  0.987400580153133  0.8074547625587596  0.9098556388867465  1.0000
  C   C326      1.0  0.9753035934421537  0.7942188761710031  0.8837234998884466  1.0000
  C   C327      1.0  0.9563388413046716  0.7827142027955026  0.890868827491651  1.0000
  C   C328      1.0  0.9495098426307645  0.7841038070271728  0.9242333330822026  1.0000
  C   C329      1.0  0.9617997367664508  0.7960553049818117  0.9504829077500409  1.0000
  C   C330      1.0  0.980700982778601  0.8078491748277395  0.9433013440071286  1.0000
  H   H217      1.0  0.9804467510675973  0.7936746252320032  0.857813214573602  1.0000
  H   H218      1.0  0.9469135028414435  0.7735119918869651  0.8704974257351921  1.0000
  H   H219      1.0  0.9565952797568317  0.7966243864249237  0.9763675031240274  1.0000
  H   H220      1.0  0.9901001045689808  0.8169792909187377  0.9636655936165589  1.0000
  C   C331      1.0  0.008216100755808142  0.03691402806991273  0.008867672505844526  1.0000
  C   C332      1.0  0.003867187833858088  0.07809638226590754  0.004128055084628768  1.0000
  C   C333      1.0  0.013902508215273945  0.108516115196448  0.02207640102249475  1.0000
  C   C334      1.0  0.02821354643621876  0.09770982565528087  0.04489089084205222  1.0000
  C   C335      1.0  0.031850953967009765  0.05645724659039364  0.05089806293232657  1.0000
  C   C336      1.0  0.021924785596803664  0.026106899721983767  0.03278158088905481  1.0000
  H   H221      1.0  0.9931969409148965  0.08660812634805826  0.9857960988279337  1.0000
  H   H222      1.0  0.010786829580199608  0.1403445393699785  0.01784315839509021  1.0000
  H   H223      1.0  0.04273161184318419  0.047926227209056815  0.06885753957196772  1.0000
  H   H224      1.0  0.024897163339872685  0.9943110069299111  0.0374244660539258  1.0000
  C   C337      1.0  0.07577455912163025  0.9652956380954725  0.8648001545671088  1.0000
  C   C338      1.0  0.057059494799111876  0.9703936543137676  0.8538210219487397  1.0000
  C   C339      1.0  0.05298334234017599  0.9716678327930757  0.8191780392705975  1.0000
  C   C340      1.0  0.06765546034770042  0.9684890942308236  0.7952888694854626  1.0000
  C   C341      1.0  0.08658036371293032  0.9656699212975128  0.8060875720279076  1.0000
  C   C342      1.0  0.0906363210907999  0.9640880115270483  0.8409413682115204  1.0000
  H   H225      1.0  0.04562260762619563  0.973170221144348  0.8718365305259331  1.0000
  H   H226      1.0  0.038365718065851206  0.9743966359348798  0.8108321137587555  1.0000
  H   H227      1.0  0.09796650411055181  0.9631022131118036  0.7876400229597702  1.0000
  H   H228      1.0  0.10517106742740105  0.9602201160769404  0.8493403272941201  1.0000
  C   C343      1.0  0.5651138860370861  0.9578110778022891  0.018767758014126557  1.0000
  C   C344      1.0  0.5503689475512683  0.9515120737157332  0.04227725532081372  1.0000
  C   C345      1.0  0.5489321143172694  0.976661945284508  0.07088787503344873  1.0000
  C   C346      1.0  0.5620821820813814  0.008524955156651082  0.0757915970053824  1.0000
  C   C347      1.0  0.5762361037336632  0.016293807992398213  0.05140615887495925  1.0000
  C   C348      1.0  0.5779505701258933  0.9904913863450057  0.023129733295610855  1.0000
  H   H229      1.0  0.5403934923753997  0.9263111907095513  0.0389118191688953  1.0000
  H   H230      1.0  0.5377163859564077  0.9710562155573761  0.08928864271254477  1.0000
  H   H231      1.0  0.586427167456085  0.040971488966517366  0.0551745654597715  1.0000
  H   H232      1.0  0.589412698901171  0.9953852578326796  0.005154705529085923  1.0000
  C   C349      1.0  0.6599180494525495  0.8113069917903541  0.902171258046742  1.0000
  C   C350      1.0  0.6665121346762759  0.7747918039756739  0.888282680990075  1.0000
  C   C351      1.0  0.6860380455215839  0.7693416171966206  0.8828589211411155  1.0000
  C   C352      1.0  0.6991103006295131  0.7998589068558425  0.8918626959049717  1.0000
  C   C353      1.0  0.6926002260222741  0.8366045192835655  0.905596896572235  1.0000
  C   C354      1.0  0.6729646169477699  0.8423754443226276  0.9107101041628198  1.0000
  H   H233      1.0  0.6565239645542408  0.7505909752167857  0.8817283206631567  1.0000
  H   H234      1.0  0.6910511373305693  0.7412984737634348  0.8720039168522713  1.0000
  H   H235      1.0  0.7026986713085852  0.8603426269507807  0.912730821488265  1.0000
  H   H236      1.0  0.6679786222377431  0.8704962237729778  0.921810243321015  1.0000
  C   C355      1.0  0.5922500545219164  0.9510815646446692  0.8124801668457007  1.0000
  C   C356      1.0  0.5783097167231144  0.9265435844856597  0.8280401708711084  1.0000
  C   C357      1.0  0.5674860956089353  0.8988147226442372  0.8088089861228546  1.0000
  C   C358      1.0  0.5699820613052116  0.896700706748659  0.7736640111267112  1.0000
  C   C359      1.0  0.5834324625883386  0.9222918387935332  0.7577379404471442  1.0000
  C   C360      1.0  0.594710342342286  0.9491913581435153  0.777218024786461  1.0000
  H   H237      1.0  0.575511360859953  0.9294661403554305  0.8548424840040322  1.0000
  H   H238      1.0  0.5569291171313562  0.8794037984116996  0.8211403376682971  1.0000
  H   H239      1.0  0.5854302357100041  0.9206852766728942  0.7305203783593656  1.0000
  H   H240      1.0  0.605430253284924  0.9682212843452986  0.7649631737990839  1.0000
  C   C361      1.0  0.5856569822515791  0.28243787413683547  0.9981686104476412  1.0000
  C   C362      1.0  0.5823247471552399  0.303131775429588  0.02869207793628492  1.0000
  C   C363      1.0  0.5758725376706229  0.2816779519338718  0.05746362576550967  1.0000
  C   C364      1.0  0.5725235970537979  0.23954667733680127  0.05566694304909747  1.0000
  C   C365      1.0  0.5750083811230989  0.2191856919026285  0.024704145183693793  1.0000
  C   C366      1.0  0.5816618570397133  0.24053966936495585  0.9960526890066687  1.0000
  H   H241      1.0  0.5851616499793003  0.33564289267921754  0.030310253202808557  1.0000
  H   H242      1.0  0.5736240554266978  0.2978179304809918  0.08098107834693424  1.0000
  H   H243      1.0  0.5721340427448386  0.18670547451133188  0.022974485184152234  1.0000
  H   H244      1.0  0.5836613907778279  0.22459086477159448  0.9723194908660221  1.0000
  C   C367      1.0  0.6966051342133702  0.31729277017520696  0.8627880191611776  1.0000
  C   C368      1.0  0.7085103638806203  0.34179423854267565  0.8424978894002783  1.0000
  C   C369      1.0  0.7282304292942879  0.335828048816171  0.8421835629106174  1.0000
  C   C370      1.0  0.7361988040375836  0.30494104317121085  0.8618354831647733  1.0000
  C   C371      1.0  0.7242526847146558  0.27974440160870634  0.8815729357451035  1.0000
  C   C372      1.0  0.7044589904116043  0.28608949543226997  0.8822432769102414  1.0000
  H   H245      1.0  0.7025530005600613  0.3656306092154436  0.8270844978983348  1.0000
  H   H246      1.0  0.7372608759687965  0.35525144138524023  0.8267071423063951  1.0000
  H   H247      1.0  0.7303635064936627  0.25587489871951613  0.8968827795773591  1.0000
  H   H248      1.0  0.6953769973029603  0.2670971136644025  0.8980909490966873  1.0000
  C   C373      1.0  0.6648055072620237  0.1304923897519925  0.9866558314510575  1.0000
  C   C374      1.0  0.6772316349149304  0.10580782850427628  0.004789117703654089  1.0000
  C   C375      1.0  0.6751093745067517  0.06329013431568731  0.0037090266528065907  1.0000
  C   C376      1.0  0.6603880550279079  0.04522155038010145  0.9848883501186027  1.0000
  C   C377      1.0  0.6475759949075346  0.0698531667643354  0.9674247941074238  1.0000
  C   C378      1.0  0.6498984080604628  0.1125551435172083  0.9680471323272639  1.0000
  H   H249      1.0  0.6887513314564034  0.11953433435094896  0.01922573584564269  1.0000
  H   H250      1.0  0.6850246396224818  0.04431625171770537  0.01727124140891112  1.0000
  H   H251      1.0  0.6360458892575593  0.05601590244093568  0.9532290728224688  1.0000
  H   H252      1.0  0.6401724382525099  0.13143487237552165  0.9541787255996467  1.0000
  C   C379      1.0  0.6151434587585869  0.19538452016675098  0.8093683075436603  1.0000
  C   C380      1.0  0.6018241728007112  0.18675493871181317  0.7839833933119821  1.0000
  C   C381      1.0  0.6004213301025605  0.21280713009721874  0.7559240504779328  1.0000
  C   C382      1.0  0.6123798216168773  0.24727860119968634  0.7533105446317057  1.0000
  C   C383      1.0  0.6260286445962827  0.25507169949580355  0.7782068085088778  1.0000
  C   C384      1.0  0.6275891063099921  0.22886228985776205  0.8059821513080557  1.0000
  H   H253      1.0  0.5921691360996039  0.16087234830677102  0.7865323489877765  1.0000
  H   H254      1.0  0.5898704250973107  0.20649971631847625  0.7366758186398136  1.0000
  H   H255      1.0  0.6348753191006067  0.28221526948156567  0.7766634547859256  1.0000
  H   H256      1.0  0.6382179488975643  0.23507521467945836  0.8251217614004055  1.0000
  N   N1        1.0  0.18315586310936638  0.040370106469967526  0.2655451095791228  1.0000
  C   C385      1.0  0.19080260889415196  0.04896703889422471  0.23123645322894149  1.0000
  C   C386      1.0  0.1782398132050991  0.07918323692505314  0.28239776590508314  1.0000
  C   C387      1.0  0.1976722374694501  0.0189625883405371  0.28568579870449384  1.0000
  C   C388      1.0  0.16583758509676302  0.01438900999088899  0.26273047956598683  1.0000
  H   H257      1.0  0.19466378370403872  0.02026069798569563  0.21782984341066847  1.0000
  H   H258      1.0  0.20384520471614023  0.06868963747712598  0.2323705038170094  1.0000
  H   H259      1.0  0.18015043683985177  0.06500032346277496  0.21532666863509542  1.0000
  H   H260      1.0  0.1678433731608  0.09668775325278078  0.26709092366162235  1.0000
  H   H261      1.0  0.17160588734004611  0.07371141646353419  0.30776177419412143  1.0000
  H   H262      1.0  0.1910368517528115  0.09913924173155819  0.2860332308726541  1.0000
  H   H263      1.0  0.19237987843787674  0.011651216153480748  0.3116895897651464  1.0000
  H   H264      1.0  0.2109682090580732  0.03757066239805695  0.2884446979023443  1.0000
  H   H265      1.0  0.2017281865271643  0.9895347000277366  0.27361610633063593  1.0000
  H   H266      1.0  0.1689330875483155  0.9848447907634824  0.24998706868611498  1.0000
  H   H267      1.0  0.15458139630661571  0.029782414212189412  0.24784699565325874  1.0000
  H   H268      1.0  0.1595928254370153  0.0072505934744342415  0.28813309430117284  1.0000
  N   N2        1.0  0.12134450294199353  0.858257423093329  0.1344046130265204  1.0000
  C   C389      1.0  0.10720862777397162  0.8351234099185114  0.15494576450237307  1.0000
  C   C390      1.0  0.1237773824220042  0.8998132423932609  0.14854843678168428  1.0000
  C   C391      1.0  0.11456464862504294  0.861022307119017  0.09901759333938909  1.0000
  C   C392      1.0  0.1398193950707318  0.8371115186913538  0.13524396015042073  1.0000
  H   H269      1.0  0.11188637711259863  0.8324874154742715  0.18184937294464398  1.0000
  H   H270      1.0  0.10495403567274963  0.8036465422803216  0.14494946324597024  1.0000
  H   H271      1.0  0.09308176023309898  0.8502512022062089  0.15492760854469978  1.0000
  H   H272      1.0  0.1291940012687002  0.898961566799671  0.17501414468712362  1.0000
  H   H273      1.0  0.13396627875966874  0.9185741988917788  0.13324876410424769  1.0000
  H   H274      1.0  0.11003999998646737  0.9162839531656732  0.14916200963902138  1.0000
  H   H275      1.0  0.10082307644430204  0.8774991907174804  0.09762639165902987  1.0000
  H   H276      1.0  0.11207569295947105  0.8302701643635741  0.08767675866324143  1.0000
  H   H277      1.0  0.12493313897339899  0.8778789235313429  0.08260362164655888  1.0000
  H   H278      1.0  0.1452194732923615  0.8345880706025847  0.16174704178608956  1.0000
  H   H279      1.0  0.1508794757991845  0.8538430422049261  0.12019741135487183  1.0000
  H   H280      1.0  0.1385349266700934  0.8056193981933981  0.12477680519819945  1.0000
  N   N3        1.0  0.8607327452446617  0.8061259106936112  0.730281540391169  1.0000
  C   C393      1.0  0.8456055513331049  0.7776956477145376  0.7183904789517821  1.0000
  C   C394      1.0  0.8718083547949268  0.8214495410351254  0.7008179874491222  1.0000
  C   C395      1.0  0.8735748180851479  0.7845431514361335  0.7536216305032575  1.0000
  C   C396      1.0  0.8519542796552381  0.8407402216419211  0.7483415688725861  1.0000
  H   H281      1.0  0.8367887209463346  0.7659458891424238  0.7398895632935183  1.0000
  H   H282      1.0  0.8517463401156519  0.7507726116761448  0.7052184656299674  1.0000
  H   H283      1.0  0.8358716207708802  0.7927386300778778  0.7001582410364806  1.0000
  H   H284      1.0  0.8834862613674938  0.8427053331782582  0.7087621126721155  1.0000
  H   H285      1.0  0.8785347162343858  0.7959533640088402  0.6866450856527098  1.0000
  H   H286      1.0  0.8626107768819279  0.8380351280975374  0.6826280099480121  1.0000
  H   H287      1.0  0.8857565022207803  0.8042967196401148  0.7618220738022715  1.0000
  H   H288      1.0  0.8795940069974623  0.7569801817342353  0.7415102117595751  1.0000
  H   H289      1.0  0.8659483263795658  0.7743017966732516  0.7768961414266121  1.0000
  H   H290      1.0  0.8629872858869314  0.8625669567899833  0.7579375173138366  1.0000
  H   H291      1.0  0.8435074242137767  0.8300220756759124  0.7707514901614925  1.0000
  H   H292      1.0  0.8421740785168432  0.8578263370807027  0.7315148147483399  1.0000
  N   N4        1.0  0.06390496062461182  0.30671895630791307  0.7947039943900737  1.0000
  C   C397      1.0  0.08065632073793945  0.32067347272570385  0.8144812600399127  1.0000
  C   C398      1.0  0.06253304609905497  0.26166288665289056  0.7957863688007503  1.0000
  C   C399      1.0  0.06605446578132401  0.3201682432419407  0.7590648977133316  1.0000
  C   C400      1.0  0.04639876669548304  0.3242362509411524  0.8095055339586731  1.0000
  H   H293      1.0  0.08197916175325184  0.3545623292705687  0.8147834874487054  1.0000
  H   H294      1.0  0.09417731383212945  0.30873026553304195  0.8036753456206102  1.0000
  H   H295      1.0  0.07979025770609219  0.3101063205147146  0.8413263491219998  1.0000
  H   H296      1.0  0.07552092909861284  0.2474669943077238  0.7847577722698603  1.0000
  H   H297      1.0  0.06083235075548643  0.2504185728368064  0.8223120273847793  1.0000
  H   H298      1.0  0.05010001948421339  0.25006644875988754  0.7809935537095753  1.0000
  H   H299      1.0  0.05369253926139361  0.31008474225059385  0.7433637739613616  1.0000
  H   H300      1.0  0.07906822380172739  0.3071852410845329  0.7471305152659151  1.0000
  H   H301      1.0  0.06728114115467959  0.354000745151116  0.7571639758074463  1.0000
  H   H302      1.0  0.046640510416177124  0.35818754518250145  0.8084170331856425  1.0000
  H   H303      1.0  0.044598256792892865  0.3154835437912228  0.8366307753401153  1.0000
  H   H304      1.0  0.03334184561013975  0.31350920327675613  0.795946823539948  1.0000
  N   N5        1.0  0.6285416040967988  0.1439880321394665  0.34160258089714945  1.0000
  C   C401      1.0  0.6492818759700771  0.14229880499867845  0.33492978858256045  1.0000
  C   C402      1.0  0.6252003950602912  0.16502184578330764  0.37423725391239665  1.0000
  C   C403      1.0  0.6204437626886699  0.10207247665963172  0.34321916182662576  1.0000
  C   C404      1.0  0.6192741014309309  0.16686663260217582  0.3140325381852315  1.0000
  H   H305      1.0  0.6568050504571964  0.12567246395805864  0.35535566629715454  1.0000
  H   H306      1.0  0.6558211038056108  0.17348035187526692  0.3337939805586455  1.0000
  H   H307      1.0  0.6524091059007499  0.126578667062806  0.3105421130551397  1.0000
  H   H308      1.0  0.6097152953353359  0.16809613078479582  0.3798675927737592  1.0000
  H   H309      1.0  0.6317808453799468  0.1485651827143514  0.3957871986403336  1.0000
  H   H310      1.0  0.6314632508091577  0.19637356402267542  0.373993055118251  1.0000
  H   H311      1.0  0.6229239910265922  0.08494562669676031  0.31920982418627825  1.0000
  H   H312      1.0  0.604795172760423  0.10231874689786102  0.3479928699552136  1.0000
  H   H313      1.0  0.6269716944327595  0.08401552611861886  0.3639530890409886  1.0000
  H   H314      1.0  0.6036919650159045  0.17000947673984076  0.3187359358179171  1.0000
  H   H315      1.0  0.6211310374524206  0.1515377773425987  0.28905506675017295  1.0000
  H   H316      1.0  0.6253886880420795  0.19832291527366017  0.3117194480843206  1.0000
  N   N6        1.0  0.008245054697159304  0.9634511939691297  0.32175265477924647  1.0000
  C   C405      1.0  0.0041820699490342506  0.9190435807860683  0.32259302974854415  1.0000
  C   C406      1.0  0.9930937587398996  0.9852265074328654  0.34034106005190823  1.0000
  C   C407      1.0  0.008877550849079485  0.9773984691677623  0.2860965529566089  1.0000
  C   C408      1.0  0.02686187283009267  0.9721865111946352  0.33786673172249704  1.0000
  H   H317      1.0  0.014917381093478177  0.9018397406124127  0.3076698256118919  1.0000
  H   H318      1.0  0.9899355827435476  0.9115381929797803  0.3117712152754494  1.0000
  H   H319      1.0  0.004472612244423635  0.9069196556061108  0.3489335641142756  1.0000
  H   H320      1.0  0.9923371559958574  0.9754812510648986  0.367372807803234  1.0000
  H   H321      1.0  0.9957560747979292  0.01883384050375958  0.34046948682504036  1.0000
  H   H322      1.0  0.978813159466542  0.9794448462684353  0.32897878427907  1.0000
  H   H323      1.0  0.011934187644491168  0.010771797814409734  0.2844268718170205  1.0000
  H   H324      1.0  0.995100678151311  0.971185725163497  0.27302182852460305  1.0000
  H   H325      1.0  0.020236958221234502  0.9614136702254256  0.2714985377859017  1.0000
  H   H326      1.0  0.02982251091812027  0.0055610890479131925  0.33923725462609283  1.0000
  H   H327      1.0  0.03875700392827652  0.9580832960184242  0.3235414792676835  1.0000
  H   H328      1.0  0.027375168606222022  0.9601540533365399  0.364229473719144  1.0000
  N   N7        1.0  0.6283887953889553  0.19110823354473713  0.06846216113806136  1.0000
  C   C409      1.0  0.6281677985634015  0.21235088134380176  0.035411345873068045  1.0000
  C   C410      1.0  0.6474810658349784  0.17380462644599867  0.07401850417325928  1.0000
  C   C411      1.0  0.6139605113815112  0.1577421587094808  0.06844673445892879  1.0000
  C   C412      1.0  0.6239493561611192  0.2204807202605037  0.0958104278481513  1.0000
  H   H329      1.0  0.6399296113883288  0.23541993489598662  0.03328317453310792  1.0000
  H   H330      1.0  0.6145998645291691  0.22867727507886218  0.03150040851510316  1.0000
  H   H331      1.0  0.6298874684017057  0.19050398546348318  0.014035817378776237  1.0000
  H   H332      1.0  0.651070649838928  0.15116225324165516  0.05395059186735641  1.0000
  H   H333      1.0  0.6588324812459794  0.19791990006331228  0.07315421532382048  1.0000
  H   H334      1.0  0.6483468571493983  0.1580799211294993  0.09894517173498207  1.0000
  H   H335      1.0  0.6135480255616328  0.14132982610666456  0.09314602986510288  1.0000
  H   H336      1.0  0.6169070718076755  0.13494531266839677  0.04815562938917339  1.0000
  H   H337      1.0  0.5994186248088151  0.16961844988355487  0.06397146650705388  1.0000
  H   H338      1.0  0.6240346168885353  0.20564551542335607  0.12119726405060306  1.0000
  H   H339      1.0  0.6095284507257656  0.23375902412407804  0.09239029941140253  1.0000
  H   H340      1.0  0.6344327648612603  0.24630898852206742  0.09624607308396924  1.0000
  N   N8        1.0  0.7573538784927877  0.38407531230646197  0.47088579403883224  1.0000
  C   C413      1.0  0.7656816279057922  0.34587812032971926  0.4836950276041023  1.0000
  C   C414      1.0  0.7727980665700515  0.41389954474785595  0.4632123937211408  1.0000
  C   C415      1.0  0.7445894764185224  0.40124774458156703  0.4970075862083917  1.0000
  C   C416      1.0  0.7463123935441321  0.37527111488759596  0.43978172625405904  1.0000
  H   H341      1.0  0.7543920716863465  0.3227572831815222  0.48982138354740407  1.0000
  H   H342      1.0  0.7739613275766193  0.35137390986677663  0.5073369308093119  1.0000
  H   H343      1.0  0.7754967988047681  0.33213530284073145  0.4647341449832676  1.0000
  H   H344      1.0  0.7814475838865773  0.42097816754407624  0.486200529070838  1.0000
  H   H345      1.0  0.7827243839812127  0.4020925334363178  0.44351424376011345  1.0000
  H   H346      1.0  0.766969272719599  0.44322695998010836  0.45381728267185606  1.0000
  H   H347      1.0  0.7375912747693827  0.429525923551946  0.4879503544770532  1.0000
  H   H348      1.0  0.7525529145016455  0.40924931868139564  0.5204465307708187  1.0000
  H   H349      1.0  0.7331487083424596  0.37904468594267243  0.5043080651550351  1.0000
  H   H350      1.0  0.7554556965513624  0.36262360248170655  0.4192877971288698  1.0000
  H   H351      1.0  0.7394994348008669  0.40325203911042207  0.42970371117757283  1.0000
  H   H352      1.0  0.7346337676534603  0.3525695242429239  0.44466802148236295  1.0000
  N   N9        1.0  0.953670185865535  0.923118416355446  0.9511225228034648  1.0000
  C   C417      1.0  0.9374946623674448  0.8972793266573442  0.9395600382083646  1.0000
  C   C418      1.0  0.9472904640877019  0.9657017889464522  0.9550849125069357  1.0000
  C   C419      1.0  0.9692668634594601  0.9216326921687278  0.9257980587480326  1.0000
  C   C420      1.0  0.9606493082273251  0.9079543259998166  0.9840727284106622  1.0000
  H   H353      1.0  0.9256084235325659  0.8968061410469864  0.958366902012995  1.0000
  H   H354      1.0  0.9418367913073352  0.8651151120313699  0.9357427686010319  1.0000
  H   H355      1.0  0.9317321229743583  0.9080459385406049  0.9149373437454382  1.0000
  H   H356      1.0  0.9591278073930424  0.9860361011921527  0.9639478353802264  1.0000
  H   H357      1.0  0.9420938054877175  0.9783167498938724  0.9306672102725305  1.0000
  H   H358      1.0  0.935542959344821  0.9679306750861694  0.9740438138527705  1.0000
  H   H359      1.0  0.9745481120667967  0.8899883470376162  0.9223808120888185  1.0000
  H   H360      1.0  0.981643144572349  0.940996390615411  0.9337088436497633  1.0000
  H   H361      1.0  0.9645396246638872  0.9325926209046693  0.9005418510946173  1.0000
  H   H362      1.0  0.9727678213376925  0.9270588246222984  0.9936215529137431  1.0000
  H   H363      1.0  0.9657886703265002  0.8760707380199653  0.9819740347112675  1.0000
  H   H364      1.0  0.9492499506982551  0.908246928416301  0.0037840267515085735  1.0000
  N   N10       1.0  0.8533140394955321  0.5793010133785511  0.5788137193917154  1.0000
  C   C421      1.0  0.845566988838639  0.6068352769115862  0.6050036505040765  1.0000
  C   C422      1.0  0.8486854304629953  0.5949331926523647  0.5446815684443154  1.0000
  C   C423      1.0  0.8447632806685824  0.5381523578860012  0.583131216887607  1.0000
  C   C424      1.0  0.8742562473599067  0.5773672604560829  0.5824457567095164  1.0000
  H   H365      1.0  0.8298197656376229  0.6096168420688314  0.6030306913187516  1.0000
  H   H366      1.0  0.8518673005841484  0.637947097227675  0.6026274650097722  1.0000
  H   H367      1.0  0.8489307872959506  0.5961072927615219  0.6310801293416811  1.0000
  H   H368      1.0  0.8330283260384982  0.5973320302361625  0.5410285819807177  1.0000
  H   H369      1.0  0.855170995723674  0.6257095189888133  0.540280531334774  1.0000
  H   H370      1.0  0.8542158977004175  0.574451872872415  0.5243677285489454  1.0000
  H   H371      1.0  0.8289300318419095  0.5388838476802704  0.5816133496612237  1.0000
  H   H372      1.0  0.8486485280536286  0.5245696035472043  0.6079734357316674  1.0000
  H   H373      1.0  0.8496659916764736  0.5171123778182307  0.5628830977720309  1.0000
  H   H374      1.0  0.8807085834379266  0.558223241300565  0.5622296577893926  1.0000
  H   H375      1.0  0.878403376235948  0.5643539621353388  0.6073717087508422  1.0000
  H   H376      1.0  0.8810017260982073  0.6082713809024483  0.5805148843829483  1.0000
  N   N11       1.0  0.4425523473072935  0.6184286559460551  0.5133403183328336  1.0000
  C   C425      1.0  0.4439180532861178  0.5734338570910062  0.5117569764881497  1.0000
  C   C426      1.0  0.454492352898077  0.6341631853930859  0.5414168183710286  1.0000
  C   C427      1.0  0.42251296525385174  0.629980204708867  0.5193753015341321  1.0000
  C   C428      1.0  0.4492842589844105  0.6362432815788271  0.480893794964926  1.0000
  H   H377      1.0  0.4353156935411013  0.5604381826613385  0.4905718023609697  1.0000
  H   H378      1.0  0.438714156890024  0.5589569256591191  0.5356396632275079  1.0000
  H   H379      1.0  0.4589232719252816  0.5636156602808206  0.508048360520804  1.0000
  H   H380      1.0  0.45354876760829455  0.6680101633898393  0.5436202538567546  1.0000
  H   H381      1.0  0.4499353525630789  0.6208279541882707  0.5662038620633819  1.0000
  H   H382      1.0  0.46975293797456064  0.6263723521202069  0.5376740174923845  1.0000
  H   H383      1.0  0.4209745437006819  0.6637942500140681  0.5202096370446795  1.0000
  H   H384      1.0  0.417136154751187  0.6177857493305828  0.5440115023557817  1.0000
  H   H385      1.0  0.41296641166808296  0.6180664262417548  0.49908133734480137  1.0000
  H   H386      1.0  0.4484870760839219  0.6702109576417657  0.4812249671040329  1.0000
  H   H387      1.0  0.44053081280801615  0.6251629959041685  0.45916035175672654  1.0000
  H   H388      1.0  0.4643590611190385  0.6281081514867273  0.47548931797049776  1.0000
  N   N12       1.0  0.5069196293878232  0.320572666020919  0.571099563708239  1.0000
  C   C429      1.0  0.48781443348443543  0.3040201337448018  0.5799239024849662  1.0000
  C   C430      1.0  0.5195092707647454  0.28673942259393126  0.5612156639103022  1.0000
  C   C431      1.0  0.5150698538229795  0.3421091075021346  0.6007771307935346  1.0000
  C   C432      1.0  0.5053354623025302  0.3493623401629076  0.5424394619662263  1.0000
  H   H389      1.0  0.4810007393389842  0.288303055115389  0.5579720014124948  1.0000
  H   H390      1.0  0.47803121271450616  0.32860686723231347  0.5881680990086386  1.0000
  H   H391      1.0  0.4885288637273763  0.2817375544811199  0.6011769754736457  1.0000
  H   H392      1.0  0.5340214455098474  0.2981992728947551  0.5541906756007292  1.0000
  H   H393      1.0  0.5212758461428105  0.2645991909000174  0.5823480680655775  1.0000
  H   H394      1.0  0.5137564684343866  0.2695288056641339  0.5390831393468273  1.0000
  H   H395      1.0  0.5294925637081722  0.35504664713457074  0.5951634175867399  1.0000
  H   H396      1.0  0.5165667998233829  0.3211779970001141  0.6227864072293038  1.0000
  H   H397      1.0  0.5058387522782205  0.36765098566934956  0.6091759901154062  1.0000
  H   H398      1.0  0.5194843230262056  0.3623927099718702  0.5350433912720582  1.0000
  H   H399      1.0  0.49594398365566844  0.37534917855629135  0.5488828534782797  1.0000
  H   H400      1.0  0.49913016314587105  0.33417595755889495  0.5196481388058927  1.0000
  N   N13       1.0  0.49223611152067637  0.7956601717557821  0.2520607897874076  1.0000
  C   C433      1.0  0.4804873424355785  0.8233549139269086  0.27288298135573  1.0000
  C   C434      1.0  0.5069637840848241  0.8197249127724235  0.23370707817438333  1.0000
  C   C435      1.0  0.47989405630312815  0.7740002826145957  0.2273861212081226  1.0000
  C   C436      1.0  0.5016227794063575  0.7656238237201057  0.2741735068289839  1.0000
  H   H401      1.0  0.4892534853654564  0.8404262036016334  0.2917289451329098  1.0000
  H   H402      1.0  0.46924039969022296  0.8061808934674709  0.2871529501666999  1.0000
  H   H403      1.0  0.4731370834095792  0.8462525111731315  0.2568662905991979  1.0000
  H   H404      1.0  0.5156606961577289  0.8001733037070521  0.21667542845005566  1.0000
  H   H405      1.0  0.500411048541246  0.8434034451995733  0.21758137173365907  1.0000
  H   H406      1.0  0.5168101589495029  0.8357754556742573  0.2514709355963094  1.0000
  H   H407      1.0  0.4727152260272365  0.7957716906510975  0.2101441708950859  1.0000
  H   H408      1.0  0.46852344730432866  0.7557946034728326  0.2404418766959534  1.0000
  H   H409      1.0  0.4881820212037085  0.7525878533804272  0.21131620845939603  1.0000
  H   H410      1.0  0.5108425783512264  0.7808962408170477  0.2934034465200769  1.0000
  H   H411      1.0  0.5106201499514272  0.7443866873406576  0.25919373476514457  1.0000
  H   H412      1.0  0.4909862364281069  0.7465719607976538  0.2882183064434359  1.0000
  N   N14       1.0  0.652148185274024  0.3940418321426057  0.581911576556289  1.0000
  C   C437      1.0  0.6462897109618313  0.4043511484077234  0.6169332829189443  1.0000
  C   C438      1.0  0.6666819214216807  0.36182653407049636  0.5829667439090555  1.0000
  C   C439      1.0  0.6602316873371831  0.43081057134812367  0.565176536194843  1.0000
  C   C440      1.0  0.6354222601418147  0.37908611367591816  0.5625837026120972  1.0000
  H   H413      1.0  0.6351998344242284  0.428323688327397  0.6171869543858953  1.0000
  H   H414      1.0  0.6586270597421567  0.41600360218788535  0.6320569322838637  1.0000
  H   H415      1.0  0.6403096808305271  0.3771269186654293  0.6303890686676811  1.0000
  H   H416      1.0  0.6718313046350444  0.3539698186023069  0.5570175765399299  1.0000
  H   H417      1.0  0.6792198094039414  0.37139131566134  0.5983925994306795  1.0000
  H   H418      1.0  0.6607956237543006  0.33311868716453436  0.5942394011972996  1.0000
  H   H419      1.0  0.6500150334503082  0.4564883133857162  0.5653366610571818  1.0000
  H   H420      1.0  0.6638704828332284  0.4247120779173494  0.5381455724087458  1.0000
  H   H421      1.0  0.6735010526172223  0.441763018098557  0.5778952744247344  1.0000
  H   H422      1.0  0.6395609736533198  0.36934052113743493  0.5364686481686862  1.0000
  H   H423      1.0  0.6243947187974203  0.4029765795268612  0.5601969467972766  1.0000
  H   H424      1.0  0.6286281098966346  0.3520512945228035  0.5750143673926184  1.0000
  N   N15       1.0  0.6917449397594976  0.0018529992949996021  0.4804404087676833  1.0000
  C   C441      1.0  0.7097639681494888  0.016258957829628384  0.4960141615319002  1.0000
  C   C442      1.0  0.6896398614982545  0.020782115320944428  0.44665192665357684  1.0000
  C   C443      1.0  0.6755546914448949  0.013588003532683413  0.5023578457243585  1.0000
  C   C444      1.0  0.6920585027284127  0.956911506659327  0.47682783012608004  1.0000
  H   H425      1.0  0.7118016243399657  0.002423160909502231  0.5215534753306373  1.0000
  H   H426      1.0  0.7099455961196575  0.050067557343998814  0.49925549120881035  1.0000
  H   H427      1.0  0.7223108656133016  0.008135410788952191  0.48010899629005327  1.0000
  H   H428      1.0  0.6759448392082876  0.011387491683368944  0.43455771150058936  1.0000
  H   H429      1.0  0.6897835779296677  0.05475193261633993  0.44836422026743256  1.0000
  H   H430      1.0  0.7013820877908443  0.011994640200001516  0.42915431495811224  1.0000
  H   H431      1.0  0.6616906144526218  0.0023871592730013713  0.4919809140540287  1.0000
  H   H432      1.0  0.6746089232826372  0.04734649780885869  0.5048517959195258  1.0000
  H   H433      1.0  0.6769558350387994  0.0008602694562491742  0.5283640478122641  1.0000
  H   H434      1.0  0.6786130194894734  0.944847147069871  0.46539319921223266  1.0000
  H   H435      1.0  0.6937541896671193  0.9416280820680201  0.5018532193780165  1.0000
  H   H436      1.0  0.704016442575712  0.9469460863741284  0.46028058601651844  1.0000
  N   N16       1.0  0.9949397648611417  0.11312465956916773  0.5443819325631001  1.0000
  C   C445      1.0  0.9894001490717973  0.09093690906847529  0.5756336419027762  1.0000
  C   C446      1.0  0.9798787462013725  0.14233241348359327  0.5354517751318585  1.0000
  C   C447      1.0  0.9974298191979619  0.08372076508552162  0.5163013855924896  1.0000
  C   C448      1.0  0.013068808778064378  0.1355308780857596  0.5501374621218046  1.0000
  H   H437      1.0  0.0008894885985084588  0.07021437147280118  0.584054796255042  1.0000
  H   H438      1.0  0.9763912904183952  0.0716472041988303  0.571678509331272  1.0000
  H   H439      1.0  0.986495856693464  0.11230145249354107  0.5969496725235429  1.0000
  H   H440      1.0  0.983682809429676  0.1600007702477726  0.5121958488530153  1.0000
  H   H441      1.0  0.9660119385655548  0.12642813256851593  0.5307050390725069  1.0000
  H   H442      1.0  0.9775310581322245  0.16485177524615957  0.5561801868446209  1.0000
  H   H443      1.0  0.001692735608938234  0.09934128548505328  0.4923462459890761  1.0000
  H   H444      1.0  0.984015926469684  0.06623993757958302  0.5113043504401641  1.0000
  H   H445      1.0  0.008635702504392162  0.061121573601337964  0.5222146425329869  1.0000
  H   H446      1.0  0.01182782545861727  0.15728770388549385  0.5717079629901659  1.0000
  H   H447      1.0  0.017382554828702546  0.15340851409472056  0.5273325311722629  1.0000
  H   H448      1.0  0.024925995005325774  0.11430781283864144  0.5558362132137145  1.0000
  N   N17       1.0  0.7055536966643897  0.4445062041866908  0.904047521890657  1.0000
  C   C449      1.0  0.6910840546490172  0.45608646608913683  0.9295331604527824  1.0000
  C   C450      1.0  0.7139387436868462  0.40502099305973366  0.9136895021564733  1.0000
  C   C451      1.0  0.7206998867712295  0.4763462595769782  0.902457753613841  1.0000
  C   C452      1.0  0.6964447629589597  0.44051711811138894  0.8704412218437166  1.0000
  H   H449      1.0  0.68441512505006  0.48569339516269416  0.9229841876159918  1.0000
  H   H450      1.0  0.6975030720255382  0.45937129984255454  0.9551968364523596  1.0000
  H   H451      1.0  0.6794584873861758  0.4326082618409963  0.9312733072121903  1.0000
  H   H452      1.0  0.7247200265579271  0.3950508879287892  0.8947757142422212  1.0000
  H   H453      1.0  0.7212038889803726  0.40687411111780375  0.9386941062598321  1.0000
  H   H454      1.0  0.7028804205400562  0.38030373787272265  0.915203213121141  1.0000
  H   H455      1.0  0.7148447587473715  0.5066551546768526  0.8956262696129552  1.0000
  H   H456      1.0  0.7315942255167731  0.4690126880713477  0.8828456799662239  1.0000
  H   H457      1.0  0.7282727834620119  0.4796876323291931  0.9271019159999381  1.0000
  H   H458      1.0  0.6900177830760257  0.4697356055655986  0.8621993997164024  1.0000
  H   H459      1.0  0.6850394736608412  0.41646634493755386  0.8705240914633127  1.0000
  H   H460      1.0  0.707048803345691  0.43198518542977227  0.850692531084796  1.0000
  N   N18       1.0  0.9353140979943604  0.5780495145607177  0.7888881909409262  1.0000
  C   C453      1.0  0.9425270634340728  0.6192402446138573  0.7798111687302025  1.0000
  C   C454      1.0  0.9358197182925019  0.5513640361084022  0.7586413037678035  1.0000
  C   C455      1.0  0.9154712034972048  0.5808586304250618  0.8013365391025292  1.0000
  C   C456      1.0  0.9473884947251966  0.560646632176361  0.8157484444968992  1.0000
  H   H461      1.0  0.941941936963254  0.6405411490653452  0.8018588875268855  1.0000
  H   H462      1.0  0.9339122306617929  0.6329800114851336  0.7592094289014876  1.0000
  H   H463      1.0  0.9575692686302164  0.6184721329697292  0.7707904708394652  1.0000
  H   H464      1.0  0.9301651942799302  0.5202040060061583  0.7644812128379739  1.0000
  H   H465      1.0  0.9271167659207787  0.5637614947027024  0.7375814509347942  1.0000
  H   H466      1.0  0.9506340457733108  0.5477152660616592  0.748898390638609  1.0000
  H   H467      1.0  0.9058787505025933  0.5931109642324254  0.7815428425374856  1.0000
  H   H468      1.0  0.9144826278073055  0.6013240118851045  0.8238492911132826  1.0000
  H   H469      1.0  0.909714581521569  0.5503814008003349  0.808929807463822  1.0000
  H   H470      1.0  0.9625079338759032  0.5582324049970163  0.8074023968148829  1.0000
  H   H471      1.0  0.9424555009038296  0.5293602746101084  0.822911376793508  1.0000
  H   H472      1.0  0.9471220609339238  0.579622714670387  0.8392149614314783  1.0000
  N   N19       1.0  0.07322300842971351  0.9082089441787584  0.5474465629195133  1.0000
  C   C457      1.0  0.07971042500280631  0.9253926807725068  0.5801229183135636  1.0000
  C   C458      1.0  0.08280211064050477  0.8689575274376494  0.5412064808752342  1.0000
  C   C459      1.0  0.07803814023917857  0.9371277011894583  0.5198580970687384  1.0000
  C   C460      1.0  0.05234646459665049  0.9013972152289794  0.548708986925987  1.0000
  H   H473      1.0  0.07256175263368561  0.9547577570842889  0.5859130876446718  1.0000
  H   H474      1.0  0.09539237082693275  0.9313088667694892  0.580158678126715  1.0000
  H   H475      1.0  0.07660412991003096  0.9039411110251108  0.6014083451014767  1.0000
  H   H476      1.0  0.07827764887062344  0.8552064450586475  0.5165682559830305  1.0000
  H   H477      1.0  0.0986007194828851  0.872935453020489  0.5405791843370804  1.0000
  H   H478      1.0  0.07946967617288409  0.8464476829080981  0.5616234653460327  1.0000
  H   H479      1.0  0.07106109303464564  0.967075808802779  0.5239066168594375  1.0000
  H   H480      1.0  0.07330209220421813  0.9250896493673846  0.49477953887545967  1.0000
  H   H481      1.0  0.09369113621725919  0.9428813832012263  0.5182564210692318  1.0000
  H   H482      1.0  0.04700262385127374  0.8878852442532787  0.5245773515486205  1.0000
  H   H483      1.0  0.04463242605417794  0.9304605968521398  0.5530575640207188  1.0000
  H   H484      1.0  0.04819171339399353  0.8801751748121961  0.5695820937241889  1.0000
  N   N20       1.0  0.9541294686701066  0.32338184991604363  0.6708608347510386  1.0000
  C   C461      1.0  0.9443594625270254  0.34568795590031964  0.6435344117236298  1.0000
  C   C462      1.0  0.9641055791893008  0.2879388373560352  0.6562445922613599  1.0000
  C   C463      1.0  0.9399224361989648  0.3090555436442955  0.6961762111709231  1.0000
  C   C464      1.0  0.9681157657917743  0.3509596087165213  0.6875176578191489  1.0000
  H   H485      1.0  0.9380146746254533  0.3742254948029935  0.6532912702028684  1.0000
  H   H486      1.0  0.932490442401398  0.32727808266210884  0.6323585655768879  1.0000
  H   H487      1.0  0.9543588772213363  0.35438059254503695  0.6226722146601512  1.0000
  H   H488      1.0  0.9540013995364505  0.26662987959574663  0.6432489811408899  1.0000
  H   H489      1.0  0.9749428296295782  0.29762541594181235  0.6369952519346141  1.0000
  H   H490      1.0  0.971621000983942  0.27032600532839607  0.676133495596737  1.0000
  H   H491      1.0  0.9291202692472327  0.28814066776412445  0.6845928430322226  1.0000
  H   H492      1.0  0.9320548422048198  0.33504178856191286  0.7074986674143051  1.0000
  H   H493      1.0  0.9467899586585462  0.29249642107726176  0.7174381807157127  1.0000
  H   H494      1.0  0.975760126601745  0.3352650490581602  0.7083748491640945  1.0000
  H   H495      1.0  0.9610286180325879  0.37797649504877184  0.6989550247274388  1.0000
  H   H496      1.0  0.9789667452004779  0.362726067563253  0.6691543920360803  1.0000
  N   N21       1.0  0.6819258520014089  0.3052541614593559  0.7485814071951288  1.0000
  C   C465      1.0  0.701759107040045  0.31461889205692706  0.737933153379803  1.0000
  C   C466      1.0  0.6727447933782105  0.34309712557600136  0.7603787570420897  1.0000
  C   C467      1.0  0.6821132469667825  0.2750851306118308  0.7764532021870578  1.0000
  C   C468      1.0  0.6711343234534526  0.28835883324145506  0.7194857123513697  1.0000
  H   H497      1.0  0.7100568415363874  0.3294034633544878  0.7587883330695925  1.0000
  H   H498      1.0  0.7021707465781434  0.33580273637941427  0.7158952684731698  1.0000
  H   H499      1.0  0.7094223213541383  0.28654521792286863  0.730250488442082  1.0000
  H   H500      1.0  0.6578456467580052  0.33719880485499887  0.769057594629917  1.0000
  H   H501      1.0  0.6805625367976468  0.35705335010475836  0.7820740908609001  1.0000
  H   H502      1.0  0.6722247735831002  0.36622273626678764  0.7397346902921591  1.0000
  H   H503      1.0  0.6675452715615067  0.2687395958047926  0.7865145594084167  1.0000
  H   H504      1.0  0.690817360193273  0.28626240428904326  0.7981351736230539  1.0000
  H   H505      1.0  0.688237082521636  0.24558657207294135  0.7680577850440518  1.0000
  H   H506      1.0  0.6560499181992888  0.2811276024583419  0.7265236155113548  1.0000
  H   H507      1.0  0.6776150896507792  0.2597953680575171  0.7097765876962462  1.0000
  H   H508      1.0  0.6707720402575119  0.3105125967820315  0.6980563592718744  1.0000
  N   N22       1.0  0.07427889507348209  0.10326942707958309  0.35501245219933675  1.0000
  C   C469      1.0  0.07250427278105309  0.06009712912144516  0.3656447938276222  1.0000
  C   C470      1.0  0.09266344952298221  0.12031877437439387  0.36706731980951085  1.0000
  C   C471      1.0  0.058431999851024985  0.1267836204892041  0.36979161293951923  1.0000
  C   C472      1.0  0.07357108630438591  0.10593039834904094  0.3175946287341951  1.0000
  H   H509      1.0  0.08410542103551326  0.04132457164628556  0.35447943741261684  1.0000
  H   H510      1.0  0.05864728019616395  0.04639338006566551  0.3576217927018202  1.0000
  H   H511      1.0  0.07329448698131755  0.05713771799039824  0.3937295242143659  1.0000
  H   H512      1.0  0.0948244046815162  0.15243297587329918  0.3584869518403197  1.0000
  H   H513      1.0  0.0934572511293505  0.12019174612773997  0.39525259535660795  1.0000
  H   H514      1.0  0.10483748009192209  0.10232508625807601  0.3572420199654335  1.0000
  H   H515      1.0  0.05945022964115431  0.12835380622135362  0.39791018151211743  1.0000
  H   H516      1.0  0.04430360650528686  0.1129853253979527  0.36338465990654284  1.0000
  H   H517      1.0  0.058475206852889317  0.15871898619618285  0.3602890355639544  1.0000
  H   H518      1.0  0.05976892939402334  0.09402721566737826  0.30761469382729206  1.0000
  H   H519      1.0  0.08517851001272264  0.08805967528360115  0.30557368181999445  1.0000
  H   H520      1.0  0.07531841629722409  0.13816726883586528  0.3088449599684504  1.0000
  N   N23       1.0  0.8269325304318793  0.38631623329658415  0.6547874167089126  1.0000
  C   C473      1.0  0.8366016159677353  0.40691763422606264  0.6259736990555583  1.0000
  C   C474      1.0  0.8155569484136352  0.3512345074828617  0.6420603812942961  1.0000
  C   C475      1.0  0.8141772241552497  0.4153571371215223  0.6720693192176749  1.0000
  C   C476      1.0  0.8413485634433566  0.37169633386611  0.6790465683046633  1.0000
  H   H521      1.0  0.8460152792635542  0.43238614518521246  0.6348170459953401  1.0000
  H   H522      1.0  0.8261612484303891  0.4195603218458336  0.6077350890646384  1.0000
  H   H523      1.0  0.8458095557779787  0.38539991944535734  0.6116393961032695  1.0000
  H   H524      1.0  0.8081751035019906  0.3348230367698476  0.663183640984087  1.0000
  H   H525      1.0  0.8044044677091566  0.3612568776639127  0.6239779834602968  1.0000
  H   H526      1.0  0.824693105156666  0.3288898424501844  0.6285392158456307  1.0000
  H   H527      1.0  0.8223490874813028  0.44164862202255606  0.6829174050886869  1.0000
  H   H528      1.0  0.8064310948571598  0.40050978524510955  0.6936069237775174  1.0000
  H   H529      1.0  0.803267378347356  0.42749292755492907  0.6544259171470027  1.0000
  H   H530      1.0  0.8345666511699911  0.35638212922727086  0.7013413809557141  1.0000
  H   H531      1.0  0.8502887752391852  0.3973507964815928  0.6890607721562344  1.0000
  H   H532      1.0  0.8512205941007306  0.3496451641857929  0.66692488416559  1.0000
  N   N24       1.0  0.3830618619419542  0.6245369415732822  0.2961951032799101  1.0000
  C   C477      1.0  0.3725630640788061  0.6616828667828281  0.2870128664506839  1.0000
  C   C478      1.0  0.37188442063422483  0.6003461443240486  0.3211157584746224  1.0000
  C   C479      1.0  0.4016155209619172  0.6365253461735132  0.31112263439166515  1.0000
  C   C480      1.0  0.38623243842419885  0.599817296878496  0.265333254404785  1.0000
  H   H533      1.0  0.3699032269039024  0.6814072660741077  0.3094936789653893  1.0000
  H   H534      1.0  0.35859064818741454  0.6541339112594168  0.27517885000122494  1.0000
  H   H535      1.0  0.3808202546219199  0.6803892065526858  0.26830191825937927  1.0000
  H   H536      1.0  0.369667961706473  0.6176158992851312  0.3450881045902063  1.0000
  H   H537      1.0  0.3575703320308101  0.591833525436146  0.31104130535066316  1.0000
  H   H538      1.0  0.37921853268304617  0.571412441393581  0.3276189395520475  1.0000
  H   H539      1.0  0.4104669692523837  0.6095229449473526  0.31683048346218345  1.0000
  H   H540      1.0  0.3998233468016897  0.6541522908937936  0.33503397171799043  1.0000
  H   H541      1.0  0.4100269716021431  0.6561459821929566  0.2934535007650203  1.0000
  H   H542      1.0  0.37257218610301296  0.590139928226697  0.2533789640490144  1.0000
  H   H543      1.0  0.39430236097400356  0.5716420565626313  0.2710021025692964  1.0000
  H   H544      1.0  0.3946174391494237  0.6171366204919542  0.2459242075730357  1.0000
  N   N25       1.0  0.22634349467755532  0.2686131530119567  0.6933260372476083  1.0000
  C   C481      1.0  0.23167204890865065  0.22558580929484218  0.6879206040662866  1.0000
  C   C482      1.0  0.24120302404453675  0.29562577404279466  0.6783847746688796  1.0000
  C   C483      1.0  0.22467530041097258  0.2768090029342764  0.7301120370714193  1.0000
  C   C484      1.0  0.2078319304635611  0.2764389078188732  0.6769003821304621  1.0000
  H   H545      1.0  0.2209538444243134  0.2042730575981118  0.6993246777013404  1.0000
  H   H546      1.0  0.24567817417781243  0.21889506003972578  0.6997010116233872  1.0000
  H   H547      1.0  0.23268431794950184  0.218144330869696  0.6604275310952502  1.0000
  H   H548      1.0  0.24324707386754674  0.2895376911111242  0.6508359400714556  1.0000
  H   H549      1.0  0.23736982034342527  0.3282235081639954  0.6809522139950261  1.0000
  H   H550      1.0  0.2552118566387245  0.2919523140040369  0.6911349692394686  1.0000
  H   H551      1.0  0.23830917811107216  0.27109328867408267  0.7435041765403643  1.0000
  H   H552      1.0  0.2133789513349911  0.25721457712947754  0.7420461095080954  1.0000
  H   H553      1.0  0.2208944774287411  0.3091596519041561  0.7350671274319296  1.0000
  H   H554      1.0  0.20854399741903132  0.2713801890312596  0.6490269811756919  1.0000
  H   H555      1.0  0.20324250113527403  0.3084223373451788  0.6811799602813614  1.0000
  H   H556      1.0  0.19633605063615767  0.2561915894830159  0.6872694784517445  1.0000
  N   N26       1.0  0.12656133439128625  0.0913181054267791  0.8138911964067709  1.0000
  C   C485      1.0  0.12643738482322556  0.05877209579406517  0.839863541979429  1.0000
  C   C486      1.0  0.11542702819828317  0.1263865586834101  0.8262473641830645  1.0000
  C   C487      1.0  0.11795235370335293  0.07526941128020215  0.7823399755269788  1.0000
  C   C488      1.0  0.14642757599534892  0.10473794352081467  0.8069868864760072  1.0000
  H   H557      1.0  0.1328416728657425  0.06971697943224853  0.8640751327608293  1.0000
  H   H558      1.0  0.13469938024554623  0.0318359165126294  0.8311749593414658  1.0000
  H   H559      1.0  0.11165412795357055  0.04776484418368043  0.8455125940273249  1.0000
  H   H560      1.0  0.11506451780142923  0.15125546630448872  0.8070247239721049  1.0000
  H   H561      1.0  0.10039042576058259  0.11738253163019663  0.8320037555579102  1.0000
  H   H562      1.0  0.12165607936688964  0.13977593102591568  0.8498017158266201  1.0000
  H   H563      1.0  0.11779997868417856  0.098942093801067  0.7620683264751912  1.0000
  H   H564      1.0  0.1029666927134335  0.0646048006621327  0.786504714254099  1.0000
  H   H565      1.0  0.1260835211669259  0.04883540994241309  0.7722909973419348  1.0000
  H   H566      1.0  0.14706968331691958  0.12893674549101153  0.7871599815723498  1.0000
  H   H567      1.0  0.15526847110647823  0.07897967734813993  0.7977354170724784  1.0000
  H   H568      1.0  0.15336925923531197  0.11747342786070658  0.8301094843858304  1.0000
  N   N27       1.0  0.5883375312337116  0.11417100903235244  0.5659351294811269  1.0000
  C   C489      1.0  0.5774692248117882  0.1402569809119811  0.5895188970541186  1.0000
  C   C490      1.0  0.6048684534495088  0.09683806902449454  0.583733341149736  1.0000
  C   C491      1.0  0.5951227447012558  0.1390321268162485  0.5368681966797636  1.0000
  C   C492      1.0  0.5758998301251975  0.08049507078259777  0.553671671213046  1.0000
  H   H569      1.0  0.5649106110598848  0.1539050176607272  0.5768632887199463  1.0000
  H   H570      1.0  0.5864099791186241  0.1660521712814189  0.5992112718472417  1.0000
  H   H571      1.0  0.5720315931133798  0.12265405839082177  0.6117308919124733  1.0000
  H   H572      1.0  0.6135167726017934  0.07753527765251222  0.5663766708912124  1.0000
  H   H573      1.0  0.6143922893065998  0.12126740046838692  0.5940377728203892  1.0000
  H   H574      1.0  0.6002095038340182  0.07698874910333542  0.605240135457932  1.0000
  H   H575      1.0  0.603046760622181  0.12016531598039615  0.5181320376820742  1.0000
  H   H576      1.0  0.6048546592175231  0.1642439615449774  0.5452555892529315  1.0000
  H   H577      1.0  0.5830394481587376  0.1534063035605341  0.5233484318234667  1.0000
  H   H578      1.0  0.583702241348962  0.060125460129372595  0.5358769433628027  1.0000
  H   H579      1.0  0.5632392409462474  0.09228024713778306  0.5401197561112432  1.0000
  H   H580      1.0  0.570648477425061  0.061074371613139444  0.5750942052895294  1.0000
  N   N28       1.0  0.05996278054250604  0.06866073178704024  0.9439636330412706  1.0000
  C   C493      1.0  0.0520546016254364  0.10774850871185704  0.9555588798159019  1.0000
  C   C494      1.0  0.07305826675537562  0.07616549283112241  0.9150889559150643  1.0000
  C   C495      1.0  0.04419697682939261  0.041320679069343  0.9331770064387631  1.0000
  C   C496      1.0  0.07047180679589887  0.049681897310410957  0.9721527768591177  1.0000
  H   H581      1.0  0.04402205272021087  0.12318510196663657  0.9350353738250299  1.0000
  H   H582      1.0  0.06353412392005686  0.1290589074666864  0.9639862777350461  1.0000
  H   H583      1.0  0.04220556859804625  0.10325719856766447  0.9773303966087533  1.0000
  H   H584      1.0  0.0655514602050562  0.09094914774295094  0.8936095575552921  1.0000
  H   H585      1.0  0.0850302593227366  0.09699206655395365  0.9224657263936545  1.0000
  H   H586      1.0  0.07925212065076793  0.04720193149130836  0.9056009571020757  1.0000
  H   H587      1.0  0.049633948511322856  0.01140007601170967  0.9245489274215163  1.0000
  H   H588      1.0  0.03595950299987871  0.05474445398403138  0.9119700705608196  1.0000
  H   H589      1.0  0.0340207835997548  0.03529631988914562  0.9543668717252828  1.0000
  H   H590      1.0  0.07673810597530922  0.020051330730261  0.964298713860283  1.0000
  H   H591      1.0  0.06093117845591811  0.04370479212819146  0.9943537666672421  1.0000
  H   H592      1.0  0.0823269079908406  0.06983344688620585  0.9811138952392525  1.0000
  N   N29       1.0  0.9368873076971354  0.7427158725690238  0.48518152157937167  1.0000
  C   C497      1.0  0.920432455620287  0.7569658346065139  0.5052314257891207  1.0000
  C   C498      1.0  0.9492373558183698  0.7176998958519002  0.5069431220375403  1.0000
  C   C499      1.0  0.9478920789615346  0.7783613073973198  0.47235513042103117  1.0000
  C   C500      1.0  0.9299015806391233  0.7178575042265937  0.45634175994083176  1.0000
  H   H593      1.0  0.9110027262657621  0.7766814577941792  0.48983943742212593  1.0000
  H   H594      1.0  0.9250661441849988  0.7748285221982745  0.5278859841504364  1.0000
  H   H595      1.0  0.9115279440958072  0.7309398072112608  0.5143978396898915  1.0000
  H   H596      1.0  0.96192290058409  0.7067232716496649  0.49273753755289634  1.0000
  H   H597      1.0  0.9544642690439737  0.7354961871299247  0.5292433636229389  1.0000
  H   H598      1.0  0.9414253642179936  0.6903594634911212  0.5168265234764827  1.0000
  H   H599      1.0  0.9605759000955456  0.7689826419982034  0.4573715018195886  1.0000
  H   H600      1.0  0.9530616334954602  0.7981212642404639  0.4935442453147371  1.0000
  H   H601      1.0  0.939077693843526  0.7978975005413689  0.45564572113861346  1.0000
  H   H602      1.0  0.9214742041986379  0.6907654790320463  0.46527519787427435  1.0000
  H   H603      1.0  0.9418828557069522  0.7065686623236817  0.440474301952909  1.0000
  H   H604      1.0  0.9203434959721363  0.7357998543411404  0.43969812365559613  1.0000
  N   N30       1.0  0.7300170331652847  0.5717357364247267  0.7338960069274175  1.0000
  C   C501      1.0  0.7113526570046109  0.554289079455657  0.744305914415135  1.0000
  C   C502      1.0  0.7389180824294105  0.5928114909340436  0.7630927879645211  1.0000
  C   C503      1.0  0.7272492130290678  0.6012593982063011  0.7061573013569715  1.0000
  C   C504      1.0  0.7425791225406824  0.5386911990127572  0.7220750032610047  1.0000
  H   H605      1.0  0.7050178689426628  0.5347824674970723  0.7240156038386716  1.0000
  H   H606      1.0  0.7009613951659847  0.5786120381791922  0.7503268887583211  1.0000
  H   H607      1.0  0.7126981277840194  0.5354120289534409  0.7675642220270631  1.0000
  H   H608      1.0  0.7528507922556269  0.6072842696162744  0.75605165141149  1.0000
  H   H609      1.0  0.7295438444404353  0.6172299357727161  0.7731729757071608  1.0000
  H   H610      1.0  0.741623308649204  0.5710339954586218  0.7841591364683929  1.0000
  H   H611      1.0  0.7411331256956794  0.614480794416498  0.6976168972406322  1.0000
  H   H612      1.0  0.7181583192514813  0.6270841404109355  0.7142476394029958  1.0000
  H   H613      1.0  0.720388012759186  0.5864864935944851  0.6837650787838155  1.0000
  H   H614      1.0  0.756629227481843  0.5509952083270914  0.7132605812691037  1.0000
  H   H615      1.0  0.7361744139121515  0.521690303925435  0.7003407710146626  1.0000
  H   H616      1.0  0.7453034152975585  0.5163340981518111  0.7426597680736211  1.0000
  N   N31       1.0  0.1930773160320628  0.9325424733157814  0.6683883157328209  1.0000
  C   C505      1.0  0.19817732779448483  0.9614487865335251  0.6958143714660948  1.0000
  C   C506      1.0  0.20187444283842246  0.8926537498134618  0.6750049917399573  1.0000
  C   C507      1.0  0.20007060231112228  0.9485477801829844  0.6354865038151872  1.0000
  C   C508      1.0  0.17212498114997055  0.9274450354581515  0.6671812860585781  1.0000
  H   H617      1.0  0.21389250669117174  0.9656195235009691  0.6979568605850336  1.0000
  H   H618      1.0  0.19265955643071447  0.9505485953864624  0.7208256193247298  1.0000
  H   H619      1.0  0.1918692005288772  0.9919938518059671  0.6913670195696296  1.0000
  H   H620      1.0  0.21765636337508473  0.8952514323879655  0.6771339689953896  1.0000
  H   H621      1.0  0.19634348236591714  0.8786213847309265  0.6989061621666902  1.0000
  H   H622      1.0  0.19877322715088078  0.8706563313847969  0.6541318200800972  1.0000
  H   H623      1.0  0.19638806218084778  0.9272685728257078  0.6143126198294323  1.0000
  H   H624      1.0  0.2158628504247825  0.9525262684051845  0.6354278718575062  1.0000
  H   H625      1.0  0.19367210706993745  0.9786158756757054  0.6295776057391509  1.0000
  H   H626      1.0  0.16766961998944463  0.9061013675243628  0.646594841029267  1.0000
  H   H627      1.0  0.1650700814488668  0.9571178240749839  0.66276680600579  1.0000
  H   H628      1.0  0.16632897448087447  0.9150304285712232  0.691490879861161  1.0000
  N   N32       1.0  0.09201668256306084  0.17994762071985737  0.5929144837327277  1.0000
  C   C509      1.0  0.092339339498275  0.22360620983321955  0.583489219811655  1.0000
  C   C510      1.0  0.09979117613656041  0.15565937588968126  0.564549768615271  1.0000
  C   C511      1.0  0.0721564059059685  0.1667950691312166  0.6001127556431083  1.0000
  C   C512      1.0  0.10374948275036777  0.1738105786448017  0.6235185880236919  1.0000
  H   H629      1.0  0.08327576665183001  0.2293851124033483  0.5608857451660414  1.0000
  H   H630      1.0  0.10704784938241696  0.23469936169076824  0.5776406470023664  1.0000
  H   H631      1.0  0.08684841657211395  0.24280004475638922  0.6044680929649083  1.0000
  H   H632      1.0  0.11488143967985409  0.16421025946949  0.5590243371341904  1.0000
  H   H633      1.0  0.09931498391358606  0.12246346972878985  0.5703147773731463  1.0000
  H   H634      1.0  0.0914773635336763  0.16009513258800145  0.5409275783618758  1.0000
  H   H635      1.0  0.06585079612488132  0.1849479281158258  0.621140772027929  1.0000
  H   H636      1.0  0.07137706978301384  0.1341130364006834  0.6076904425534149  1.0000
  H   H637      1.0  0.06294118195539622  0.1703569584672018  0.5774748090809028  1.0000
  H   H638      1.0  0.11877768574078296  0.18396675246702374  0.6193836256175203  1.0000
  H   H639      1.0  0.10388255038567307  0.1410389032598785  0.6310895601107079  1.0000
  H   H640      1.0  0.09811457350683694  0.19128661110093972  0.6455114819537052  1.0000
  N   N33       1.0  0.8649874005743701  0.4076491231151707  0.8972438521267685  1.0000
  C   C513      1.0  0.8479692316428575  0.4196207395781873  0.9169480889229508  1.0000
  C   C514      1.0  0.8654953849737962  0.3626628082585049  0.8944716598133896  1.0000
  C   C515      1.0  0.8824005475058556  0.42263570051044413  0.9145534313700644  1.0000
  C   C516      1.0  0.8640776218059237  0.4256400336933186  0.8629267573612383  1.0000
  H   H641      1.0  0.8481085120062959  0.4067110881195282  0.9430376312608886  1.0000
  H   H642      1.0  0.8345795546112772  0.40874585210686165  0.9045881322050578  1.0000
  H   H643      1.0  0.8469866487521743  0.45341981058145675  0.9193571753392132  1.0000
  H   H644      1.0  0.8782671811113765  0.352568285577187  0.8799928919231806  1.0000
  H   H645      1.0  0.8660110144787466  0.34794077614956476  0.9198626588044537  1.0000
  H   H646      1.0  0.8527041925992945  0.35035244188962855  0.8810384654093728  1.0000
  H   H647      1.0  0.88359172779615  0.4096269574068765  0.9405149341437299  1.0000
  H   H648      1.0  0.8825163093793902  0.45651750045533496  0.9170579516253375  1.0000
  H   H649      1.0  0.8955247696437467  0.4140329016861093  0.9003019845226455  1.0000
  H   H650      1.0  0.8770616525165777  0.41847678441868036  0.8478094035021453  1.0000
  H   H651      1.0  0.8628723176447674  0.4593978317165801  0.8640448816443655  1.0000
  H   H652      1.0  0.8515086676178599  0.4137726775759103  0.8486022310038254  1.0000
  N   N34       1.0  0.4862536622090625  0.8235549749926279  0.5706362798149065  1.0000
  C   C517      1.0  0.4879024733000079  0.8057573618932624  0.6049320205069532  1.0000
  C   C518      1.0  0.49580236867415745  0.8641018028033787  0.570064121595347  1.0000
  C   C519      1.0  0.4659027249590582  0.8278903410620119  0.561879300515261  1.0000
  C   C520      1.0  0.4954717351432433  0.7963694069900974  0.5457131795888505  1.0000
  H   H653      1.0  0.48118294053656846  0.8255508448887487  0.6243837095265005  1.0000
  H   H654      1.0  0.5031272794756726  0.8021522568264792  0.6122734237126893  1.0000
  H   H655      1.0  0.48081796999237797  0.7752042845337268  0.6065155462672224  1.0000
  H   H656      1.0  0.49478795539597376  0.8787360688816096  0.5446907952626566  1.0000
  H   H657      1.0  0.48943317235645634  0.8852430987164686  0.589045232248016  1.0000
  H   H658      1.0  0.511224103385973  0.8617295348557832  0.5761809053598296  1.0000
  H   H659      1.0  0.46414082129911577  0.8398981941185156  0.5356748207125948  1.0000
  H   H660      1.0  0.4586294937255881  0.8491476028708604  0.5795343886670968  1.0000
  H   H661      1.0  0.4581397382313077  0.7980246220298227  0.5631221705443284  1.0000
  H   H662      1.0  0.4954190513411389  0.8098067173088697  0.5197758924476777  1.0000
  H   H663      1.0  0.48805390171395524  0.7661424784203966  0.544388794751873  1.0000
  H   H664      1.0  0.5105937029872694  0.7908469133708524  0.5525808492693118  1.0000
  N   N35       1.0  0.5510520236886047  0.041555677234144106  0.7813673202856022  1.0000
  C   C521      1.0  0.5314218641229123  0.041285051122257554  0.7678096309671611  1.0000
  C   C522      1.0  0.5641272452091567  0.02441529847815982  0.7557387436715467  1.0000
  C   C523      1.0  0.5516640384652414  0.016487437010421324  0.8124980539746984  1.0000
  C   C524      1.0  0.5570574815954779  0.08393853795784723  0.7893385272435504  1.0000
  H   H665      1.0  0.5267435210909809  0.009943640898198547  0.7602071647242734  1.0000
  H   H666      1.0  0.5303319144725572  0.06110163299005089  0.7449944470247931  1.0000
  H   H667      1.0  0.5210290817406096  0.052895271670459154  0.7867819320852399  1.0000
  H   H668      1.0  0.5634522750910438  0.0414443645101128  0.7314708375530969  1.0000
  H   H669      1.0  0.5791786354484804  0.025667020220534686  0.764504843144636  1.0000
  H   H670      1.0  0.5604356631256957  0.9920238635297672  0.7499159820772896  1.0000
  H   H671      1.0  0.5662557607727936  0.016407995748533244  0.8235594308362275  1.0000
  H   H672      1.0  0.547551217394514  0.9841099333211264  0.8072073130440115  1.0000
  H   H673      1.0  0.5418055674780007  0.02815992701886505  0.8323390415962875  1.0000
  H   H674      1.0  0.5572721675033726  0.10334179424736756  0.7661552535463401  1.0000
  H   H675      1.0  0.5716705707791412  0.08512899391500994  0.8002939669422428  1.0000
  H   H676      1.0  0.5471801110168053  0.09833537740136822  0.8078331143270745  1.0000
  N   N36       1.0  0.7160873734656873  0.7428923493033125  0.9876690967741739  1.0000
  C   C525      1.0  0.6985439007892583  0.7288400761153682  0.9702955460357627  1.0000
  C   C526      1.0  0.7170790129404863  0.7880287516230312  0.9871931920885383  1.0000
  C   C527      1.0  0.732931601190597  0.7263453681992676  0.969963032216372  1.0000
  C   C528      1.0  0.7157955036046362  0.7282683543280744  0.02312905262611009  1.0000
  H   H677      1.0  0.6972808061841974  0.6949061576352629  0.9701090894285632  1.0000
  H   H678      1.0  0.6984435095606388  0.7390998051261989  0.943443013611613  1.0000
  H   H679      1.0  0.6855000370171992  0.7411657362121489  0.9825619458185286  1.0000
  H   H680      1.0  0.7174327377992061  0.79992830774443  0.9607266820869581  1.0000
  H   H681      1.0  0.7044687037258767  0.8016525474561422  0.9999190422811906  1.0000
  H   H682      1.0  0.7301388726825646  0.7998157152934482  4.878303308974984e-05  1.0000
  H   H683      1.0  0.746464578921318  0.7358865126459758  0.9824973588736655  1.0000
  H   H684      1.0  0.7337131902146538  0.7371984647102849  0.9432674786741734  1.0000
  H   H685      1.0  0.7325218797508449  0.6923348963563717  0.9692872688226136  1.0000
  H   H686      1.0  0.7288153072548406  0.7384517390051885  0.03702082844538346  1.0000
  H   H687      1.0  0.715216374314412  0.694261210569478  0.024213214670421476  1.0000
  H   H688      1.0  0.7031813829035203  0.7398964539456523  0.03719598005957425  1.0000
  N   N37       1.0  0.08657260161178182  0.18463782442958682  0.13949790305562704  1.0000
  C   C529      1.0  0.07344901852404728  0.2126660255646765  0.12221288295445686  1.0000
  C   C530      1.0  0.1047735955219753  0.2062481240948796  0.14668444511711878  1.0000
  C   C531      1.0  0.09014843805183448  0.14907634762552127  0.1173335555854724  1.0000
  C   C532      1.0  0.07786426507542821  0.17061158606304203  0.17172918016718539  1.0000
  H   H689      1.0  0.059576879588116194  0.19731660861351  0.1162185402462831  1.0000
  H   H690      1.0  0.07962390551171783  0.223829168911342  0.09779542963435235  1.0000
  H   H691      1.0  0.07040619434778583  0.23993155661131887  0.13814800907856503  1.0000
  H   H692      1.0  0.11512817904250094  0.18602305306751188  0.15955983956352132  1.0000
  H   H693      1.0  0.11162453196696087  0.2178892991802779  0.12297843911143833  1.0000
  H   H694      1.0  0.1025699404965601  0.23298196616752398  0.16368891506285477  1.0000
  H   H695      1.0  0.09989989961147971  0.12703179201604378  0.12957033353815395  1.0000
  H   H696      1.0  0.09667423733423441  0.15869951129638427  0.09274916527195963  1.0000
  H   H697      1.0  0.07662897041365047  0.1323050101677307  0.11125723520162344  1.0000
  H   H698      1.0  0.06421324518844096  0.15372074973295136  0.16717413000474585  1.0000
  H   H699      1.0  0.0747253834724031  0.19686313080388615  0.18877372412634807  1.0000
  H   H700      1.0  0.08755317171355692  0.14991301731054715  0.18569215496855512  1.0000
  N   N38       1.0  0.20573920764116443  0.5288253841817433  0.6538201328917909  1.0000
  C   C533      1.0  0.21281950915243328  0.5078886441745073  0.6230689970545992  1.0000
  C   C534      1.0  0.21949094454105122  0.5238099274571159  0.6817998278125526  1.0000
  C   C535      1.0  0.18710234518738927  0.5108412078680115  0.6638822395339443  1.0000
  C   C536      1.0  0.20356578046678084  0.5728058032455501  0.6465531706625268  1.0000
  H   H701      1.0  0.21479216015847025  0.4746455890880649  0.6275535958311627  1.0000
  H   H702      1.0  0.2268135410713701  0.5207768706928341  0.6145871484737562  1.0000
  H   H703      1.0  0.20277956968462346  0.5108506904900152  0.6014699930397702  1.0000
  H   H704      1.0  0.21447203584214503  0.5387994742840225  0.7055019444874  1.0000
  H   H705      1.0  0.2217181723725012  0.490950279250557  0.687772080006381  1.0000
  H   H706      1.0  0.2336595882598372  0.537591944437545  0.6752881384328692  1.0000
  H   H707      1.0  0.18125283943971204  0.5260191996271553  0.6868919664490045  1.0000
  H   H708      1.0  0.188328372361684  0.47774566292013637  0.669880017264423  1.0000
  H   H709      1.0  0.17639647015116738  0.5136567874337482  0.6432812947150096  1.0000
  H   H710      1.0  0.19804791992122125  0.5896462469741255  0.6690089145132861  1.0000
  H   H711      1.0  0.19360086228485116  0.5779440227398924  0.6251224098567411  1.0000
  H   H712      1.0  0.21746200640528113  0.5873491738053075  0.6394073502122607  1.0000
  N   N39       1.0  0.337655985746503  0.842716284146279  0.4457041184072289  1.0000
  C   C537      1.0  0.33322558079911324  0.835753383894707  0.4094846024377749  1.0000
  C   C538      1.0  0.34997219942697483  0.8794679345919254  0.4491046120197663  1.0000
  C   C539      1.0  0.3476183730009746  0.806822035593348  0.4593211857540288  1.0000
  C   C540      1.0  0.31978760247381804  0.8487588717751892  0.46496293396003563  1.0000
  H   H713      1.0  0.3464591546326411  0.8323964988129002  0.3940288738375154  1.0000
  H   H714      1.0  0.32499512799360053  0.8614381583190867  0.3986427277726963  1.0000
  H   H715      1.0  0.3244269873011172  0.807536119147769  0.4059223292910803  1.0000
  H   H716      1.0  0.35391812483006657  0.8851036494615186  0.4760706668166423  1.0000
  H   H717      1.0  0.3634649510288023  0.8762648218148963  0.43442182947423585  1.0000
  H   H718      1.0  0.3427368332874854  0.9071245106606672  0.43945682437655065  1.0000
  H   H719      1.0  0.3606447395231362  0.8000908171248534  0.44421578965617153  1.0000
  H   H720      1.0  0.33835954898865733  0.7789940189747357  0.45855016596561154  1.0000
  H   H721      1.0  0.3520471642017095  0.8117331393692623  0.4861649809330883  1.0000
  H   H722      1.0  0.32264394816795533  0.8547498897021449  0.49230003478827705  1.0000
  H   H723      1.0  0.31032763958064113  0.8213618021002687  0.46332513996764735  1.0000
  H   H724      1.0  0.3115180072781677  0.8747780539146267  0.4547647133364707  1.0000
  N   N40       1.0  0.6508654744950526  0.06807177104110429  0.8593322854735668  1.0000
  C   C541      1.0  0.631677053012232  0.0711023816837939  0.8747240169462942  1.0000
  C   C542      1.0  0.6512691567949498  0.032731209124386984  0.8359984724007085  1.0000
  C   C543      1.0  0.6651789509475429  0.06263006622491796  0.8863400217174267  1.0000
  C   C544      1.0  0.6552793641735116  0.10585156719029953  0.8402141980363271  1.0000
  H   H725      1.0  0.6307943475008466  0.09746990925746202  0.8925018344806607  1.0000
  H   H726      1.0  0.6277651679966351  0.042953350283537084  0.8889997876727254  1.0000
  H   H727      1.0  0.620521227236201  0.07535312215557721  0.8550389836648096  1.0000
  H   H728      1.0  0.6654577709618574  0.029587610340264803  0.8236332464056336  1.0000
  H   H729      1.0  0.6480075460551283  0.0037078212935310884  0.8496383890154073  1.0000
  H   H730      1.0  0.6403959929492228  0.03558333544879799  0.8156348924038817  1.0000
  H   H731      1.0  0.6656731864062512  0.0894065156963384  0.9037676848055621  1.0000
  H   H732      1.0  0.6797629259625422  0.05902356186554569  0.8756417999412169  1.0000
  H   H733      1.0  0.6619119879271317  0.0350860081241422  0.9020563478888955  1.0000
  H   H734      1.0  0.6697072262495385  0.10495010979210839  0.8284419755721705  1.0000
  H   H735      1.0  0.6547781087932286  0.13315458559845195  0.8570200624122744  1.0000
  H   H736      1.0  0.6446991212890337  0.1108317505373535  0.8196633178177016  1.0000
  N   N41       1.0  0.7640245123236611  0.7267560465541563  0.5465328625009126  1.0000
  C   C545      1.0  0.7759285610255937  0.7180299157359905  0.5764510964534317  1.0000
  C   C546      1.0  0.7759776089980235  0.7457860509170681  0.5197355844218213  1.0000
  C   C547      1.0  0.7487247314966045  0.7550987280020598  0.5562817197816102  1.0000
  C   C548      1.0  0.7554631197712156  0.688238009109658  0.5337402759578216  1.0000
  H   H737      1.0  0.7675062626100835  0.7028102303255932  0.5968855341429345  1.0000
  H   H738      1.0  0.7820107289596668  0.7465218038090413  0.5874722534090295  1.0000
  H   H739      1.0  0.7880545211545961  0.6979334418723071  0.5698583281798267  1.0000
  H   H740      1.0  0.7880493269134775  0.7259007088043288  0.5123277165164577  1.0000
  H   H741      1.0  0.7675340618968104  0.75226607391314  0.4965757443229738  1.0000
  H   H742      1.0  0.7823368727868203  0.7753060480596959  0.5284833860174397  1.0000
  H   H743      1.0  0.7397679847677407  0.7423536058316326  0.5771244898916675  1.0000
  H   H744      1.0  0.7390253843274425  0.7614299602987916  0.5347020037173913  1.0000
  H   H745      1.0  0.7546576700326179  0.7848183542367168  0.5653572508304185  1.0000
  H   H746      1.0  0.7461143182952735  0.6936905188136234  0.5114931421546959  1.0000
  H   H747      1.0  0.746456079972929  0.6730637890272679  0.5534956007675597  1.0000
  H   H748      1.0  0.7665940557342716  0.6661881617208084  0.5259740791536549  1.0000
  N   N42       1.0  0.36030250243040757  0.47529381891317224  0.6433267318622812  1.0000
  C   C549      1.0  0.36154863914649377  0.43194324345549345  0.6533832544160566  1.0000
  C   C550      1.0  0.3433069149883517  0.4934828277965185  0.6593200033666248  1.0000
  C   C551      1.0  0.3586427320177813  0.4780601091977277  0.606036000223611  1.0000
  C   C552      1.0  0.3776365052619409  0.49765196790037974  0.6544950786513699  1.0000
  H   H749      1.0  0.34841820653441524  0.4144827066066311  0.6461861851560102  1.0000
  H   H750      1.0  0.36326713952998646  0.4285966452065996  0.6812829768655964  1.0000
  H   H751      1.0  0.3738684982083721  0.4168137117634573  0.6408986594883673  1.0000
  H   H752      1.0  0.34193618145028937  0.5263120248632269  0.6525508109470189  1.0000
  H   H753      1.0  0.329957176421353  0.4777233220369597  0.6509432498110103  1.0000
  H   H754      1.0  0.34382032080733116  0.4914010317378637  0.6874759979890472  1.0000
  H   H755      1.0  0.35735369865691236  0.5102632748486925  0.5975471771096821  1.0000
  H   H756      1.0  0.34583606585532467  0.46101035155782083  0.5967792428146931  1.0000
  H   H757      1.0  0.37131111757971647  0.4649710591943595  0.5930214012855215  1.0000
  H   H758      1.0  0.3907061551229317  0.48517909420120464  0.6423681522800903  1.0000
  H   H759      1.0  0.3795248088502954  0.49563316412927805  0.6824586867841371  1.0000
  H   H760      1.0  0.3770088394797387  0.5306281923448979  0.6478071421366604  1.0000
  N   N43       1.0  0.6164121522762875  0.8394013174507484  0.5839175410977686  1.0000
  C   C553      1.0  0.6217577153077521  0.88316379144307  0.5859289807839876  1.0000
  C   C554      1.0  0.5967980808400009  0.8352452529640566  0.5707070942488615  1.0000
  C   C555      1.0  0.6173772166680686  0.8210810355996935  0.6181172443035253  1.0000
  C   C556      1.0  0.6297007241406337  0.8181693571141389  0.5608996298678766  1.0000
  H   H761      1.0  0.6118430156898953  0.9002626863084067  0.6027329807560263  1.0000
  H   H762      1.0  0.6213929951961793  0.8978443889028075  0.560476798147704  1.0000
  H   H763      1.0  0.63643570421314  0.887491343959867  0.5961733261680822  1.0000
  H   H764      1.0  0.5921003025605447  0.802690503196485  0.5690076181671865  1.0000
  H   H765      1.0  0.5863900616343394  0.8510218622228736  0.5873903220187585  1.0000
  H   H766      1.0  0.5955721242895521  0.8486399970467496  0.5448423235380853  1.0000
  H   H767      1.0  0.6320642677467841  0.8235835725291943  0.6286980101789105  1.0000
  H   H768      1.0  0.6133085960624618  0.7881041939344232  0.6175741747664528  1.0000
  H   H769      1.0  0.6075485775652614  0.8365063312137214  0.6361520309409976  1.0000
  H   H770      1.0  0.6447034092822954  0.821170454519027  0.5698057618691071  1.0000
  H   H771      1.0  0.6291244247326657  0.8308248779391971  0.5347015233057972  1.0000
  H   H772      1.0  0.6262288826302773  0.7849870802360719  0.5590501496984406  1.0000
  N   N44       1.0  0.2909027682023937  0.6602766808327676  0.26493753708478235  1.0000
  C   C557      1.0  0.29389065610153525  0.7015189540013945  0.27943088997158144  1.0000
  C   C558      1.0  0.2772649792413151  0.662444479236504  0.2365179913675273  1.0000
  C   C559      1.0  0.28313995211908377  0.6326446445225962  0.29137010999722357  1.0000
  C   C560      1.0  0.30925532340242945  0.6443252067962872  0.25240645997811934  1.0000
  H   H773      1.0  0.2997913051894434  0.7232711639357698  0.2602249960271615  1.0000
  H   H774      1.0  0.30392744466833754  0.7010557515110436  0.3012000475204937  1.0000
  H   H775      1.0  0.28022054723170375  0.714388104683321  0.2888048909826695  1.0000
  H   H776      1.0  0.2631647816024695  0.673726907798176  0.24521010562482456  1.0000
  H   H777      1.0  0.2824776173670258  0.6836012980672171  0.21632587405869355  1.0000
  H   H778      1.0  0.2747845084547  0.6318846544706802  0.22479476867290402  1.0000
  H   H779      1.0  0.27995985638716436  0.6018007469900758  0.2808078581029213  1.0000
  H   H780      1.0  0.2696962980919859  0.6443821133803932  0.3024353854484919  1.0000
  H   H781      1.0  0.2933824982634294  0.6285410171782044  0.31253927491874706  1.0000
  H   H782      1.0  0.31565582599603925  0.6645424441530177  0.23258551445104841  1.0000
  H   H783      1.0  0.3074001333958546  0.6132090137815206  0.2412519865875646  1.0000
  H   H784      1.0  0.3197369617708181  0.6415322477624791  0.27335035929205875  1.0000
  N   N45       1.0  0.3827128715167163  0.8758543359916152  0.6883015925370131  1.0000
  C   C561      1.0  0.3772308455368946  0.8357286481474551  0.7028252962774976  1.0000
  C   C562      1.0  0.38697380683771204  0.871153558540821  0.6517522400741613  1.0000
  C   C563      1.0  0.3998514880849324  0.8918234376662795  0.7059213306505204  1.0000
  C   C564      1.0  0.3668415608460767  0.9046503740579894  0.6926779818120917  1.0000
  H   H785      1.0  0.3740723177277593  0.8380660641947109  0.7304498655832876  1.0000
  H   H786      1.0  0.38890669600019045  0.8132055765206826  0.6998066589129198  1.0000
  H   H787      1.0  0.3643471121093217  0.8226800280507129  0.6902514887119521  1.0000
  H   H788      1.0  0.39793292279111525  0.8475179441797488  0.6475592194124533  1.0000
  H   H789      1.0  0.3741207857500124  0.8617502582689929  0.6370926334232498  1.0000
  H   H790      1.0  0.39247981749246574  0.9001389971701543  0.6404146949388824  1.0000
  H   H791      1.0  0.40471081658055763  0.921695607977363  0.6952726065818833  1.0000
  H   H792      1.0  0.41200713467948774  0.8704746931223865  0.7034619340243199  1.0000
  H   H793      1.0  0.3971651138562988  0.8961203652581412  0.7335325399146255  1.0000
  H   H794      1.0  0.3536742544461257  0.8933342633985046  0.6797450434349657  1.0000
  H   H795      1.0  0.37049839663607603  0.9351536400523985  0.6817995603644094  1.0000
  H   H796      1.0  0.36326256292353665  0.9090779639351134  0.7199740473450464  1.0000
  N   N46       1.0  0.5241344720054382  0.1296275305930007  0.12430664633722932  1.0000
  C   C565      1.0  0.5214192522862164  0.16397580732561073  0.10059329249996951  1.0000
  C   C566      1.0  0.5198127112826789  0.09071826009543506  0.10671933764484676  1.0000
  C   C567      1.0  0.5112781727665848  0.1341529187208359  0.15388056993582389  1.0000
  C   C568      1.0  0.5441211452259903  0.1296548085692376  0.13599785594280545  1.0000
  H   H797      1.0  0.5065101959843242  0.16502795901984382  0.09117269563603458  1.0000
  H   H798      1.0  0.5310713032162272  0.16157300600204788  0.07815455748991562  1.0000
  H   H799      1.0  0.5247367485319153  0.193835224909391  0.11290613306205555  1.0000
  H   H800      1.0  0.5218849604541713  0.06414867229377298  0.12378482452125872  1.0000
  H   H801      1.0  0.5048552072260671  0.08943384564277236  0.09748377234388728  1.0000
  H   H802      1.0  0.5294526675723175  0.08620039722692852  0.0845035870250137  1.0000
  H   H803      1.0  0.5143480095132418  0.16302681199797064  0.16798368067801572  1.0000
  H   H804      1.0  0.5128960207537093  0.10848544379047764  0.17214008452709106  1.0000
  H   H805      1.0  0.49606015915472906  0.13461366904153874  0.1460650111663515  1.0000
  H   H806      1.0  0.5466728473449838  0.10449125454953268  0.1543263033395963  1.0000
  H   H807      1.0  0.548027092952517  0.15894882313662603  0.14854958123358109  1.0000
  H   H808      1.0  0.5542290071484064  0.1255628800531372  0.11440126915272342  1.0000
  N   N47       1.0  0.05407604515197395  0.3977979689918164  0.020826417744898906  1.0000
  C   C569      1.0  0.048641659315127095  0.39272057274547845  0.9848311129651609  1.0000
  C   C570      1.0  0.052974002427858435  0.4413695859308171  0.030309795161224118  1.0000
  C   C571      1.0  0.07377821766155623  0.3834263186562862  0.025731925492639585  1.0000
  C   C572      1.0  0.04086040410734926  0.3736783549364792  0.04247398030762395  1.0000
  H   H809      1.0  0.049649605294884935  0.3603010772692305  0.9766715634735671  1.0000
  H   H810      1.0  0.057995487215678265  0.41115421166508664  0.9677036558759952  1.0000
  H   H811      1.0  0.03359242664800721  0.4017931051923949  0.9804028653311221  1.0000
  H   H812      1.0  0.06278335728447071  0.46052571972184436  0.01452015059676337  1.0000
  H   H813      1.0  0.038263913514857695  0.4530570147419371  0.02686926572174153  1.0000
  H   H814      1.0  0.0569414327416875  0.44622616950316984  0.05737216577303794  1.0000
  H   H815      1.0  0.07843690953883486  0.3869244125623493  0.05257637765812806  1.0000
  H   H816      1.0  0.084166033953881  0.4005166108506149  0.009521506539580171  1.0000
  H   H817      1.0  0.07506645520954147  0.3504837055496854  0.0192040468740029  1.0000
  H   H818      1.0  0.044239323909260886  0.3773200515981509  0.06989037364829498  1.0000
  H   H819      1.0  0.04156526331370358  0.3406001591524268  0.03634748504139673  1.0000
  H   H820      1.0  0.02575887624026474  0.38267306353224645  0.03860318527849982  1.0000
  N   N48       1.0  0.5531532126342529  0.9460673093557704  0.33913862617585966  1.0000
  C   C573      1.0  0.5464739636141955  0.9682661008218965  0.3695205851448832  1.0000
  C   C574      1.0  0.5638497661540207  0.9744463679316749  0.3166923899459555  1.0000
  C   C575      1.0  0.5365458027687913  0.928849675138372  0.32085487296665044  1.0000
  C   C576      1.0  0.5657467365662001  0.9125620423943668  0.3494741301534564  1.0000
  H   H821      1.0  0.5366042459088343  0.9932298256858615  0.3625442461293201  1.0000
  H   H822      1.0  0.5586015624410254  0.982196692809005  0.3836610599609129  1.0000
  H   H823      1.0  0.5387997491452068  0.9474591380796957  0.38747657198812985  1.0000
  H   H824      1.0  0.5769449703318862  0.9865989571776478  0.32926980640962944  1.0000
  H   H825      1.0  0.568364556488814  0.9591014780272218  0.29282110085440394  1.0000
  H   H826      1.0  0.555072040475537  0.0010367244541003018  0.309416848235334  1.0000
  H   H827      1.0  0.5411412707313514  0.9111005008267522  0.2982728395801814  1.0000
  H   H828      1.0  0.52694989514713  0.9533648740189299  0.31187267502385924  1.0000
  H   H829      1.0  0.5279589625864204  0.90808331301918  0.33743823749575663  1.0000
  H   H830      1.0  0.571134097775786  0.8953991059637779  0.32712810657143043  1.0000
  H   H831      1.0  0.5581677314389298  0.8903007398219317  0.36624537917593564  1.0000
  H   H832      1.0  0.5783351187917053  0.9244316768021149  0.3636315985094223  1.0000
  N   N49       1.0  0.7440193806046782  0.8134177882536451  0.7798828209816775  1.0000
  C   C577      1.0  0.7230308721506387  0.8088685826274323  0.781907487594339  1.0000
  C   C578      1.0  0.7520058460678559  0.7794465392510689  0.7598177925538618  1.0000
  C   C579      1.0  0.7521632283345011  0.8129533585859231  0.8143956273034444  1.0000
  C   C580      1.0  0.7488999041943861  0.8526560792432293  0.7632629190788917  1.0000
  H   H833      1.0  0.7164912745205865  0.8090875473724446  0.756234588612934  1.0000
  H   H834      1.0  0.7164993401519596  0.8339368499331  0.7968645964837552  1.0000
  H   H835      1.0  0.7185968826318467  0.7797500292992566  0.794185903445133  1.0000
  H   H836      1.0  0.7494542401718256  0.7494250192805872  0.7721964025268306  1.0000
  H   H837      1.0  0.7455291886039602  0.7777337122659753  0.7341617304046255  1.0000
  H   H838      1.0  0.7676941281055931  0.7831058089374782  0.7561749531236992  1.0000
  H   H839      1.0  0.767963751563492  0.8167165467936451  0.8137501737973813  1.0000
  H   H840      1.0  0.7488519321891602  0.7836859576146218  0.8275632002698846  1.0000
  H   H841      1.0  0.7462184172923435  0.8377162317597346  0.8304999455973888  1.0000
  H   H842      1.0  0.7424997684849253  0.8544281301322642  0.7375217314696804  1.0000
  H   H843      1.0  0.7645947122861027  0.8565466438987668  0.7599123078797735  1.0000
  H   H844      1.0  0.7435833778345844  0.8790588517311329  0.7781528936692916  1.0000
  N   N50       1.0  0.8173759656793705  0.6131830679081383  0.8787001644637721  1.0000
  C   C581      1.0  0.7963391241931543  0.6143754869590241  0.880641344355734  1.0000
  C   C582      1.0  0.8232242009016948  0.6005421074141  0.8442142350654575  1.0000
  C   C583      1.0  0.8244996592821557  0.5835240412217236  0.9037080554162473  1.0000
  C   C584      1.0  0.8254126613918358  0.6541876369001176  0.88616617182992  1.0000
  H   H845      1.0  0.7913209650440661  0.6224065302713824  0.9066152913177057  1.0000
  H   H846      1.0  0.789833150400502  0.5842967890372815  0.873884891126658  1.0000
  H   H847      1.0  0.790528787644263  0.6373108637018754  0.8628287673635171  1.0000
  H   H848      1.0  0.8390462910641237  0.6004208759354334  0.8415613129304687  1.0000
  H   H849      1.0  0.8178226734625929  0.569276528578975  0.8380847808976263  1.0000
  H   H850      1.0  0.8175691225389959  0.6215441782889789  0.8246415642151946  1.0000
  H   H851      1.0  0.8191148714995196  0.5521077195326091  0.8982155693252601  1.0000
  H   H852      1.0  0.8199421729637397  0.5914211621839864  0.9299549511207548  1.0000
  H   H853      1.0  0.8403472896890998  0.5824232082322315  0.9034855420647905  1.0000
  H   H854      1.0  0.8412878565983605  0.6544027974177976  0.8847854352994864  1.0000
  H   H855      1.0  0.8213277081121624  0.6646650900160445  0.9120142657807955  1.0000
  H   H856      1.0  0.8203567056610465  0.6772926590765415  0.8677151132598533  1.0000
  N   N51       1.0  0.5703866192950556  0.30080503835879313  0.8314557904143478  1.0000
  C   C585      1.0  0.5705623898582234  0.25572913824346716  0.8293307954056419  1.0000
  C   C586      1.0  0.5525466790778061  0.31616952529255515  0.8165516267820272  1.0000
  C   C587      1.0  0.58690508521994  0.3177542744955546  0.8124331893679201  1.0000
  C   C588      1.0  0.5715057744733256  0.31356962695126545  0.8674361417205729  1.0000
  H   H857      1.0  0.5838644797490408  0.24317617547581535  0.8403704132486111  1.0000
  H   H858      1.0  0.5697987806949021  0.24507145392286137  0.8025115266695745  1.0000
  H   H859      1.0  0.5583007350022468  0.24172049252531447  0.8432859809677982  1.0000
  H   H860      1.0  0.5518787478324748  0.3500774321978737  0.818021311733235  1.0000
  H   H861      1.0  0.5512893216201256  0.30776434629027594  0.7892859759595479  1.0000
  H   H862      1.0  0.5397350200763977  0.3034889876935374  0.8298289547825383  1.0000
  H   H863      1.0  0.5873713783434118  0.3516992941844487  0.8135509285585941  1.0000
  H   H864      1.0  0.5863888014701895  0.3088245175152133  0.7851235066848689  1.0000
  H   H865      1.0  0.600612936615529  0.30647298823795616  0.8227067803564388  1.0000
  H   H866      1.0  0.5717986489534894  0.34741795247060125  0.8700562005680975  1.0000
  H   H867      1.0  0.5845513957004314  0.3019998782044431  0.8799026834156612  1.0000
  H   H868      1.0  0.5591195571996267  0.3017345686614556  0.8824157180770904  1.0000
  N   N52       1.0  0.603924286244873  0.9072635007931243  0.10017205561616664  1.0000
  C   C589      1.0  0.62314793430765  0.9008487444883663  0.08573105604693132  1.0000
  C   C590      1.0  0.589395894481827  0.8933257220316474  0.07549953706889534  1.0000
  C   C591      1.0  0.6014196267130064  0.9511888946995088  0.1072957986248025  1.0000
  C   C592      1.0  0.6017608149782934  0.8837948491231209  0.1320323585923248  1.0000
  H   H869      1.0  0.6344938935078415  0.9109083993222264  0.10367834162129276  1.0000
  H   H870      1.0  0.6252366222863956  0.9184091072903161  0.061722348315286  1.0000
  H   H871      1.0  0.6254611763057165  0.8680880852638461  0.07965305136212075  1.0000
  H   H872      1.0  0.5911607046392233  0.9091795246148072  0.05069105292629405  1.0000
  H   H873      1.0  0.5903338302296558  0.8600068089364115  0.07037500564305832  1.0000
  H   H874      1.0  0.5746657317818089  0.8994315152820502  0.08470805789824931  1.0000
  H   H875      1.0  0.6033300370673708  0.9698295633022396  0.08391446480842202  1.0000
  H   H876      1.0  0.6118404913825756  0.962641090974998  0.12638956540916638  1.0000
  H   H877      1.0  0.5869000527969171  0.9574359288781367  0.11739331734994253  1.0000
  H   H878      1.0  0.5873086536871694  0.8874229672489482  0.14328701706628477  1.0000
  H   H879      1.0  0.6121583596340392  0.894127863698481  0.15164453952693074  1.0000
  H   H880      1.0  0.6038328614474744  0.8505609279261748  0.12782404881653814  1.0000
  N   N53       1.0  0.5020321149554385  0.30521378553222467  0.307895137685056  1.0000
  C   C593      1.0  0.5202435636535514  0.2839361427355394  0.3130796074720137  1.0000
  C   C594      1.0  0.49028600279744095  0.3025324220789919  0.33906370235891375  1.0000
  C   C595      1.0  0.4915867513457868  0.28579133787533917  0.2795183924219467  1.0000
  C   C596      1.0  0.5059657989298849  0.34859804766151337  0.29981819978374175  1.0000
  H   H881      1.0  0.5294990314135795  0.2861371300929046  0.2900932302293754  1.0000
  H   H882      1.0  0.517842930979846  0.2507614983840901  0.31800945555902277  1.0000
  H   H883      1.0  0.5283710108265972  0.2969796310690639  0.3348032147981144  1.0000
  H   H884      1.0  0.4763829059990167  0.3181101799003102  0.33563692018894625  1.0000
  H   H885      1.0  0.4871108272265566  0.27017905876003023  0.3459396418619253  1.0000
  H   H886      1.0  0.4976115415734247  0.31726796994074113  0.36098715261101094  1.0000
  H   H887      1.0  0.48860577997566507  0.2528522346150946  0.2844345592225728  1.0000
  H   H888      1.0  0.4999958292118348  0.2874443639139353  0.25552254611064384  1.0000
  H   H889      1.0  0.4777156334369657  0.30090333412313597  0.2748602503230866  1.0000
  H   H890      1.0  0.5145051103705447  0.3638513527213375  0.32000384836759943  1.0000
  H   H891      1.0  0.4924974308657  0.3659175683934165  0.29725526514958645  1.0000
  H   H892      1.0  0.5138772930711925  0.3518855439677315  0.2753679723156411  1.0000
  N   N54       1.0  0.5869949798310249  0.41028151935423174  0.2454796133659621  1.0000
  C   C597      1.0  0.5665057058313135  0.41775034815295564  0.25155232890432744  1.0000
  C   C598      1.0  0.5979614437884722  0.44874022996078583  0.25000839915088235  1.0000
  C   C599      1.0  0.5897110497554812  0.39517762944085755  0.21046485754235741  1.0000
  C   C600      1.0  0.5938241700290591  0.3794204111402577  0.2697697943933654  1.0000
  H   H893      1.0  0.5638692699042089  0.42975145967641165  0.2775366982024635  1.0000
  H   H894      1.0  0.557836915269918  0.3892442387272904  0.2485191984300727  1.0000
  H   H895      1.0  0.5607559096247989  0.4400974223945451  0.23302955561797717  1.0000
  H   H896      1.0  0.6134716932047581  0.44407924724302134  0.24547620341129628  1.0000
  H   H897      1.0  0.5931371108047635  0.47265318187464256  0.23202945211619802  1.0000
  H   H898      1.0  0.5962914532256596  0.4609849368956174  0.2762052774187122  1.0000
  H   H899      1.0  0.6049377359895676  0.3883534372442755  0.20502479602034515  1.0000
  H   H900      1.0  0.5846553767878909  0.41752118175912145  0.191323764617998  1.0000
  H   H901      1.0  0.5814660031876986  0.3665336508683611  0.20618281241426198  1.0000
  H   H902      1.0  0.6091574854418621  0.37243483985781634  0.2654663398397805  1.0000
  H   H903      1.0  0.585801680126  0.35005626787540906  0.26711675655152095  1.0000
  H   H904      1.0  0.5922204681484526  0.38973826253105837  0.2965253190914122  1.0000
  N   N55       1.0  0.10372329098420278  0.3534334027918512  0.4017595170270195  1.0000
  C   C601      1.0  0.09546078749496219  0.37922727062052336  0.3749640406765752  1.0000
  C   C602      1.0  0.12048912890235197  0.37464728251192275  0.4165049357970482  1.0000
  C   C603      1.0  0.10969318926051341  0.31414333826441126  0.38690660372029523  1.0000
  C   C604      1.0  0.08928369079761053  0.3457011084619202  0.42853880082771545  1.0000
  H   H905      1.0  0.09074355743080503  0.4091096365654968  0.38520134539563317  1.0000
  H   H906      1.0  0.08283395923299702  0.3641024422227034  0.36309110476029643  1.0000
  H   H907      1.0  0.10603550484413292  0.38566476788632154  0.354364101777208  1.0000
  H   H908      1.0  0.1272307579521123  0.3559334477892331  0.436578154898131  1.0000
  H   H909      1.0  0.1315742993681731  0.3810547931533318  0.39674845591215735  1.0000
  H   H910      1.0  0.11651142523472757  0.40441925321501704  0.4279770431925251  1.0000
  H   H911      1.0  0.11558013723225224  0.2934088275028489  0.4064307845456545  1.0000
  H   H912      1.0  0.12083220432456578  0.31872536362138937  0.367049254431697  1.0000
  H   H913      1.0  0.09753688142074857  0.2979024695644161  0.3746408877399016  1.0000
  H   H914      1.0  0.09507022315014305  0.32680873266501753  0.4494516118984427  1.0000
  H   H915      1.0  0.07665902009378807  0.32897849218761166  0.4182776209993691  1.0000
  H   H916      1.0  0.08403739208048887  0.37465399283898054  0.4398069473659164  1.0000
  N   N56       1.0  0.3196724810323229  0.6785361877648235  0.6044560948406181  1.0000
  C   C605      1.0  0.3283709007307554  0.6470583337303804  0.6260933450335127  1.0000
  C   C606      1.0  0.30704569958579275  0.7043083453923373  0.6252677674387864  1.0000
  C   C607      1.0  0.30841839502372986  0.6585710107996746  0.577332861168775  1.0000
  C   C608      1.0  0.33486331744010855  0.7043440636339209  0.5890899497183865  1.0000
  H   H917      1.0  0.3173634637204511  0.6279438159172622  0.6391646748280733  1.0000
  H   H918      1.0  0.3376517279256433  0.6609979790841176  0.6459446853890903  1.0000
  H   H919      1.0  0.3373925981615515  0.6260494558945829  0.610936913858733  1.0000
  H   H920      1.0  0.2999348386860691  0.7278077664478543  0.6096009880884095  1.0000
  H   H921      1.0  0.2955411293501637  0.6861792093197515  0.6377339007747695  1.0000
  H   H922      1.0  0.315042505930602  0.7203060370388438  0.6457733801445951  1.0000
  H   H923      1.0  0.301439617621939  0.6815193128177119  0.560865289138877  1.0000
  H   H924      1.0  0.2969508525994952  0.6385977745481664  0.5881009481450992  1.0000
  H   H925      1.0  0.3175622242684481  0.639126856023757  0.5609844050935326  1.0000
  H   H926      1.0  0.3288549813771447  0.7285201933317257  0.572587014441061  1.0000
  H   H927      1.0  0.3448504555906047  0.6858729071841957  0.5735100503839776  1.0000
  H   H928      1.0  0.3435209246440617  0.7200193665105123  0.6089066368560604  1.0000
  N   N57       1.0  0.24099763331306395  0.338719729469372  0.3523688572513418  1.0000
  C   C609      1.0  0.23187051495239616  0.37536709183802336  0.36653802556177434  1.0000
  C   C610      1.0  0.2585853319569986  0.35090794392445834  0.33398851700233484  1.0000
  C   C611      1.0  0.22770537948269653  0.3182336734736127  0.3285789634549925  1.0000
  C   C612      1.0  0.24585576510208854  0.31078023699660795  0.3803458179513056  1.0000
  H   H929      1.0  0.2287134416751911  0.3976290789620754  0.3461865798021914  1.0000
  H   H930      1.0  0.24127410093751858  0.39109433532275323  0.38526294683693907  1.0000
  H   H931      1.0  0.21816127169339408  0.36775495996022767  0.3795151219724193  1.0000
  H   H932      1.0  0.2660731062395131  0.324030796370605  0.3233571672454552  1.0000
  H   H933      1.0  0.2553497063840628  0.37157011044994115  0.3123518913037809  1.0000
  H   H934      1.0  0.2687814141201178  0.3673629207670466  0.35100861035110587  1.0000
  H   H935      1.0  0.23402523430999245  0.2902509037740259  0.3174687915973297  1.0000
  H   H936      1.0  0.2240533675402568  0.3387897891551302  0.3070733799956005  1.0000
  H   H937      1.0  0.21404875988610056  0.3094421813672631  0.34128061360931117  1.0000
  H   H938      1.0  0.2528415268881882  0.28275533534963315  0.37067731149449284  1.0000
  H   H939      1.0  0.2329253659724566  0.3012649715618842  0.394944611870684  1.0000
  H   H940      1.0  0.25591436203998674  0.3258239149007505  0.3985314921136815  1.0000
  N   N58       1.0  0.18550670445268452  0.7688471619588603  0.3328789908394061  1.0000
  C   C613      1.0  0.166555461236335  0.748598239657521  0.3314399193572317  1.0000
  C   C614      1.0  0.19768580648695602  0.7471151153656439  0.3572987987723283  1.0000
  C   C615      1.0  0.18329142646712435  0.8117700618008169  0.3437854572227503  1.0000
  C   C616      1.0  0.19443904326472553  0.7678361206173885  0.29886209147124243  1.0000
  H   H941      1.0  0.1569769504106517  0.764365762411227  0.3133130670039058  1.0000
  H   H942      1.0  0.15940580204472482  0.7486509012952306  0.3567205868269131  1.0000
  H   H943      1.0  0.16770737042857728  0.716245027768941  0.3230168697324637  1.0000
  H   H944      1.0  0.21210316231269286  0.7614743039048231  0.3589720942449824  1.0000
  H   H945      1.0  0.1914366723293273  0.747265744790207  0.38330419102689106  1.0000
  H   H946      1.0  0.19977159702377653  0.7146898761753886  0.34968275786681063  1.0000
  H   H947      1.0  0.17398648630395303  0.8288529157199647  0.32607829810425487  1.0000
  H   H948      1.0  0.19726647672966843  0.8283525872072034  0.3445516695973466  1.0000
  H   H949      1.0  0.17686255176086244  0.8138158948004582  0.3695842499884878  1.0000
  H   H950      1.0  0.19737921274449197  0.7360232181968137  0.29052452398847445  1.0000
  H   H951      1.0  0.20828708218232153  0.7848496741136695  0.2984769419531406  1.0000
  H   H952      1.0  0.18517513883370468  0.7818855444820552  0.27941177044131205  1.0000
  N   N59       1.0  0.9698850969120609  0.4103116157941582  0.4870806748118148  1.0000
  C   C617      1.0  0.9671756498523737  0.45135766752851264  0.5018692454521907  1.0000
  C   C618      1.0  0.9537634076511873  0.40044185674291427  0.4643265663085295  1.0000
  C   C619      1.0  0.9706167052612503  0.3797745044952492  0.5146076325562469  1.0000
  C   C620      1.0  0.9879345784244127  0.4095305054720413  0.4675425390528186  1.0000
  H   H953      1.0  0.9792391742695246  0.46038146017490006  0.5186513929729025  1.0000
  H   H954      1.0  0.9538871679285185  0.4525436887325322  0.5174355849979618  1.0000
  H   H955      1.0  0.9659337429030509  0.47510595522353116  0.48184712814397446  1.0000
  H   H956      1.0  0.9398612060896159  0.4024784695076229  0.47792649077479044  1.0000
  H   H957      1.0  0.9531991697187564  0.42176703332900367  0.442423230910255  1.0000
  H   H958      1.0  0.9547202740106031  0.36882703006801143  0.4540419573475423  1.0000
  H   H959      1.0  0.9817686065778463  0.38775239022430225  0.5335703382314991  1.0000
  H   H960      1.0  0.9739951278656854  0.34901196234217613  0.5044662420716981  1.0000
  H   H961      1.0  0.9567224477590915  0.37704552775170935  0.5282274612542613  1.0000
  H   H962      1.0  0.9901355193156991  0.3791460794863084  0.4554193656495089  1.0000
  H   H963      1.0  0.0004975786880545563  0.41559654090116877  0.4840690220999867  1.0000
  H   H964      1.0  0.9881167134178783  0.43270264560720717  0.44692176901592073  1.0000
  N   N60       1.0  0.40591446810952864  0.40446691533014134  0.4236263888918687  1.0000
  C   C621      1.0  0.3850833485856957  0.40746392304098394  0.42887423848826195  1.0000
  C   C622      1.0  0.409835776859629  0.37536069414866796  0.3958672417107849  1.0000
  C   C623      1.0  0.41491878870479  0.3899202452043754  0.4551100075361423  1.0000
  C   C624      1.0  0.41385533635687005  0.44514273028568024  0.4147456417330364  1.0000
  H   H965      1.0  0.38163489646692517  0.4295928397011469  0.4494059350497705  1.0000
  H   H966      1.0  0.37862442113839023  0.3775513285925557  0.43631817848013565  1.0000
  H   H967      1.0  0.37779218123614616  0.4178229846214748  0.4054085500934372  1.0000
  H   H968      1.0  0.4254349745580009  0.3726422572054086  0.3911804607467066  1.0000
  H   H969      1.0  0.4040105378160611  0.3444034445784346  0.4017741547130352  1.0000
  H   H970      1.0  0.40321644659488864  0.38531143758073527  0.37167703090463033  1.0000
  H   H971      1.0  0.43066374697868764  0.38740694643873036  0.4521874586047103  1.0000
  H   H972      1.0  0.4091625131570453  0.35949073399429166  0.4628886625765448  1.0000
  H   H973      1.0  0.4121986390391315  0.41117530498279653  0.4764654371200371  1.0000
  H   H974      1.0  0.4295205872944134  0.4440325246383241  0.4104376456004736  1.0000
  H   H975      1.0  0.41128592191418695  0.46772605340575857  0.4353126291787562  1.0000
  H   H976      1.0  0.40732049555686856  0.4571447017357201  0.3911296287068373  1.0000
  N   N61       1.0  0.04918762026295265  0.8393861767630835  0.8197077805787941  1.0000
  C   C625      1.0  0.05085574050571062  0.8627999115592322  0.8516784142084295  1.0000
  C   C626      1.0  0.03037818516719337  0.8184663414956984  0.8185288630244819  1.0000
  C   C627      1.0  0.06445396405043868  0.8087712401111593  0.8181404492333688  1.0000
  C   C628      1.0  0.051098068357530835  0.8674834323138677  0.7905344364274096  1.0000
  H   H977      1.0  0.049524416112398224  0.842464886042512  0.8742167284644616  1.0000
  H   H978      1.0  0.03942447421033024  0.885903567050116  0.8539173353637406  1.0000
  H   H979      1.0  0.06481596513781529  0.8792773512264548  0.8534189140454944  1.0000
  H   H980      1.0  0.028288279387905794  0.8016430195570046  0.7942658627434703  1.0000
  H   H981      1.0  0.0287186082844213  0.7960050774350588  0.8395837694553162  1.0000
  H   H982      1.0  0.018520186850998547  0.8405445576120016  0.8212550856792196  1.0000
  H   H983      1.0  0.06363821963677352  0.7905187438088851  0.7943311871938455  1.0000
  H   H984      1.0  0.06343285594183956  0.7871376742195492  0.8398910713624741  1.0000
  H   H985      1.0  0.07883306127153007  0.823626893722498  0.8190264150351442  1.0000
  H   H986      1.0  0.04961265698674233  0.8511454282933849  0.7659026746877392  1.0000
  H   H987      1.0  0.06527397289621595  0.8832078916272021  0.7902794721559256  1.0000
  H   H988      1.0  0.040072129441635976  0.8916318007023748  0.7912268321778757  1.0000
  N   N62       1.0  0.24850528278057002  0.577174149402232  0.48231517331854784  1.0000
  C   C629      1.0  0.2593501702811595  0.5462142203895373  0.501172766332374  1.0000
  C   C630      1.0  0.23304797019148155  0.5567906983997151  0.4630232022450294  1.0000
  C   C631      1.0  0.26143179350403417  0.5990839581903562  0.4586196936472976  1.0000
  C   C632      1.0  0.24014376045694852  0.6066754738775431  0.5063700989009288  1.0000
  H   H989      1.0  0.27099239986899154  0.5604167848621492  0.5164261496145859  1.0000
  H   H990      1.0  0.26593186430625604  0.5235914345783284  0.4836850224728813  1.0000
  H   H991      1.0  0.2499860666795636  0.528781487099106  0.5190616994798292  1.0000
  H   H992      1.0  0.23884262584934804  0.535321389350406  0.4437424431496241  1.0000
  H   H993      1.0  0.22330244169386637  0.5391124980912926  0.48002562818586064  1.0000
  H   H994      1.0  0.2242741452547847  0.5793659306671554  0.44917047769129387  1.0000
  H   H995      1.0  0.2674521831092197  0.578007971838779  0.439257864673009  1.0000
  H   H996      1.0  0.2735233417347274  0.6139980825814603  0.47220232147103103  1.0000
  H   H997      1.0  0.25377670412398073  0.6233345139077376  0.44456765138472  1.0000
  H   H998      1.0  0.23210303412079494  0.6308506513152976  0.4929615497490277  1.0000
  H   H999      1.0  0.25131207557238255  0.622288444048999  0.5218508469868122  1.0000
  H   H1000     1.0  0.23000848796962972  0.5914503315732068  0.5242950521955583  1.0000
  N   N63       1.0  0.37227088246916307  0.920533103264971  0.21580448814077766  1.0000
  C   C633      1.0  0.3784929339636209  0.8777695728344063  0.21241350615437657  1.0000
  C   C634      1.0  0.3858358545415522  0.947691857853056  0.19753946244988949  1.0000
  C   C635      1.0  0.37174230457240887  0.931955597843182  0.2520992023241328  1.0000
  C   C636      1.0  0.3530033294260415  0.9246857986689709  0.2012355853859753  1.0000
  H   H1001     1.0  0.3688223431725113  0.8565254830656478  0.226493823606665  1.0000
  H   H1002     1.0  0.3931309276957086  0.8737589664158034  0.2226378677148171  1.0000
  H   H1003     1.0  0.3786864502404251  0.8676700993875027  0.1854599412535345  1.0000
  H   H1004     1.0  0.3866402359032621  0.9397995804888146  0.1701062636858967  1.0000
  H   H1005     1.0  0.38169421872481274  0.9802606947507689  0.19971317468957842  1.0000
  H   H1006     1.0  0.400523667799082  0.9452318263388659  0.20796795734273157  1.0000
  H   H1007     1.0  0.36702483819533727  0.9639649835088472  0.2556639879417171  1.0000
  H   H1008     1.0  0.38608071375591274  0.9294174888910286  0.2639281790208726  1.0000
  H   H1009     1.0  0.3617128979898607  0.9118027355550686  0.2666444001016641  1.0000
  H   H1010     1.0  0.3479796308439585  0.9567143782790688  0.20279552787422178  1.0000
  H   H1011     1.0  0.34235202893760835  0.905482611389532  0.2151310353612028  1.0000
  H   H1012     1.0  0.3526336061166201  0.9151167075058779  0.17414749700944837  1.0000
  N   N64       1.0  0.6180429186140606  0.8162756202502747  0.8038920183104663  1.0000
  C   C637      1.0  0.6004630311125915  0.8124028596275439  0.7835052357663373  1.0000
  C   C638      1.0  0.6172834232181235  0.8537622559183592  0.8247224863347303  1.0000
  C   C639      1.0  0.6347725721920399  0.8185864393967986  0.7810449099600294  1.0000
  C   C640      1.0  0.6197364497680335  0.7803878144747799  0.8263184595663139  1.0000
  H   H1013     1.0  0.5990478177373011  0.8384393871273245  0.7656235113113375  1.0000
  H   H1014     1.0  0.5874467764134916  0.8119453217065689  0.799833770495371  1.0000
  H   H1015     1.0  0.6003071359833932  0.7839406638527917  0.7680731101198551  1.0000
  H   H1016     1.0  0.630112369254585  0.8570593890912644  0.8411272404233969  1.0000
  H   H1017     1.0  0.6164758510085881  0.881538622007806  0.8086262130905084  1.0000
  H   H1018     1.0  0.6045864723736892  0.8533981733874935  0.8417550952705377  1.0000
  H   H1019     1.0  0.6361207662521985  0.7903785797004991  0.7654543572983463  1.0000
  H   H1020     1.0  0.6482682232862097  0.8223743825429977  0.795573634540195  1.0000
  H   H1021     1.0  0.633927241759742  0.8448643240774952  0.7632699952259374  1.0000
  H   H1022     1.0  0.6331835566185208  0.7818746906052597  0.8411761938842297  1.0000
  H   H1023     1.0  0.6198849571004427  0.7513939271053791  0.811578832433679  1.0000
  H   H1024     1.0  0.6077616141087415  0.7786170752018601  0.844944998302863  1.0000
