data_image0
_chemical_formula_structural       FeS2FeS2FeSFeS3FeS2FeS2FeSFeS3FeS2FeS2FeSFeS3FeS2FeS2FeSFeS3FeS2FeS2FeSFeS3FeS2FeS2FeSFeS3FeS2FeS2FeSFeS3FeS2FeS2FeSFeS3FeS2FeS2FeSFeS3FeS2FeS2FeSFeS3FeS2FeS2FeSFeS3FeS2FeS2FeSFeS3FeS2FeS2FeSFeS3FeS2FeS2FeSFeS3FeS2FeS2FeSFeS3FeS2FeS2FeSFeS3FeS2FeS2FeSFeS3FeS2FeS2FeSFeS3FeS2FeS2FeSFeS3FeS2FeS2FeSFeS3FeS2FeS2FeSFeS3FeS2FeS2FeSFeS3FeS2FeS2FeSFeS3FeS2FeS2FeSFeS3FeS2FeS2FeSFeS3FeS2FeS2FeSFeS3FeS2FeS2FeSFeS3FeS2FeS2FeSFeS3C6H4C6H4C6H4C6H4C6H4C6H4C6H4C6H4C6H4C6H4C6H4C6H4C6H4C6H4C6H4C6H4C6H4C6H4C6H4C6H4C6H4C6H4C6H4C6H4C6H4C6H4C6H4C6H4C6H4C6H4C6H4C6H4C6H4C6H4C6H4C6H4C6H4C6H4C6H4C6H4C6H4C6H4C6H4C6H4C6H4C6H4C6H4C6H4C6H4C6H4C6H4C6H4C6H4C6H4C6H4C6H4NC4H12NC4H12NC4H12NC4H12NC4H12NC4H12NC4H12NC4H12NC4H12NC4H12NC4H12NC4H12NC4H12NC4H12NC4H12NC4H12NC4H12NC4H12NC4H12NC4H12NC4H12NC4H12NC4H12NC4H12NC4H12NC4H12NC4H12NC4H12NC4H12NC4H12NC4H12NC4H12NC4H12NC4H12NC4H12NC4H12NC4H12NC4H12NC4H12NC4H12NC4H12NC4H12NC4H12NC4H12NC4H12NC4H12NC4H12NC4H12NC4H12NC4H12NC4H12NC4H12NC4H12NC4H12NC4H12NC4H12
_chemical_formula_sum              "Fe112 S224 C560 H896 N56"
_cell_length_a       50.51307189433807
_cell_length_b       50.61808208427137
_cell_length_c       64.91133440922493
_cell_angle_alpha    87.9246172863997
_cell_angle_beta     88.02449316194452
_cell_angle_gamma    119.92577970270882

_space_group_name_H-M_alt    "P 1"
_space_group_IT_number       1

loop_
  _space_group_symop_operation_xyz
  'x, y, z'

loop_
  _atom_site_type_symbol
  _atom_site_label
  _atom_site_symmetry_multiplicity
  _atom_site_fract_x
  _atom_site_fract_y
  _atom_site_fract_z
  _atom_site_occupancy
  Fe  Fe1       1.0  0.5146237503791127  0.2697378908556354  0.332847592539585  1.0000
  S   S1        1.0  0.4753905369203561  0.266933304476873  0.31591595565302877  1.0000
  S   S2        1.0  0.5447609598677382  0.30691662575403694  0.3529196662931966  1.0000
  Fe  Fe2       1.0  0.5065104391951899  0.21104958889643416  0.31742933803768886  1.0000
  S   S3        1.0  0.46716105404493763  0.2035582463210314  0.2987705567407106  1.0000
  S   S4        1.0  0.5216039986826125  0.17629253565368844  0.31779523377962454  1.0000
  Fe  Fe3       1.0  0.4955140137919327  0.25342446792272194  0.289482166370709  1.0000
  S   S5        1.0  0.499253967803374  0.2738675494914038  0.25716883206958874  1.0000
  Fe  Fe4       1.0  0.4508013880473012  0.2172402439841599  0.32702246233261634  1.0000
  S   S6        1.0  0.4007739081282139  0.18568153515051256  0.3375460208509559  1.0000
  S   S7        1.0  0.5364998920765746  0.25986347765190426  0.30582217169682735  1.0000
  S   S8        1.0  0.48864124935221065  0.22140451988395354  0.34616411228326927  1.0000
  Fe  Fe5       1.0  0.6806336362207359  0.44561721991747455  0.3076173871455181  1.0000
  S   S9        1.0  0.7201567696539578  0.4853062531043421  0.28987480629779266  1.0000
  S   S10       1.0  0.6325283778675787  0.42793854982173146  0.2987447397337759  1.0000
  Fe  Fe6       1.0  0.7208004321133208  0.42959894814718225  0.33173871244237046  1.0000
  S   S11       1.0  0.7639568920952543  0.4672883415808407  0.3159776928506658  1.0000
  S   S12       1.0  0.7204176714360132  0.3957754130685303  0.3550917783158052  1.0000
  Fe  Fe7       1.0  0.7420611091849704  0.49607247685547257  0.3204334079997264  1.0000
  S   S13       1.0  0.7750940002480536  0.5445416332847164  0.32852014760419157  1.0000
  Fe  Fe8       1.0  0.7386983594556736  0.4535609100863399  0.28697960576446246  1.0000
  S   S14       1.0  0.7601559178645114  0.44837728192966353  0.25754963550175913  1.0000
  S   S15       1.0  0.7004372254370674  0.4590810579316415  0.3386275790627181  1.0000
  S   S16       1.0  0.6976194692056005  0.4130713825605536  0.30241906897433424  1.0000
  Fe  Fe9       1.0  0.6932816458026565  0.21751338937393883  0.29557975716827917  1.0000
  S   S17       1.0  0.6918267525510068  0.25471444683123745  0.3120211367853856  1.0000
  S   S18       1.0  0.6670813097299162  0.2030533106096549  0.2666417383355461  1.0000
  Fe  Fe10      1.0  0.7291900830853507  0.20694005946169183  0.32930641844562286  1.0000
  S   S19       1.0  0.7306897331441304  0.2440425525506814  0.34824211334933153  1.0000
  S   S20       1.0  0.7483984707322444  0.1755544147990608  0.33683533634645696  1.0000
  Fe  Fe11      1.0  0.6815315625551049  0.22466068757226576  0.34067493153170325  1.0000
  S   S21       1.0  0.6444384066924027  0.22062951792984972  0.3628284527525682  1.0000
  Fe  Fe12      1.0  0.74070836594199  0.2706236171378719  0.31772567206202584  1.0000
  S   S22       1.0  0.7721712674529155  0.32065966713763144  0.31039146613665475  1.0000
  S   S23       1.0  0.6789691133348033  0.18557809382065057  0.3240043447223987  1.0000
  S   S24       1.0  0.7433266476035086  0.23544225651715792  0.2990516003332073  1.0000
  Fe  Fe13      1.0  0.6119125060132621  0.28622040046354125  0.16887220609885506  1.0000
  S   S25       1.0  0.6235681562052473  0.32894140554143  0.15011213565786027  1.0000
  S   S26       1.0  0.562242050813088  0.25305311645680495  0.17773855335385313  1.0000
  Fe  Fe14      1.0  0.6779725147924005  0.30311125615640666  0.17068564401404815  1.0000
  S   S27       1.0  0.6948456478842726  0.34733037402952915  0.15147190211878492  1.0000
  S   S28       1.0  0.7117574229844619  0.29273081882963375  0.1859462170215366  1.0000
  Fe  Fe15      1.0  0.660923070954513  0.3523086543876814  0.17186430645500284  1.0000
  S   S29       1.0  0.664998969701111  0.39284299465128425  0.1881766306602659  1.0000
  Fe  Fe16      1.0  0.6559388161731476  0.31983029078560926  0.13083444549775355  1.0000
  S   S30       1.0  0.657150296958051  0.3297986629979101  0.09532353765127362  1.0000
  S   S31       1.0  0.6465203230874598  0.3100672087587679  0.19204362317072715  1.0000
  S   S32       1.0  0.6419204206870283  0.27512361786924006  0.14873862124238374  1.0000
  Fe  Fe17      1.0  0.21458352930410338  0.4799464719246087  0.29352499907200513  1.0000
  S   S33       1.0  0.24887396123563063  0.5195878581466642  0.3099497821623916  1.0000
  S   S34       1.0  0.2013702339589376  0.492230529741543  0.26327001157338986  1.0000
  Fe  Fe18      1.0  0.20535838148928587  0.4342064912702775  0.3296654883609073  1.0000
  S   S35       1.0  0.23976953592757597  0.4708904592700398  0.3484587953742098  1.0000
  S   S36       1.0  0.1752696202947595  0.3845965069659129  0.34135807767931003  1.0000
  Fe  Fe19      1.0  0.21741889979535986  0.4974175916662739  0.33804341154735473  1.0000
  S   S37       1.0  0.20560776598894917  0.5246624353381304  0.35919423814602114  1.0000
  Fe  Fe20      1.0  0.26769565833996  0.489236633329318  0.3183357172182989  1.0000
  S   S38       1.0  0.31854925989557537  0.510976169674951  0.3130120075582066  1.0000
  S   S39       1.0  0.18118380853115262  0.45980691210401226  0.3211462615281689  1.0000
  S   S40       1.0  0.2353320586829678  0.45048379514229225  0.299967898547028  1.0000
  Fe  Fe21      1.0  0.22773162202868732  0.7083156934194014  0.2835026225466571  1.0000
  S   S41       1.0  0.23847629438519377  0.6748013555393562  0.29891409647695366  1.0000
  S   S42       1.0  0.2505717097450204  0.7270574909377012  0.251647374490482  1.0000
  Fe  Fe22      1.0  0.1859765247217826  0.7050414228071528  0.32041685799802994  1.0000
  S   S43       1.0  0.19418305575747707  0.6713136153243479  0.33824059407856855  1.0000
  S   S44       1.0  0.1480452585819698  0.70949670706706  0.3367009627381124  1.0000
  Fe  Fe23      1.0  0.24303361299291812  0.7008749021282886  0.326964359209837  1.0000
  S   S45       1.0  0.27919593412554694  0.709891887960983  0.3491443330739406  1.0000
  Fe  Fe24      1.0  0.1885686197317418  0.6489256093688287  0.30853151091982256  1.0000
  S   S46       1.0  0.1586826921903857  0.598586502742267  0.3063282227993679  1.0000
  S   S47       1.0  0.23591958525157558  0.7368367430250964  0.3112515939926981  1.0000
  S   S48       1.0  0.17712883828782217  0.6803682189002587  0.2909880562524433  1.0000
  Fe  Fe25      1.0  0.41520789788998963  0.675205497821462  0.32955678674478295  1.0000
  S   S49       1.0  0.4545054822350431  0.6743031378669492  0.31310532487549375  1.0000
  S   S50       1.0  0.380396305056329  0.6389544339774806  0.35231002522715954  1.0000
  Fe  Fe26      1.0  0.42622555641228677  0.7320516123117422  0.30548921452808453  1.0000
  S   S51       1.0  0.466616986613575  0.7365142553262991  0.286931942091283  1.0000
  S   S52       1.0  0.4047987959129984  0.7603429766646691  0.29741544335676817  1.0000
  Fe  Fe27      1.0  0.43784485831058473  0.6860547656657883  0.2843938985935811  1.0000
  S   S53       1.0  0.43181253172583156  0.6610197831684128  0.2552331685515737  1.0000
  Fe  Fe28      1.0  0.48044885135736676  0.7248896238173981  0.317186814341944  1.0000
  S   S54       1.0  0.5315388724224089  0.7483873416424359  0.3222999767412206  1.0000
  S   S55       1.0  0.3965021480606758  0.6825192320669787  0.3005711471264574  1.0000
  S   S56       1.0  0.44212088508141417  0.7249420079369074  0.33604893835504174  1.0000
  Fe  Fe29      1.0  0.3056585694773231  0.6299496033464113  0.1260701741645515  1.0000
  S   S57       1.0  0.2649664666862094  0.5957738674326004  0.14689753863787453  1.0000
  S   S58       1.0  0.3108189060228118  0.6243685643857847  0.09076565353194205  1.0000
  Fe  Fe30      1.0  0.3404632929563589  0.6626239947208161  0.164150698623212  1.0000
  S   S59       1.0  0.30262899560027007  0.6312933009329095  0.18700204612960922  1.0000
  S   S60       1.0  0.38128353347716487  0.7003584776091206  0.17874016909558307  1.0000
  Fe  Fe31      1.0  0.2985374246964748  0.5939510747758415  0.16784385869773422  1.0000
  S   S61       1.0  0.2915508624709799  0.5500813260908094  0.18371946682764442  1.0000
  Fe  Fe32      1.0  0.271808408224871  0.6357238356614552  0.1650831504793258  1.0000
  S   S62       1.0  0.23107303340448607  0.6350105349903361  0.18164811567641673  1.0000
  S   S63       1.0  0.33905596075055366  0.6248774504155649  0.1462049862080993  1.0000
  S   S64       1.0  0.30998935165262476  0.6704040207545657  0.14303851536183368  1.0000
  Fe  Fe33      1.0  0.6867817370734705  0.22630662138763183  0.7551919040244485  1.0000
  S   S65       1.0  0.6787646902312898  0.18649142262782523  0.7759272913150439  1.0000
  S   S66       1.0  0.6548308313707838  0.22351844050710706  0.7310225128284069  1.0000
  Fe  Fe34      1.0  0.7444785217919975  0.26957339382215145  0.775566662994216  1.0000
  S   S67       1.0  0.7412580212369196  0.2330525342320971  0.7979923643852386  1.0000
  S   S68       1.0  0.77896990964383  0.3190201443929012  0.7778112485404564  1.0000
  Fe  Fe35      1.0  0.7293158895044963  0.20460904187602658  0.7699711888660565  1.0000
  S   S69       1.0  0.7436598769997458  0.17002279727271025  0.7615500620777504  1.0000
  Fe  Fe36      1.0  0.6913272399305364  0.21878019510248398  0.8015160335758653  1.0000
  S   S70       1.0  0.6590453569937935  0.20925233068180274  0.8295416056005048  1.0000
  S   S71       1.0  0.7363639654372403  0.24262560847778863  0.7474776272459466  1.0000
  S   S72       1.0  0.6956215089512803  0.2572283467529042  0.7808912711898588  1.0000
  Fe  Fe37      1.0  0.6767252844409658  0.43785508082239755  0.7811229088635475  1.0000
  S   S73       1.0  0.7114657365213239  0.4746421610013133  0.7995152667247274  1.0000
  S   S74       1.0  0.6263065872283946  0.4194405919297589  0.786427325912572  1.0000
  Fe  Fe38      1.0  0.7235686544488402  0.42726717196096503  0.758633543969209  1.0000
  S   S75       1.0  0.762689473060919  0.46324668752227466  0.774951620629511  1.0000
  S   S76       1.0  0.724890702074794  0.39497006362473236  0.736370184694277  1.0000
  Fe  Fe39      1.0  0.7307107480883134  0.4433985928664324  0.8034685690869372  1.0000
  S   S77       1.0  0.7440515229050746  0.42823221885647644  0.8325488835398173  1.0000
  Fe  Fe40      1.0  0.7400639021172052  0.49136190569396826  0.769258328704688  1.0000
  S   S78       1.0  0.7650751438059922  0.542323624821702  0.7601203552199527  1.0000
  S   S79       1.0  0.6935717427825354  0.40538137744526764  0.7873927024174905  1.0000
  S   S80       1.0  0.7032994757636172  0.4567208252892294  0.7506747577379271  1.0000
  Fe  Fe41      1.0  0.524898314281866  0.26358551952557396  0.7545539345249612  1.0000
  S   S81       1.0  0.48961286205798654  0.2648728515707786  0.7756745584750725  1.0000
  S   S82       1.0  0.560162000397213  0.3033460370938593  0.7341627526396483  1.0000
  Fe  Fe42      1.0  0.5081776474383883  0.20018725684054317  0.7711918213038021  1.0000
  S   S83       1.0  0.47251223193692965  0.1970174232366706  0.7942384327311834  1.0000
  S   S84       1.0  0.5195852226981538  0.16283696365581787  0.770191945763324  1.0000
  Fe  Fe43      1.0  0.4588314773664249  0.2164100628681874  0.7673348404803071  1.0000
  S   S85       1.0  0.4085362517066964  0.19614397781958717  0.7606359944798617  1.0000
  Fe  Fe44      1.0  0.5071497258134071  0.2456215985403556  0.800015467599193  1.0000
  S   S86       1.0  0.5272175987755316  0.2719075790781764  0.8283130860540184  1.0000
  S   S87       1.0  0.4930380949850751  0.21679351373632036  0.7441222264225321  1.0000
  S   S88       1.0  0.5437141477187369  0.2467010735629243  0.7790852741465928  1.0000
  Fe  Fe45      1.0  0.6707067095045168  0.29300986130130013  0.9258062462053575  1.0000
  S   S89       1.0  0.6311505242965226  0.2579428174255917  0.9463115087178178  1.0000
  S   S90       1.0  0.7056662826970858  0.28350232774593187  0.9101139022448846  1.0000
  Fe  Fe46      1.0  0.6496041129805298  0.3391444053450293  0.9291640648534709  1.0000
  S   S91       1.0  0.6079326651398119  0.30733311064387747  0.9499172388687755  1.0000
  S   S92       1.0  0.6574563540594875  0.38395419693125893  0.9146407045595627  1.0000
  Fe  Fe47      1.0  0.6397515798731093  0.29618251030470477  0.9672074425581978  1.0000
  S   S93       1.0  0.6373387137608756  0.2831051872793489  0.0024417436044038556  1.0000
  Fe  Fe48      1.0  0.6030205110142081  0.2720737751237262  0.9277528830517932  1.0000
  S   S94       1.0  0.5584313962450687  0.2371621574844046  0.914873035665108  1.0000
  S   S95       1.0  0.6819822377684442  0.3305483042182774  0.947518042575438  1.0000
  S   S96       1.0  0.6421460645837149  0.30470488619817365  0.9061784377315544  1.0000
  Fe  Fe49      1.0  0.44501376415592553  0.7138056615267154  0.7919815124440089  1.0000
  S   S97       1.0  0.4069722792447549  0.6782162088124444  0.7749584136211796  1.0000
  S   S98       1.0  0.43228895995766714  0.7266046437395249  0.8222251455467332  1.0000
  Fe  Fe50      1.0  0.49335911514109304  0.7265118406790548  0.7567535081895861  1.0000
  S   S99       1.0  0.458687739537882  0.6909931412364863  0.7373984003296645  1.0000
  S   S100      1.0  0.5428290750496303  0.7603222459154602  0.7460049844745985  1.0000
  Fe  Fe51      1.0  0.4289447590450659  0.7102326500795089  0.7470618651405481  1.0000
  S   S101      1.0  0.4017587555948253  0.7199000361800959  0.7244646315663106  1.0000
  Fe  Fe52      1.0  0.4402973221799333  0.6625758371250108  0.7673141509956388  1.0000
  S   S102      1.0  0.4220464995791099  0.612246379951853  0.772229553104767  1.0000
  S   S103      1.0  0.4644541742747273  0.7475305440993191  0.7645235883170773  1.0000
  S   S104      1.0  0.47739053157290473  0.6962249735551354  0.7862664360074157  1.0000
  Fe  Fe53      1.0  0.2570297932179858  0.5101780190960598  0.7593275806523676  1.0000
  S   S105      1.0  0.2594271867873935  0.4737914363596616  0.7783813301764462  1.0000
  S   S106      1.0  0.29269917245561455  0.5409873891139764  0.734766725305638  1.0000
  Fe  Fe54      1.0  0.19875227748760227  0.49846726853965734  0.7822033984613392  1.0000
  S   S107      1.0  0.19599302618647665  0.4606605106382519  0.803010887986026  1.0000
  S   S108      1.0  0.16834815536856967  0.5183011333787918  0.787483182899724  1.0000
  Fe  Fe55      1.0  0.24635930908971262  0.4924268731974007  0.8054739538578494  1.0000
  S   S109      1.0  0.27476324694454224  0.5081043169545414  0.8334591528552399  1.0000
  Fe  Fe56      1.0  0.20901519434233576  0.44570029965368324  0.7736902874176923  1.0000
  S   S110      1.0  0.18920707446826382  0.3962175844760001  0.7653451978725029  1.0000
  S   S111      1.0  0.2480975393488957  0.5309691208493139  0.7864400924606654  1.0000
  S   S112      1.0  0.20756810972104375  0.48125394724256415  0.7528272396551806  1.0000
  Fe  Fe57      1.0  0.2725440852491453  0.7356173857390091  0.766625527166488  1.0000
  S   S113      1.0  0.23772593121569655  0.7407922512755728  0.7855708099460008  1.0000
  S   S114      1.0  0.3224821418387037  0.7674880235444717  0.7699790054845859  1.0000
  Fe  Fe58      1.0  0.22532313310647292  0.6771951216330815  0.749749659422121  1.0000
  S   S115      1.0  0.18612036820437555  0.677024356089584  0.7671843860601475  1.0000
  S   S116      1.0  0.2215905490866335  0.6394411539364503  0.7307078238394332  1.0000
  Fe  Fe59      1.0  0.2100146353953209  0.7270849972384041  0.7573767469413635  1.0000
  S   S117      1.0  0.18332900955881704  0.7516362857622247  0.7510664436430455  1.0000
  Fe  Fe60      1.0  0.2167866765071733  0.6907876173595885  0.7938230884083339  1.0000
  S   S118      1.0  0.19831067405882336  0.6689205964008652  0.826004657320712  1.0000
  S   S119      1.0  0.2471576458502985  0.7262779081922794  0.7376056193314988  1.0000
  S   S120      1.0  0.25379596706144414  0.686610816874585  0.777136746402697  1.0000
  Fe  Fe61      1.0  0.26715172435450824  0.5945005355823533  0.923228476578146  1.0000
  S   S121      1.0  0.2983741153681034  0.6293146838407141  0.8988236837984163  1.0000
  S   S122      1.0  0.2301522136729002  0.5498344689778417  0.9123064037709733  1.0000
  Fe  Fe62      1.0  0.2963993066531922  0.6356603090970935  0.9592735204588896  1.0000
  S   S123      1.0  0.3307003392517447  0.6740877362180664  0.9370049945767402  1.0000
  S   S124      1.0  0.2886774193891773  0.6406966830186622  0.9942598288780645  1.0000
  Fe  Fe63      1.0  0.29184011748679406  0.6628310541770435  0.9164587036178028  1.0000
  S   S125      1.0  0.2925531440489125  0.7007213541435482  0.8962305878325658  1.0000
  Fe  Fe64      1.0  0.3351573598004328  0.6382548338436843  0.9202132362598024  1.0000
  S   S126      1.0  0.3800766742650233  0.6456042588844568  0.9058726469091969  1.0000
  S   S127      1.0  0.2568794685757998  0.627161175322602  0.9395079094733808  1.0000
  S   S128      1.0  0.3043200700533828  0.6003932119132052  0.9439234888309752  1.0000
  Fe  Fe65      1.0  0.12262623217797805  0.28694295034196116  0.4459820205736659  1.0000
  S   S129      1.0  0.11927603434821092  0.24666892238130048  0.43025413706567944  1.0000
  S   S130      1.0  0.1523517206098924  0.33746264343960153  0.4362370241205125  1.0000
  Fe  Fe66      1.0  0.08070613294032018  0.2472097929330746  0.4830935667729336  1.0000
  S   S131      1.0  0.07307561865015742  0.20362792129609456  0.4701484767158658  1.0000
  S   S132      1.0  0.05939418859401336  0.24895404137720306  0.5140754789888784  1.0000
  Fe  Fe67      1.0  0.12349627103901886  0.22913984155132353  0.46148989979135013  1.0000
  S   S133      1.0  0.1501312656708769  0.2065202984820543  0.47179255896368333  1.0000
  Fe  Fe68      1.0  0.0688941348968779  0.22383602257130866  0.4399710956307403  1.0000
  S   S134      1.0  0.03834112761561304  0.19439885644286684  0.4158367190911015  1.0000
  S   S135      1.0  0.1314878444040985  0.271423994750293  0.47659504761801674  1.0000
  S   S136      1.0  0.07199997044468277  0.2655181579609344  0.4534660583283891  1.0000
  Fe  Fe69      1.0  0.14905386056917305  0.3046031149215742  0.6626964040964154  1.0000
  S   S137      1.0  0.11982116754347671  0.2617461287626053  0.6826707570467255  1.0000
  S   S138      1.0  0.174656447517395  0.3532496923687155  0.6732791254845527  1.0000
  Fe  Fe70      1.0  0.13124034966976092  0.2701198478165317  0.6228427661016485  1.0000
  S   S139      1.0  0.09996750790093448  0.22512547169536762  0.6399932929690684  1.0000
  S   S140      1.0  0.1441860835155631  0.27166777086457833  0.5888705593794629  1.0000
  Fe  Fe71      1.0  0.08454736940284194  0.2513585460750046  0.6593197009262479  1.0000
  S   S141      1.0  0.03672236959359241  0.23601886321655483  0.6727534265177003  1.0000
  Fe  Fe72      1.0  0.13792746757531907  0.23918473046131955  0.6615985274164367  1.0000
  S   S142      1.0  0.14602778344788944  0.20058250092758576  0.6717821830955034  1.0000
  S   S143      1.0  0.1126944796063972  0.29554951816421715  0.6403120373446078  1.0000
  S   S144      1.0  0.17029487269874385  0.2829454826862313  0.6434673261427811  1.0000
  Fe  Fe73      1.0  0.663756350853644  0.8073793314372277  0.4621666503234022  1.0000
  S   S145      1.0  0.710767032382166  0.8256791915932464  0.4469898029542846  1.0000
  S   S146      1.0  0.6490147151178136  0.7890746658327218  0.495442303744655  1.0000
  Fe  Fe74      1.0  0.6340907352751592  0.8044448522786882  0.4210342300096109  1.0000
  S   S147      1.0  0.6789623633243522  0.8231597756290641  0.4026747799775996  1.0000
  S   S148      1.0  0.5849851881565921  0.7843889527987161  0.41129854247352887  1.0000
  Fe  Fe75      1.0  0.6875323370167904  0.7916704611197136  0.42316429511623765  1.0000
  S   S149      1.0  0.7019798339756037  0.76024231581333  0.4087603783963985  1.0000
  Fe  Fe76      1.0  0.6988864592719213  0.8560310347744138  0.42787689433391646  1.0000
  S   S150      1.0  0.7367077020175042  0.9044283579115076  0.4190184444394206  1.0000
  S   S151      1.0  0.6414367341650834  0.7708669468239402  0.43979636441380887  1.0000
  S   S152      1.0  0.6532189699880283  0.839957756073466  0.4447849496819916  1.0000
  Fe  Fe77      1.0  0.67899757838727  0.8542483647974688  0.6033595264330633  1.0000
  S   S153      1.0  0.7245268118515039  0.8783196162898683  0.6173096805419597  1.0000
  S   S154      1.0  0.6787501132869986  0.8730665431610944  0.5712174449979476  1.0000
  Fe  Fe78      1.0  0.6476855513379594  0.8130626314485818  0.6430740822371906  1.0000
  S   S155      1.0  0.6911609277162509  0.8341765247726717  0.6598181255382379  1.0000
  S   S156      1.0  0.6030420489490901  0.7718152969626239  0.6558389917983679  1.0000
  Fe  Fe79      1.0  0.6982556956477761  0.8789285350239354  0.6456632604418389  1.0000
  S   S157      1.0  0.7052061834026999  0.9205353464782121  0.6618843094482546  1.0000
  Fe  Fe80      1.0  0.7134328751617555  0.83154517116966  0.629805674616318  1.0000
  S   S158      1.0  0.7443054924405471  0.8126344084091676  0.620816942112604  1.0000
  S   S159      1.0  0.6530858604272015  0.8576188068271071  0.6309002941777708  1.0000
  S   S160      1.0  0.6694556510020747  0.8075697115762595  0.613861656481927  1.0000
  Fe  Fe81      1.0  0.8379105365425152  0.12042494318861739  0.4757445227794028  1.0000
  S   S161      1.0  0.8382606581671422  0.08118492576130378  0.4607704892727338  1.0000
  S   S162      1.0  0.8595319261127228  0.1355024353045374  0.5062317287843482  1.0000
  Fe  Fe82      1.0  0.8118167104695884  0.13630310697383033  0.4379546120903862  1.0000
  S   S163      1.0  0.8108789594221595  0.0987234869095859  0.42036028543536097  1.0000
  S   S164      1.0  0.7945868384961302  0.1674617304162825  0.4258961580973265  1.0000
  Fe  Fe83      1.0  0.792014753766424  0.06999904962772212  0.45016459828714345  1.0000
  S   S165      1.0  0.7469046586663639  0.025216439985736003  0.45316167960377346  1.0000
  Fe  Fe84      1.0  0.8571912542109752  0.11384729359375542  0.4326849575908286  1.0000
  S   S166      1.0  0.8941447908561574  0.1191732334719029  0.4095422724157728  1.0000
  S   S167      1.0  0.7903949630508995  0.10706654371544076  0.4673244226884875  1.0000
  S   S168      1.0  0.8595640215709366  0.15370914005239328  0.448133633284178  1.0000
  Fe  Fe85      1.0  0.8089715406427416  0.11115962844626583  0.6184945255551166  1.0000
  S   S169      1.0  0.8458664194292629  0.09975870833840593  0.6225568496006714  1.0000
  S   S170      1.0  0.7797922018221864  0.0938747501294569  0.591136610834026  1.0000
  Fe  Fe86      1.0  0.8218152661531238  0.14493223550099435  0.6582195594781607  1.0000
  S   S171      1.0  0.8601870543084823  0.1359061687993679  0.6653915706711699  1.0000
  S   S172      1.0  0.8113963959648662  0.17821419954770112  0.6746203514593162  1.0000
  Fe  Fe87      1.0  0.8748708940686836  0.14776195893617397  0.6316962826007362  1.0000
  S   S173      1.0  0.9232675805952298  0.17196311918670976  0.6168196058482845  1.0000
  Fe  Fe88      1.0  0.8283548201903048  0.08842162254652843  0.6555997443671001  1.0000
  S   S174      1.0  0.8285609451052554  0.04620606726857882  0.6679578661738728  1.0000
  S   S175      1.0  0.8391143703849598  0.16029736572160916  0.6248746057069038  1.0000
  S   S176      1.0  0.7887493291685396  0.09623471000871671  0.6510943730221775  1.0000
  Fe  Fe89      1.0  0.7974841522157536  0.631686386707416  0.4332472902093939  1.0000
  S   S177      1.0  0.8121446403017979  0.6792388752823635  0.4202357106116341  1.0000
  S   S178      1.0  0.7654579215178048  0.5874043204744632  0.41828670428542297  1.0000
  Fe  Fe90      1.0  0.8269325493589138  0.6543179026333901  0.4742227806544209  1.0000
  S   S179      1.0  0.8439093050252929  0.7030745841506527  0.4643132133507156  1.0000
  S   S180      1.0  0.8386848537098495  0.6435590010752373  0.5056740982428632  1.0000
  Fe  Fe91      1.0  0.7978467767495454  0.6868183970489963  0.4516886621711621  1.0000
  S   S181      1.0  0.7788760391755274  0.7170901958031546  0.4613965098336826  1.0000
  Fe  Fe92      1.0  0.8572260651476841  0.6922500055410263  0.43398365881328305  1.0000
  S   S182      1.0  0.901986588988204  0.7299290372941702  0.41871558525336755  1.0000
  S   S183      1.0  0.7796559478661498  0.6383968580141476  0.4639707404299295  1.0000
  S   S184      1.0  0.8438171904221605  0.6441278781777797  0.44459679062871155  1.0000
  Fe  Fe93      1.0  0.8037909098462606  0.6801305737335427  0.6156079769204381  1.0000
  S   S185      1.0  0.8359087896191032  0.7259815861312686  0.6269339602484256  1.0000
  S   S186      1.0  0.7850922064289577  0.6768405207032339  0.5840684293541074  1.0000
  Fe  Fe94      1.0  0.80191146265096  0.6460486015189334  0.6563074627515372  1.0000
  S   S187      1.0  0.8346775988223802  0.6895073113275454  0.6707740975363381  1.0000
  S   S188      1.0  0.7791248796108938  0.5958148169565075  0.6674194370975827  1.0000
  Fe  Fe95      1.0  0.8067000755427484  0.7084972359021533  0.6565460312624467  1.0000
  S   S189      1.0  0.7894341702558301  0.7358333169327756  0.6736376116532965  1.0000
  Fe  Fe96      1.0  0.861250647419498  0.7036457570547969  0.6398047851072205  1.0000
  S   S190      1.0  0.9109226170790924  0.7227669970900344  0.6285255446684176  1.0000
  S   S191      1.0  0.7724148217959143  0.6641386398590425  0.6442350148280829  1.0000
  S   S192      1.0  0.8305441188417685  0.6586741693150274  0.6263947116278669  1.0000
  Fe  Fe97      1.0  0.128976854111421  0.812477701584697  0.4681962888789698  1.0000
  S   S193      1.0  0.08740233849196118  0.8174540167236637  0.4672477841473568  1.0000
  S   S194      1.0  0.15014301151041914  0.8091339245400323  0.49771724444423693  1.0000
  Fe  Fe98      1.0  0.13476092314425028  0.8114229266924295  0.42088775855379623  1.0000
  S   S195      1.0  0.093064227552851  0.8159755993040394  0.4166146417313641  1.0000
  S   S196      1.0  0.16760917850987148  0.8165035165687932  0.3940200629420337  1.0000
  Fe  Fe99      1.0  0.11245748572068427  0.8511525358479176  0.440379077406826  1.0000
  S   S197      1.0  0.11069163013492614  0.8949425549815941  0.43765544844740384  1.0000
  Fe  Fe100     1.0  0.07174370125192994  0.7819036328819103  0.4439012668819589  1.0000
  S   S198      1.0  0.02459687551958124  0.74030071601205  0.45007829304369873  1.0000
  S   S199      1.0  0.15535413475480656  0.8488761687958783  0.4430543833528568  1.0000
  S   S200      1.0  0.11209674898042303  0.7745626968499413  0.44641053914339274  1.0000
  Fe  Fe101     1.0  0.10715899032245287  0.8239976652967073  0.6143349660851953  1.0000
  S   S201      1.0  0.1017872478893611  0.857401683560218  0.6335397543975598  1.0000
  S   S202      1.0  0.09215235663536063  0.8236256965164762  0.5817775254863814  1.0000
  Fe  Fe102     1.0  0.124935710968277  0.7979887287055043  0.651742837501427  1.0000
  S   S203      1.0  0.11998274455128946  0.8289654940749298  0.6732810555008103  1.0000
  S   S204      1.0  0.1398059495682357  0.7640875762840971  0.6618832258951459  1.0000
  Fe  Fe103     1.0  0.07727702917845758  0.8175351122820378  0.6568395878301169  1.0000
  S   S205      1.0  0.032390632327053935  0.8032509034934826  0.674689291357509  1.0000
  Fe  Fe104     1.0  0.144996426328196  0.8655550854489661  0.6477429200450704  1.0000
  S   S206      1.0  0.18947621350809757  0.9091516324180704  0.6525576694436855  1.0000
  S   S207      1.0  0.0804269458918678  0.783764014634318  0.6370677052336626  1.0000
  S   S208      1.0  0.15220401452747945  0.8349265245392417  0.6267999845183517  1.0000
  Fe  Fe105     1.0  0.2269931800543971  0.12055928001827595  0.43137665059344354  1.0000
  S   S209      1.0  0.26115409180602345  0.1467941435626112  0.4544066671562087  1.0000
  S   S210      1.0  0.20408665629315131  0.14314605621792414  0.41475393200643457  1.0000
  Fe  Fe106     1.0  0.23899623661893046  0.06688533847743865  0.43541056805814354  1.0000
  S   S211      1.0  0.27460622220221265  0.090097396860751  0.4584335214623414  1.0000
  S   S212      1.0  0.23431629791613984  0.021930622835260326  0.4266505136412324  1.0000
  Fe  Fe107     1.0  0.24115504214768405  0.10188123295493752  0.47289474278116905  1.0000
  S   S213      1.0  0.2223012815112356  0.09192492016108593  0.5062673328822417  1.0000
  Fe  Fe108     1.0  0.29101970323560683  0.1323498006817652  0.4373335050442131  1.0000
  S   S214      1.0  0.34066684116292806  0.1678692349390236  0.4286398254256082  1.0000
  S   S215      1.0  0.20444288050494458  0.0764548808772542  0.4508496243276581  1.0000
  S   S216      1.0  0.2577698094617847  0.10822999563463072  0.41334755755682273  1.0000
  Fe  Fe109     1.0  0.2842922127829981  0.11497779015036465  0.6174687114005336  1.0000
  S   S217      1.0  0.23937735591607961  0.11022337285333993  0.6282626670738404  1.0000
  S   S218      1.0  0.299184225151325  0.10996019752030586  0.5851179165340168  1.0000
  Fe  Fe110     1.0  0.30897082821945576  0.12635060120486033  0.661228514456441  1.0000
  S   S219      1.0  0.26524899453564366  0.12134391777073637  0.675426331813556  1.0000
  S   S220      1.0  0.35514770313017735  0.1412593003756766  0.6748419587293218  1.0000
  Fe  Fe111     1.0  0.24156499060698003  0.08173573369892789  0.6549999519457845  1.0000
  S   S221      1.0  0.19776872872912768  0.0372754667327546  0.6638738829653635  1.0000
  Fe  Fe112     1.0  0.26668288686571745  0.15001199864097536  0.6475571188035274  1.0000
  S   S222      1.0  0.26606431032552647  0.19457718632946125  0.6483214296649502  1.0000
  S   S223      1.0  0.2850345110168131  0.08429745266987426  0.6430612174919208  1.0000
  S   S224      1.0  0.31167179361642194  0.15707427517534106  0.6344782907883646  1.0000
  C   C1        1.0  0.24510739031303125  0.0996488042952196  0.5277016632653286  1.0000
  C   C2        1.0  0.27470891576426537  0.10404953723505152  0.5258150756547681  1.0000
  C   C3        1.0  0.2912983426268171  0.10789532982619557  0.5435274957380245  1.0000
  C   C4        1.0  0.27869057068251274  0.10797926282563533  0.5631491512677844  1.0000
  C   C5        1.0  0.24928152943799237  0.10411628542108492  0.5649603186478452  1.0000
  C   C6        1.0  0.23243639389563947  0.09957006585813491  0.5473247475640471  1.0000
  H   H1        1.0  0.2846854607586729  0.10413264086228127  0.5107751836069411  1.0000
  H   H2        1.0  0.31403586591175786  0.1108365387627961  0.5420216817408607  1.0000
  H   H3        1.0  0.2393820008307233  0.10436657063100728  0.5799291980821245  1.0000
  H   H4        1.0  0.20954225420225422  0.09621312899749486  0.5488608986736514  1.0000
  C   C7        1.0  0.19102439440590455  0.944257360154014  0.6564067868835587  1.0000
  C   C8        1.0  0.2196650772147509  0.9705168928032658  0.6580744489989172  1.0000
  C   C9        1.0  0.2219810403017168  0.9990830125607623  0.6605677602922809  1.0000
  C   C10       1.0  0.19563457769582174  0.0015946037143712566  0.6614877945827482  1.0000
  C   C11       1.0  0.16695798673984744  0.9752647133096051  0.6600954667181876  1.0000
  C   C12       1.0  0.16463400267402903  0.9466954652343187  0.6574405887917661  1.0000
  H   H5        1.0  0.24016049957455787  0.9687723478090502  0.6574500777427763  1.0000
  H   H6        1.0  0.2441008916926321  0.019091761368526194  0.662045629198491  1.0000
  H   H7        1.0  0.14644616799413868  0.977003019477183  0.6609380801109161  1.0000
  H   H8        1.0  0.14243575886895166  0.926604418735757  0.6562550510947193  1.0000
  C   C13       1.0  0.14512082536270782  0.9302437087915894  0.4351661240784436  1.0000
  C   C14       1.0  0.14422866015163466  0.9575263311633552  0.43513093631297406  1.0000
  C   C15       1.0  0.17141476039195105  0.9859578981914475  0.43252464018380044  1.0000
  C   C16       1.0  0.19954511721450152  0.987118628081177  0.4296963578263924  1.0000
  C   C17       1.0  0.20037566333564855  0.9598517898772186  0.42959118510489064  1.0000
  C   C18       1.0  0.17331377540437012  0.9315409966405251  0.4325612290221477  1.0000
  H   H9        1.0  0.12242617807698493  0.9566572791321933  0.4370044333317243  1.0000
  H   H10       1.0  0.17056790546346282  0.006908455875025485  0.43241921094483227  1.0000
  H   H11       1.0  0.22212847735664107  0.9606695171330079  0.42747510103439124  1.0000
  H   H12       1.0  0.1743111429536065  0.9107735375897016  0.4326511524176911  1.0000
  C   C19       1.0  0.13595903424821862  0.8153519802494925  0.5212036909335535  1.0000
  C   C20       1.0  0.11564280399247982  0.8265157226816953  0.5212880361476555  1.0000
  C   C21       1.0  0.10289243844670903  0.8293612095256438  0.5400390597804701  1.0000
  C   C22       1.0  0.11079050467949182  0.8216780897826723  0.558924455962389  1.0000
  C   C23       1.0  0.1317844661490882  0.8112947471675168  0.5589618948158752  1.0000
  C   C24       1.0  0.14424809982202566  0.8080338270319264  0.5401018691688809  1.0000
  H   H13       1.0  0.1097707958518135  0.8330586185358886  0.5069262817830058  1.0000
  H   H14       1.0  0.08682811998812792  0.8376119133478789  0.5399349720506728  1.0000
  H   H15       1.0  0.13790156447884572  0.8052018044189295  0.5734611098416011  1.0000
  H   H16       1.0  0.16005651375111252  0.7994735183645352  0.5401550485311767  1.0000
  C   C25       1.0  0.9439860819486966  0.7459749264438577  0.641775083084393  1.0000
  C   C26       1.0  0.9726690291085877  0.7579822475868746  0.6310880846658984  1.0000
  C   C27       1.0  0.999767737079173  0.7761717389432632  0.6409133810091425  1.0000
  C   C28       1.0  0.9984724858104695  0.7822692201940222  0.6616412146265301  1.0000
  C   C29       1.0  0.9697898271371469  0.7703431939256117  0.6723725856022863  1.0000
  C   C30       1.0  0.9425683423503532  0.7523117991693972  0.6624551007774426  1.0000
  H   H17       1.0  0.9739872607848454  0.7532378347170057  0.6150903764586262  1.0000
  H   H18       1.0  0.021669213254471905  0.7854559878543605  0.6324149725187498  1.0000
  H   H19       1.0  0.968591518028054  0.7750419544763274  0.6884010695804634  1.0000
  H   H20       1.0  0.9205740127951219  0.7431962195329957  0.6708241269607824  1.0000
  C   C31       1.0  0.9360189947199147  0.7333217605996416  0.42798246389047157  1.0000
  C   C32       1.0  0.964512845772664  0.7583434050553156  0.4209900286822219  1.0000
  C   C33       1.0  0.9919113504529492  0.7611543027243037  0.4278976479342699  1.0000
  C   C34       1.0  0.9909297756649968  0.738697524026519  0.441645237325037  1.0000
  C   C35       1.0  0.9624409588464805  0.7138577386238061  0.4487469374435962  1.0000
  C   C36       1.0  0.9350951215801935  0.7112729878821212  0.4420695684380043  1.0000
  H   H21       1.0  0.965408778052673  0.775478365760408  0.41008663034241666  1.0000
  H   H22       1.0  0.013737016412113211  0.7803638188211194  0.4223155377567653  1.0000
  H   H23       1.0  0.9614508489666691  0.6963431065894321  0.45932929950307566  1.0000
  H   H24       1.0  0.9133082426019613  0.6919261764135242  0.44757070647563363  1.0000
  C   C37       1.0  0.8237453401326579  0.6529568995458684  0.5273353216184368  1.0000
  C   C38       1.0  0.8324879754138031  0.6494969340709651  0.5470982918676444  1.0000
  C   C39       1.0  0.8210055432232428  0.6569751365023275  0.5646213186036633  1.0000
  C   C40       1.0  0.8003205336338015  0.6675219257104862  0.5624912741902138  1.0000
  C   C41       1.0  0.7915140895665469  0.6708691372840315  0.5427526463714069  1.0000
  C   C42       1.0  0.8033463874849675  0.6638327324033049  0.5252034896796175  1.0000
  H   H25       1.0  0.8482237623923162  0.6410212930070203  0.5487975168207478  1.0000
  H   H26       1.0  0.8280136644226553  0.654353793968615  0.5797320648862807  1.0000
  H   H27       1.0  0.7755106471755076  0.6790064787540295  0.5409649194233144  1.0000
  H   H28       1.0  0.7964314809019295  0.6665372503329856  0.5100308502900286  1.0000
  C   C43       1.0  0.8364048772009033  0.12251510661548867  0.5294423931896955  1.0000
  C   C44       1.0  0.8044243630656062  0.10562044001634352  0.5297409232018033  1.0000
  C   C45       1.0  0.7870154347194791  0.09672742806455681  0.5487360703515423  1.0000
  C   C46       1.0  0.8015594035972442  0.10482314833412536  0.5674033302942547  1.0000
  C   C47       1.0  0.8334821201346057  0.12137499766740095  0.5670294725160707  1.0000
  C   C48       1.0  0.8507430933963389  0.12995008318575788  0.5481294494653476  1.0000
  H   H29       1.0  0.7931502794076757  0.09968840736277679  0.5153883286421465  1.0000
  H   H30       1.0  0.7623029929563656  0.08393051338766797  0.5489343936836512  1.0000
  H   H31       1.0  0.8449099381801819  0.12774784844249273  0.5812957946812084  1.0000
  H   H32       1.0  0.8753036509287886  0.14236235156419344  0.5479381755017104  1.0000
  C   C49       1.0  0.740054492360687  0.9551432477815444  0.662787902781081  1.0000
  C   C50       1.0  0.7389969114301048  0.9814469069315223  0.6674869401008384  1.0000
  C   C51       1.0  0.7660462045595092  0.0095863780050236  0.668477600506952  1.0000
  C   C52       1.0  0.7944433840291226  0.011404723424845109  0.6655147734571217  1.0000
  C   C53       1.0  0.7956139887006789  0.9850984953753098  0.6608457842049751  1.0000
  C   C54       1.0  0.7684507411162292  0.9570934125729076  0.6591160321613884  1.0000
  H   H33       1.0  0.7170945749684783  0.9800193813590242  0.6704817148964685  1.0000
  H   H34       1.0  0.764906842814171  0.029644481196200223  0.672280705187873  1.0000
  H   H35       1.0  0.8175371074789699  0.9863566954960221  0.6585770453668414  1.0000
  H   H36       1.0  0.769459415901921  0.9368779625821251  0.6555841572511488  1.0000
  C   C55       1.0  0.755636140566193  0.790795971353471  0.6361305222981369  1.0000
  C   C56       1.0  0.7656286688656798  0.7728967404193912  0.6261485375946603  1.0000
  C   C57       1.0  0.7757315195317809  0.7557757109367853  0.6375151213094642  1.0000
  C   C58       1.0  0.7763174334765872  0.7567078491120827  0.6589968540482655  1.0000
  C   C59       1.0  0.7663139532522766  0.774614531702674  0.6690246662915763  1.0000
  C   C60       1.0  0.7559276488550315  0.7915820872280546  0.6576483255988385  1.0000
  H   H37       1.0  0.7656586516522829  0.7722667094603831  0.6095135275056959  1.0000
  H   H38       1.0  0.7832989533324322  0.7420261470209796  0.6296359128649642  1.0000
  H   H39       1.0  0.7671319117387384  0.7757382814155768  0.6856220076291161  1.0000
  H   H40       1.0  0.7490681153731205  0.8059273432647897  0.6654551192415172  1.0000
  C   C61       1.0  0.7233538341545477  0.7482162087211393  0.4233890875330156  1.0000
  C   C62       1.0  0.731087944235774  0.7576686455556592  0.4433418242973906  1.0000
  C   C63       1.0  0.7479744441162853  0.7477308325230457  0.45475412828598244  1.0000
  C   C64       1.0  0.7571745809788576  0.728185183522963  0.4463864292842441  1.0000
  C   C65       1.0  0.7495439208786691  0.7187282056942033  0.4263996027578504  1.0000
  C   C66       1.0  0.7326851691311479  0.7287698188193282  0.4149292150391378  1.0000
  H   H41       1.0  0.7239308508200442  0.772516939750967  0.45003998692141656  1.0000
  H   H42       1.0  0.7537487366076262  0.7550659036066297  0.470223534992706  1.0000
  H   H43       1.0  0.7564373809190776  0.7035669001724494  0.41985122787580764  1.0000
  H   H44       1.0  0.7267283559810929  0.721318826292765  0.3995059760300954  1.0000
  C   C67       1.0  0.7393200881695902  0.937455465149231  0.42935383529078036  1.0000
  C   C68       1.0  0.7152685013348107  0.9363055457760875  0.44146612448730305  1.0000
  C   C69       1.0  0.7179319193535515  0.9633532000114634  0.4487818644492871  1.0000
  C   C70       1.0  0.744754907860213  0.9916173335714561  0.4442723256517008  1.0000
  C   C71       1.0  0.7689166954433792  0.9926988383981581  0.43238579977956976  1.0000
  C   C72       1.0  0.766098424674373  0.9657382183877857  0.42486084441011124  1.0000
  H   H45       1.0  0.6945475993128877  0.9146753349516853  0.4449695075694078  1.0000
  H   H46       1.0  0.6991736453457348  0.9623654165890891  0.45798841656715994  1.0000
  H   H47       1.0  0.7896689423716549  0.014314510630494713  0.42881667939621726  1.0000
  H   H48       1.0  0.7847744614072393  0.9667859116283806  0.4154944051479411  1.0000
  C   C73       1.0  0.6574252998723542  0.8129684655919395  0.5161726114559262  1.0000
  C   C74       1.0  0.6737990493714374  0.8447829602757487  0.5130854226299729  1.0000
  C   C75       1.0  0.6797980592930106  0.8630265567610477  0.5300764114986127  1.0000
  C   C76       1.0  0.6698602249428486  0.8495799559503534  0.5502043039079062  1.0000
  C   C77       1.0  0.6534530075214504  0.8177818916543684  0.55325384489036  1.0000
  C   C78       1.0  0.6471574653060589  0.7995418585888353  0.5362682959522225  1.0000
  H   H49       1.0  0.6819216689379837  0.8553532178191131  0.49764838829531854  1.0000
  H   H50       1.0  0.6925276511368841  0.887662121037384  0.5276365144173905  1.0000
  H   H51       1.0  0.6453848475159781  0.8072665655576033  0.5686943106360544  1.0000
  H   H52       1.0  0.6343618856004088  0.7749163934039072  0.5387213477995445  1.0000
  C   C79       1.0  0.17997531869195607  0.199683611532247  0.6658790676438181  1.0000
  C   C80       1.0  0.17948014865406964  0.17172237333358545  0.6681488289591551  1.0000
  C   C81       1.0  0.20563028657230556  0.1697464857056417  0.662717593543201  1.0000
  C   C82       1.0  0.23262381231646806  0.19587837745644354  0.6552380412264253  1.0000
  C   C83       1.0  0.23325736660684884  0.22392934942847315  0.6532198028444804  1.0000
  C   C84       1.0  0.20702038344905163  0.22584336687850728  0.6584838430755328  1.0000
  H   H53       1.0  0.15867081603271632  0.15140817398542275  0.6739842845018456  1.0000
  H   H54       1.0  0.20492871603210278  0.1480536448177687  0.6644511795141028  1.0000
  H   H55       1.0  0.25413394057311245  0.24427543917872602  0.647547016126747  1.0000
  H   H56       1.0  0.20775474411561523  0.24755285079295278  0.6569167426590156  1.0000
  C   C85       1.0  0.005498767942189279  0.21834911723487094  0.6569644149430551  1.0000
  C   C86       1.0  0.9759864732575898  0.20947386658423914  0.6652270928897316  1.0000
  C   C87       1.0  0.9505922765346824  0.19524856757168454  0.6530598846622249  1.0000
  C   C88       1.0  0.9546068059690407  0.18988374326353133  0.6325199921877881  1.0000
  C   C89       1.0  0.9841039955242691  0.19863039971929441  0.6242827488153947  1.0000
  C   C90       1.0  0.009502572560852185  0.2128277952120411  0.6364605048151565  1.0000
  H   H57       1.0  0.9727601025672837  0.21379602441230094  0.6810583389823425  1.0000
  H   H58       1.0  0.9280034291321737  0.18888578767796826  0.6594830627697992  1.0000
  H   H59       1.0  0.9873689923633492  0.19427198339525747  0.6084862615200167  1.0000
  H   H60       1.0  0.032165266895378575  0.21952922377925876  0.6299906527586455  1.0000
  C   C91       1.0  0.9338467933819113  0.14061869393605692  0.4129595249472506  1.0000
  C   C92       1.0  0.9463117056518368  0.15697073458333574  0.43050996054639523  1.0000
  C   C93       1.0  0.9784973921660409  0.17390855650434853  0.4318959239911402  1.0000
  C   C94       1.0  0.9979737844252656  0.17444113618117688  0.41569069276613035  1.0000
  C   C95       1.0  0.9852307220760396  0.1580993792611723  0.398331152600155  1.0000
  C   C96       1.0  0.9535118942122993  0.14138874960498668  0.3969712093699335  1.0000
  H   H61       1.0  0.9312463580345728  0.15647636840014711  0.4429681951045661  1.0000
  H   H62       1.0  0.9881533479834291  0.18645233679388354  0.4453964935623476  1.0000
  H   H63       1.0  2.1516975040986714e-05  0.15837355847668189  0.38575753486791936  1.0000
  H   H64       1.0  0.9441577357461786  0.12884219377032907  0.38340999230525424  1.0000
  C   C97       1.0  0.16559529384083577  0.18993429415072688  0.45538297731507466  1.0000
  C   C98       1.0  0.17766253073014443  0.1728887056918274  0.4643508378156425  1.0000
  C   C99       1.0  0.18948293861087925  0.15852344115899192  0.4519872402292657  1.0000
  C   C100      1.0  0.18928213615123188  0.16104261123224514  0.4305006350364328  1.0000
  C   C101      1.0  0.1773284127582758  0.1782083577208824  0.42144324847076525  1.0000
  C   C102      1.0  0.16561423876617445  0.1927593546237152  0.43385614677086526  1.0000
  H   H65       1.0  0.17774912953723151  0.17063926454236067  0.48099223541766506  1.0000
  H   H66       1.0  0.19853705915717337  0.145301608410399  0.45914682941351315  1.0000
  H   H67       1.0  0.17734342304459202  0.18042960020708385  0.40480108584147695  1.0000
  H   H68       1.0  0.15680890366850245  0.20628152109314848  0.42682394203723056  1.0000
  C   C103      1.0  0.0811679702108819  0.2523009575496154  0.5355345604946689  1.0000
  C   C104      1.0  0.07284923347412033  0.2587045070677884  0.5548014968140461  1.0000
  C   C105      1.0  0.09130773890750371  0.2635722363601759  0.5716567811748952  1.0000
  C   C106      1.0  0.11832912849773773  0.2623969952538295  0.569172265843652  1.0000
  C   C107      1.0  0.1261794546477749  0.2553229865507463  0.5500463313176046  1.0000
  C   C108      1.0  0.10750594712794725  0.24993754655773992  0.5333789518526479  1.0000
  H   H69       1.0  0.05242784585909602  0.2604600127553868  0.556615572983265  1.0000
  H   H70       1.0  0.08511907542600414  0.2690653573177094  0.5863613106481486  1.0000
  H   H71       1.0  0.14696859438148718  0.25424083274648274  0.548024304372009  1.0000
  H   H72       1.0  0.11374976758799292  0.24427338363860773  0.5187885754304187  1.0000
  C   C109      1.0  0.17089925135304934  0.7543984151660308  0.7262545517606211  1.0000
  C   C110      1.0  0.1556638373794739  0.7710081058949085  0.723317431753866  1.0000
  C   C111      1.0  0.1455896093152179  0.7738269634757953  0.7038031223002195  1.0000
  C   C112      1.0  0.15073183168929621  0.7600831882350446  0.6869898858819034  1.0000
  C   C113      1.0  0.1656868720522614  0.7432422462398837  0.6899799639345076  1.0000
  C   C114      1.0  0.1758615961853284  0.7405172529588467  0.7094707511970659  1.0000
  H   H73       1.0  0.15163876203900842  0.7817478617979049  0.7362267128449972  1.0000
  H   H74       1.0  0.1339063031057224  0.7866577831861017  0.7018116931400517  1.0000
  H   H75       1.0  0.16966550361666624  0.7323954786981814  0.677106968833401  1.0000
  H   H76       1.0  0.18743562139855052  0.7275533877334688  0.7115167027079795  1.0000
  C   C115      1.0  0.2667724331817019  0.6905324807165611  0.8763224756952483  1.0000
  C   C116      1.0  0.23734554234698724  0.6650179632632314  0.878890349231435  1.0000
  C   C117      1.0  0.21640474580821217  0.6588235912942094  0.8634823886474523  1.0000
  C   C118      1.0  0.225119535824418  0.6773240713567842  0.8450574018823946  1.0000
  C   C119      1.0  0.25480857790399625  0.7022991683610378  0.8422229498976803  1.0000
  C   C120      1.0  0.27533952021417474  0.7091952738925114  0.857972300118269  1.0000
  H   H77       1.0  0.23037840689290628  0.6507636074093668  0.8931015123872273  1.0000
  H   H78       1.0  0.19334204380828057  0.6397092763984913  0.8659218097756637  1.0000
  H   H79       1.0  0.26178537896375176  0.7167559928449072  0.8280991998489214  1.0000
  H   H80       1.0  0.2978957817753541  0.7291186620149355  0.8558915351258196  1.0000
  C   C121      1.0  0.17656429644343324  0.3639486178139153  0.6991234470787381  1.0000
  C   C122      1.0  0.1836383252248295  0.39391161556287707  0.7028016737492898  1.0000
  C   C123      1.0  0.18662932453022466  0.40381047882136173  0.7230417597396108  1.0000
  C   C124      1.0  0.18317609450618252  0.38398927382191134  0.7398096108747642  1.0000
  C   C125      1.0  0.17551596705153036  0.35383051664633436  0.7361703697300628  1.0000
  C   C126      1.0  0.17214429888050062  0.3437967315662123  0.7159330399861555  1.0000
  H   H81       1.0  0.18679678901108898  0.4095588216104655  0.689895281762053  1.0000
  H   H82       1.0  0.19186986838619774  0.4268473644430326  0.7256655713638729  1.0000
  H   H83       1.0  0.1727821135872131  0.338314914340708  0.7490592098686997  1.0000
  H   H84       1.0  0.16702463911958196  0.3207686862262697  0.7133132326130943  1.0000
  C   C127      1.0  0.261564318114753  0.5191745221943476  0.8552671509275959  1.0000
  C   C128      1.0  0.23038013462200574  0.5082396136851981  0.8598116308104756  1.0000
  C   C129      1.0  0.22078138109020504  0.5169948597611747  0.8776725875279062  1.0000
  C   C130      1.0  0.24233013054757283  0.5375322780856367  0.8906606421985739  1.0000
  C   C131      1.0  0.2734705128072243  0.5487535625435027  0.8859163054791608  1.0000
  C   C132      1.0  0.28296353150050085  0.5391580047894048  0.8685363404817127  1.0000
  H   H85       1.0  0.21365371277191966  0.49246215512456065  0.8498513722793055  1.0000
  H   H86       1.0  0.19663302543458555  0.5080069876329171  0.8813561805150809  1.0000
  H   H87       1.0  0.2902676075323687  0.5643011193423941  0.8959321042368431  1.0000
  H   H88       1.0  0.3069999550274609  0.5471736137561319  0.8654835016974508  1.0000
  C   C133      1.0  0.18011440749534202  0.5503488452319648  0.770471424282716  1.0000
  C   C134      1.0  0.1737411442882984  0.5731950562649948  0.7758212672994417  1.0000
  C   C135      1.0  0.18603752131383774  0.6004886511143209  0.7634751639420991  1.0000
  C   C136      1.0  0.20319197682519322  0.6042232647846824  0.745106787105437  1.0000
  C   C137      1.0  0.20785896141254778  0.5804966491724207  0.7391028775941901  1.0000
  C   C138      1.0  0.19711969596997853  0.5539698957189441  0.7520667361720006  1.0000
  H   H89       1.0  0.15989950539494893  0.5700903989590649  0.7897706812603482  1.0000
  H   H90       1.0  0.18205396969018517  0.6185064820098334  0.768133254439807  1.0000
  H   H91       1.0  0.2203649846374625  0.5828617786357132  0.7246567191336427  1.0000
  H   H92       1.0  0.2016602020991263  0.5361740841424741  0.7476632270931726  1.0000
  C   C139      1.0  0.5593126327013828  0.7628657321878624  0.7209515686677286  1.0000
  C   C140      1.0  0.5875104898094402  0.7888373551547669  0.7146571269847711  1.0000
  C   C141      1.0  0.6009802980169872  0.792144792335042  0.694666395376233  1.0000
  C   C142      1.0  0.5864949332218681  0.7692591431125528  0.6808595710525818  1.0000
  C   C143      1.0  0.5583896653722568  0.7432051112087774  0.6871808618971139  1.0000
  C   C144      1.0  0.5448049918013342  0.7400213974026699  0.7071150616043548  1.0000
  H   H93       1.0  0.5989193747048871  0.8066238091070177  0.7252733440889784  1.0000
  H   H94       1.0  0.6226148952695086  0.812357241401262  0.6900013527235784  1.0000
  H   H95       1.0  0.5470978054294406  0.7253184378722406  0.676626402670507  1.0000
  H   H96       1.0  0.5232611360095614  0.7197711770421901  0.7118343910017395  1.0000
  C   C145      1.0  0.4167816744548544  0.6988855421239369  0.843019167184087  1.0000
  C   C146      1.0  0.38549446325451936  0.6849083855076075  0.8488141471355467  1.0000
  C   C147      1.0  0.3738235410836185  0.6676968838309436  0.8677346992327759  1.0000
  C   C148      1.0  0.39339905540600517  0.6647083933875965  0.8811661326392434  1.0000
  C   C149      1.0  0.4244386790799824  0.6775506203064051  0.8749203075740791  1.0000
  C   C150      1.0  0.4361359965035439  0.6947279908474702  0.8559778357983695  1.0000
  H   H97       1.0  0.37044289538149794  0.6883470502771669  0.8390023994824316  1.0000
  H   H98       1.0  0.3498277468245434  0.6574824610617532  0.8720953050018567  1.0000
  H   H99       1.0  0.43975465082508586  0.6752386301126606  0.8851382118843291  1.0000
  H   H100      1.0  0.4604410856921914  0.7059812620387278  0.8518450952083981  1.0000
  C   C151      1.0  0.38094595561237016  0.7347612436044112  0.7367631274371683  1.0000
  C   C152      1.0  0.3857585486126343  0.7428405644019764  0.7572440720731698  1.0000
  C   C153      1.0  0.36817139322527986  0.7535249209401585  0.7672334350953741  1.0000
  C   C154      1.0  0.34498105713328564  0.7550996938302983  0.7570353741639079  1.0000
  C   C155      1.0  0.3398728616550903  0.7466529571248965  0.7366336281029183  1.0000
  C   C156      1.0  0.3583081483121917  0.737142683415897  0.7263531808744377  1.0000
  H   H101      1.0  0.4029687784380284  0.7408589664162104  0.7654770007735827  1.0000
  H   H102      1.0  0.3721179985022778  0.7599848334139446  0.7830295888775661  1.0000
  H   H103      1.0  0.32200322566229367  0.7479097067409949  0.7286980975770091  1.0000
  H   H104      1.0  0.35439775294272013  0.7307742723817147  0.7105414818358995  1.0000
  C   C157      1.0  0.38678800912231626  0.5919920678617718  0.7610590477061271  1.0000
  C   C158      1.0  0.3649962437336603  0.5630176203574416  0.7695595685638111  1.0000
  C   C159      1.0  0.3358931719975799  0.5475149018969634  0.7617396069766263  1.0000
  C   C160      1.0  0.32906356645669166  0.5602043912794092  0.7446654944166954  1.0000
  C   C161      1.0  0.351297081525479  0.5886438901010643  0.7356053475418104  1.0000
  C   C162      1.0  0.3798872217755336  0.6048990472029194  0.7441274905309945  1.0000
  H   H105      1.0  0.370411140426627  0.5527786005770576  0.7824541953259789  1.0000
  H   H106      1.0  0.31896750515268446  0.5256035326832703  0.768828052554466  1.0000
  H   H107      1.0  0.3462060014289369  0.598457630947663  0.722298564345521  1.0000
  H   H108      1.0  0.39676543670751957  0.6272032009049121  0.7373977439239217  1.0000
  C   C163      1.0  0.3939039317876788  0.18185202344790588  0.7365294923103025  1.0000
  C   C164      1.0  0.36206103499424147  0.16531973673657546  0.7347259757090686  1.0000
  C   C165      1.0  0.3496785735815939  0.15282645396531283  0.7159532876808469  1.0000
  C   C166      1.0  0.369116003693293  0.15684430691088536  0.6987695964473869  1.0000
  C   C167      1.0  0.4009414557358055  0.17353012222213832  0.7005611640386787  1.0000
  C   C168      1.0  0.413281659921749  0.18618618483569319  0.7192625001416786  1.0000
  H   H109      1.0  0.3468759810992217  0.16180202562278267  0.748021800440151  1.0000
  H   H110      1.0  0.3251294145704423  0.1396231866734935  0.7149182023355667  1.0000
  H   H111      1.0  0.4161660529931124  0.17692895248691448  0.6873154656888313  1.0000
  H   H112      1.0  0.43778699064896437  0.19945043619352446  0.720264108266544  1.0000
  C   C169      1.0  0.5355463145860743  0.25614851423191337  0.850110395674981  1.0000
  C   C170      1.0  0.5661579015221986  0.2675209317381696  0.8547394504154328  1.0000
  C   C171      1.0  0.5734752830510448  0.26146404029674775  0.874417573402017  1.0000
  C   C172      1.0  0.5501911765245858  0.2436599163322921  0.889558762959041  1.0000
  C   C173      1.0  0.5195840055634131  0.23060239003323876  0.8844412781709832  1.0000
  C   C174      1.0  0.5122639085516185  0.23713292943433797  0.8648903503222516  1.0000
  H   H113      1.0  0.5843083384073028  0.28188047539562633  0.8433544548085694  1.0000
  H   H114      1.0  0.5971007785833301  0.2707448544881586  0.8779242535248281  1.0000
  H   H115      1.0  0.5014337644380596  0.21665162821452671  0.8960154585239724  1.0000
  H   H116      1.0  0.4885904533493453  0.2287946012463152  0.8616826230502842  1.0000
  C   C175      1.0  0.7701167959909154  0.5570074192500064  0.7341736635324051  1.0000
  C   C176      1.0  0.7832902265555313  0.5886712630365352  0.7299878773972784  1.0000
  C   C177      1.0  0.7864541132022951  0.6010179468605399  0.7096265983635518  1.0000
  C   C178      1.0  0.7763451582142359  0.581715346808473  0.693275446329033  1.0000
  C   C179      1.0  0.7631102366873922  0.5500531272787802  0.6974820927686612  1.0000
  C   C180      1.0  0.7600861770519574  0.5377401626234076  0.7178016879405392  1.0000
  H   H117      1.0  0.7911252744340749  0.6037595161481906  0.7425515719291108  1.0000
  H   H118      1.0  0.7966886452584607  0.6254315596639896  0.7066017598239533  1.0000
  H   H119      1.0  0.7553497544715104  0.5349410747348615  0.6849380230994009  1.0000
  H   H120      1.0  0.7501011613126101  0.5133549988234407  0.7207658921373792  1.0000
  C   C181      1.0  0.7194358337552402  0.41611038749185886  0.8550969533878386  1.0000
  C   C182      1.0  0.6996836655054021  0.427413844638997  0.8592639758087713  1.0000
  C   C183      1.0  0.6813611543095695  0.41817143510741234  0.8778776613068711  1.0000
  C   C184      1.0  0.6817980279286445  0.3966765377863592  0.8919642106721578  1.0000
  C   C185      1.0  0.7011916553503682  0.3850706870335149  0.8875972535606107  1.0000
  C   C186      1.0  0.7203724602485245  0.395247370916465  0.8694576513932156  1.0000
  H   H121      1.0  0.6993243281918974  0.4440248160806072  0.8484886989296623  1.0000
  H   H122      1.0  0.6667391013471482  0.4275644688161743  0.8813609046642381  1.0000
  H   H123      1.0  0.7020018273978185  0.36883704247066224  0.8984932451204101  1.0000
  H   H124      1.0  0.7361242928551761  0.3870529034150217  0.8666809855784501  1.0000
  C   C187      1.0  0.6068946932224216  0.3888332091784936  0.7706089097543145  1.0000
  C   C188      1.0  0.6221066152266856  0.3855981754245332  0.7533013492829336  1.0000
  C   C189      1.0  0.6069382345500423  0.3602403889169984  0.7413545748080391  1.0000
  C   C190      1.0  0.5770077284320081  0.33727243680973196  0.747244699884272  1.0000
  C   C191      1.0  0.5617319698069787  0.34072630006259014  0.7644124191789964  1.0000
  C   C192      1.0  0.5763983349953813  0.36676532422705127  0.7757981043663328  1.0000
  H   H125      1.0  0.6455488502056117  0.402569446027015  0.7490261233531842  1.0000
  H   H126      1.0  0.6187504640862345  0.35799814741035346  0.7279010909553998  1.0000
  H   H127      1.0  0.5385019527717049  0.323524279498666  0.7688633815640326  1.0000
  H   H128      1.0  0.5642549304680656  0.36934865077260265  0.7889120730449044  1.0000
  C   C193      1.0  0.7635561596402533  0.17275784599165248  0.7377278044144798  1.0000
  C   C194      1.0  0.778110062000402  0.1998795447978605  0.7252232324486875  1.0000
  C   C195      1.0  0.7929321269678301  0.20112488532601736  0.7061214840139197  1.0000
  C   C196      1.0  0.7935224534611359  0.1753546257730232  0.6992843033039731  1.0000
  C   C197      1.0  0.7791862981796582  0.1482515753820626  0.7118490346479505  1.0000
  C   C198      1.0  0.7643341475742025  0.147019986929236  0.7309974174683547  1.0000
  H   H129      1.0  0.778322031450102  0.22004103120952043  0.7303867596298947  1.0000
  H   H130      1.0  0.8041653648012436  0.22225984779776123  0.696594866509573  1.0000
  H   H131      1.0  0.7794430393171881  0.12824592921381603  0.7067935494934249  1.0000
  H   H132      1.0  0.7532776987996014  0.12596582348346902  0.7406071061415106  1.0000
  C   C199      1.0  0.6727592341745138  0.2299619942724113  0.851820774066584  1.0000
  C   C200      1.0  0.6526981233302283  0.23478296205994204  0.8644959023167209  1.0000
  C   C201      1.0  0.6625880323026224  0.25082607713312216  0.8824347828261043  1.0000
  C   C202      1.0  0.6926688346240355  0.2621453238183578  0.8880043477637414  1.0000
  C   C203      1.0  0.7126538427220651  0.2567742994847703  0.8756051872064112  1.0000
  C   C204      1.0  0.7027934139735574  0.24089130453496027  0.8574793806459484  1.0000
  H   H133      1.0  0.6293980924164776  0.2262258138716402  0.8605156776265086  1.0000
  H   H134      1.0  0.6466927198835494  0.25400561222019963  0.8921066179305183  1.0000
  H   H135      1.0  0.7357642068683643  0.26479760380493184  0.8800546732780233  1.0000
  H   H136      1.0  0.7182248087856744  0.2365961775125079  0.8481010411254587  1.0000
  C   C205      1.0  0.7667109329128429  0.34154589003215174  0.7647203570137732  1.0000
  C   C206      1.0  0.7477797727242416  0.3302718840057258  0.7482211588295348  1.0000
  C   C207      1.0  0.7364703953532228  0.3476764743712295  0.738709432200501  1.0000
  C   C208      1.0  0.7427543200100032  0.37559876715357104  0.7463932156649348  1.0000
  C   C209      1.0  0.7618415771970535  0.3869187949930623  0.7627900414308435  1.0000
  C   C210      1.0  0.7744907147610781  0.37030389621776627  0.7715488567198945  1.0000
  H   H137      1.0  0.7420073113769193  0.3082294797746763  0.7427007764223997  1.0000
  H   H138      1.0  0.72204907492093  0.33902839792770567  0.7258451125029735  1.0000
  H   H139      1.0  0.7671603688660589  0.4086480794244669  0.7685940780857622  1.0000
  H   H140      1.0  0.7897897883923152  0.37954850724294265  0.7838894760802795  1.0000
  C   C211      1.0  0.6167115209110827  0.20522272984524037  0.7411252879374138  1.0000
  C   C212      1.0  0.6063458358495124  0.18207152076052735  0.7568801426443323  1.0000
  C   C213      1.0  0.5761158080569868  0.16825842672846503  0.7652719663607422  1.0000
  C   C214      1.0  0.5565268072215694  0.1783846794356439  0.7584696730762792  1.0000
  C   C215      1.0  0.5668701246560903  0.20162041421501206  0.7427751147902131  1.0000
  C   C216      1.0  0.5967044591440982  0.21449298970446673  0.7337660931265865  1.0000
  H   H141      1.0  0.6214157070159229  0.17440397475691352  0.7624025775792889  1.0000
  H   H142      1.0  0.5681851974712847  0.15013750117855068  0.777277184629306  1.0000
  H   H143      1.0  0.551841331957831  0.20955761215908128  0.7374292814511922  1.0000
  H   H144      1.0  0.6045859112084251  0.23235371975113253  0.7215467716146241  1.0000
  C   C217      1.0  0.30434378013400143  0.6292357442016627  0.06400348343943797  1.0000
  C   C218      1.0  0.28629671459164235  0.641694692955305  0.05783085033944871  1.0000
  C   C219      1.0  0.28189482395571414  0.6450048044704363  0.03660032729365689  1.0000
  C   C220      1.0  0.2955195256751981  0.6361607725944367  0.020981406637717234  1.0000
  C   C221      1.0  0.31349186483670843  0.6236094040555261  0.027129502328462243  1.0000
  C   C222      1.0  0.31773206746793536  0.6201236721689158  0.04837095405434321  1.0000
  H   H145      1.0  0.27580598988622185  0.6489358854641775  0.06944151697178678  1.0000
  H   H146      1.0  0.2679986387282125  0.6548129615137773  0.03226393417869701  1.0000
  H   H147      1.0  0.3243987626988661  0.616793570232599  0.015537070159015055  1.0000
  H   H148      1.0  0.33183880395681725  0.6105713966376335  0.052751848443434494  1.0000
  C   C223      1.0  0.5460846333098153  0.7588169823889155  0.3470859553181031  1.0000
  C   C224      1.0  0.5778968749533578  0.7765199729315823  0.3488468764019573  1.0000
  C   C225      1.0  0.5902205012900054  0.7850395691950768  0.36829425206937805  1.0000
  C   C226      1.0  0.5708464195317902  0.7754576128354835  0.386262139503461  1.0000
  C   C227      1.0  0.5390714250505472  0.7577575693979648  0.3844761194198534  1.0000
  C   C228      1.0  0.5267338506840206  0.7495120849899214  0.36503056212119467  1.0000
  H   H149      1.0  0.5930585992868946  0.7841302196871796  0.3350526698698218  1.0000
  H   H150      1.0  0.6146451307160765  0.7994141434444278  0.36932432351827255  1.0000
  H   H151      1.0  0.523821753231489  0.7503370205010557  0.3982233216982668  1.0000
  H   H152      1.0  0.5022231540390105  0.7359053102668496  0.3639436017052073  1.0000
  C   C229      1.0  0.4171353050374597  0.671987261354725  0.23435893229351468  1.0000
  C   C230      1.0  0.4225562402907915  0.7018625158270759  0.23162065713532487  1.0000
  C   C231      1.0  0.41210059064691607  0.7104991064995595  0.21423009147339483  1.0000
  C   C232      1.0  0.3948974125793995  0.6890150748299609  0.20003605359855636  1.0000
  C   C233      1.0  0.38886101116178456  0.6589734526187317  0.20305956108359183  1.0000
  C   C234      1.0  0.40062215447412697  0.6507198467615568  0.21987427952672445  1.0000
  H   H153      1.0  0.4354168686676321  0.7185267794187494  0.2425918340475941  1.0000
  H   H154      1.0  0.4172596274057834  0.7338739071687168  0.2117386643885507  1.0000
  H   H155      1.0  0.37593679133798474  0.6423619426002947  0.1920429785674356  1.0000
  H   H156      1.0  0.3969883863058014  0.6278286620542598  0.22152395099517333  1.0000
  C   C235      1.0  0.15431068028139955  0.7392787218499892  0.35284306781092983  1.0000
  C   C236      1.0  0.13218090630434726  0.7339157955730017  0.3686565868178225  1.0000
  C   C237      1.0  0.13601474592232177  0.7572655541456198  0.38150416666587  1.0000
  C   C238      1.0  0.16181839114022054  0.7863567021154827  0.37838993909349  1.0000
  C   C239      1.0  0.18380362513557866  0.7918320157958506  0.3624135388347588  1.0000
  C   C240      1.0  0.18020567515114447  0.7683319585126801  0.3497861635133582  1.0000
  H   H157      1.0  0.11191145698014836  0.7115947120702141  0.37100121021109606  1.0000
  H   H158      1.0  0.11885363678587946  0.7528182497361486  0.39367872299038864  1.0000
  H   H159      1.0  0.20367361087192157  0.8143795343055418  0.3597627586585408  1.0000
  H   H160      1.0  0.19691305566644646  0.772934837023843  0.33726444511905906  1.0000
  C   C241      1.0  0.24554767128795144  0.700805173696298  0.23272643968047976  1.0000
  C   C242      1.0  0.22247649707885275  0.6701398678912069  0.23527954668156145  1.0000
  C   C243      1.0  0.21841263110976075  0.6500608277421993  0.21964368808939527  1.0000
  C   C244      1.0  0.2381163278994272  0.660129330910356  0.20171340696367096  1.0000
  C   C245      1.0  0.2618731590963471  0.6905236976310429  0.19952057898545633  1.0000
  C   C246      1.0  0.2651684621563717  0.7108892004305631  0.21477349339036528  1.0000
  H   H161      1.0  0.20717677717200034  0.6621017526575683  0.24901511224676676  1.0000
  H   H162      1.0  0.19979193321533073  0.6267273164808181  0.2214188299333867  1.0000
  H   H163      1.0  0.2768735713500849  0.6986617454900337  0.18562552716054545  1.0000
  H   H164      1.0  0.2828135408055429  0.7346398600624836  0.21253153359118215  1.0000
  C   C247      1.0  0.3148610180404954  0.7256726846622958  0.3354713100694485  1.0000
  C   C248      1.0  0.3376180190854222  0.7204983374832075  0.34299701301860847  1.0000
  C   C249      1.0  0.36532300476383717  0.7310524653925207  0.33132789948475266  1.0000
  C   C250      1.0  0.3708498344408671  0.7480502717250063  0.3126007823532578  1.0000
  C   C251      1.0  0.3486231459948589  0.7544217061358705  0.3055772152819566  1.0000
  C   C252      1.0  0.3203076271541773  0.742527075531486  0.3166995124829354  1.0000
  H   H165      1.0  0.3336934634161571  0.7078832161037246  0.35765458177219167  1.0000
  H   H166      1.0  0.3825563056542857  0.7263627536135778  0.33695873659782966  1.0000
  H   H167      1.0  0.3531427689181736  0.7682096512310446  0.29136889744929806  1.0000
  H   H168      1.0  0.30291665872487683  0.7468351006551909  0.31087956197519745  1.0000
  C   C253      1.0  0.17064326686734324  0.3714943796453177  0.3676523231849269  1.0000
  C   C254      1.0  0.14858146595706778  0.34107966941526274  0.37355698468821175  1.0000
  C   C255      1.0  0.14310461717908848  0.3302335187860219  0.39445170134747753  1.0000
  C   C256      1.0  0.1595361964971165  0.34982011361802723  0.4096865587224889  1.0000
  C   C257      1.0  0.18168508982017129  0.3802305818535358  0.403787757826407  1.0000
  C   C258      1.0  0.18740721066725483  0.39095897965384985  0.38285429701906265  1.0000
  H   H169      1.0  0.13554310007111955  0.325822795057901  0.36190527708366005  1.0000
  H   H170      1.0  0.12598852678198266  0.30677167124340077  0.39876130030914214  1.0000
  H   H171      1.0  0.19473947291892652  0.39545471032650553  0.4154341162016068  1.0000
  H   H172      1.0  0.2048409300542884  0.4142329720164397  0.3784738489160146  1.0000
  C   C259      1.0  0.23036176285592902  0.5097102883025718  0.24332647413558328  1.0000
  C   C260      1.0  0.2418791333746  0.5405035436944254  0.23705782914715628  1.0000
  C   C261      1.0  0.2612635889938264  0.55342533895234  0.2190440671305175  1.0000
  C   C262      1.0  0.2691289810784392  0.5355335221512221  0.20717739112459835  1.0000
  C   C263      1.0  0.2585941826534929  0.5051044249298685  0.21394108713060803  1.0000
  C   C264      1.0  0.23914087196998865  0.49217332222487864  0.23187897820233946  1.0000
  H   H173      1.0  0.23516475196729283  0.5541625351194186  0.2458906029900114  1.0000
  H   H174      1.0  0.2695836210458425  0.5769994148364062  0.21415567840692626  1.0000
  H   H175      1.0  0.2646562994663141  0.4911426153445482  0.20488660111313528  1.0000
  H   H176      1.0  0.23001180855217393  0.46827087962525155  0.2364482507728982  1.0000
  C   C265      1.0  0.3368516802045054  0.5455598419339018  0.32510394030737  1.0000
  C   C266      1.0  0.32285196001509076  0.5502045880449252  0.34247140538891124  1.0000
  C   C267      1.0  0.33713106936194487  0.5784971133244089  0.35145609085634494  1.0000
  C   C268      1.0  0.3646094583631091  0.6026363217097667  0.3424532518402928  1.0000
  C   C269      1.0  0.37855150096789775  0.5979149560784827  0.3250939790214277  1.0000
  C   C270      1.0  0.36511690772136707  0.5691746419382826  0.3167885602792801  1.0000
  H   H177      1.0  0.30122310022897225  0.5318643002672909  0.3491446844717646  1.0000
  H   H178      1.0  0.32653603362714734  0.5817807372986805  0.3651344747939092  1.0000
  H   H179      1.0  0.3998692564950531  0.6162598469046364  0.31818018429080763  1.0000
  H   H180      1.0  0.37640610675159825  0.5654443008282668  0.30370319524900735  1.0000
  C   C271      1.0  0.19204865033253013  0.5449158771436485  0.3447107789067476  1.0000
  C   C272      1.0  0.1909318441285479  0.5695292463866946  0.352994020478382  1.0000
  C   C273      1.0  0.18120217198858288  0.5864942001455946  0.3411098551193617  1.0000
  C   C274      1.0  0.1717370334207222  0.5782501557278263  0.3211742033089329  1.0000
  C   C275      1.0  0.17251022258583484  0.55343024955277  0.31303554140382644  1.0000
  C   C276      1.0  0.18315909616880263  0.5371335928375868  0.32464113794791916  1.0000
  H   H181      1.0  0.19796096168625396  0.5757178733381291  0.3684774573970828  1.0000
  H   H182      1.0  0.1805067510220188  0.6055728422318418  0.34750712514311355  1.0000
  H   H183      1.0  0.1653920053124092  0.5470964992837134  0.2975753728065235  1.0000
  H   H184      1.0  0.18429334866313013  0.5184616734190757  0.31798193529454033  1.0000
  C   C277      1.0  0.6433207313972625  0.29688479384210703  0.028087830362358204  1.0000
  C   C278      1.0  0.6387378054685874  0.27647444845508873  0.04506089506817766  1.0000
  C   C279      1.0  0.6431842238875812  0.28606111309127963  0.06556105151912084  1.0000
  C   C280      1.0  0.6522322043695767  0.3163747315767017  0.06957955790715319  1.0000
  C   C281      1.0  0.6568147645102316  0.336754631452782  0.052608456572259085  1.0000
  C   C282      1.0  0.6525202902012606  0.32720514089316166  0.032096729039624405  1.0000
  H   H185      1.0  0.6316414281373658  0.25296776448396235  0.04233526942224431  1.0000
  H   H186      1.0  0.6396053252035252  0.26996089578854965  0.0782461060392541  1.0000
  H   H187      1.0  0.6637431759841279  0.36023680489206233  0.05533602695823986  1.0000
  H   H188      1.0  0.6561646459928727  0.3433492166972251  0.01940965876675653  1.0000
  C   C283      1.0  0.7609797148992125  0.1733053029654636  0.3616981032118448  1.0000
  C   C284      1.0  0.770797292479768  0.15221820513403153  0.3660751253758172  1.0000
  C   C285      1.0  0.7811117629698833  0.15004369304361206  0.38564618960864605  1.0000
  C   C286      1.0  0.7819257152894884  0.16914067253092788  0.4009791560893179  1.0000
  C   C287      1.0  0.7720147966781556  0.1900786747159087  0.39660658860787373  1.0000
  C   C288      1.0  0.7615499997668478  0.19213780783195591  0.37711135915895755  1.0000
  H   H189      1.0  0.7702945449361638  0.13744943663467327  0.3542736638250798  1.0000
  H   H190      1.0  0.7883115365346599  0.13358157474867813  0.3888653451956317  1.0000
  H   H191      1.0  0.7724627557065278  0.20490482113162356  0.40836605499650713  1.0000
  H   H192      1.0  0.7540781448432523  0.20845509280995678  0.3740074013697111  1.0000
  C   C289      1.0  0.6797203743763549  0.22874736370354629  0.24463483878504333  1.0000
  C   C290      1.0  0.7109221213489091  0.24820775982570842  0.23951606256770505  1.0000
  C   C291      1.0  0.7204585083966959  0.2671698171574948  0.22121948357726504  1.0000
  C   C292      1.0  0.6989054969710187  0.26761427899939433  0.2082993664289467  1.0000
  C   C293      1.0  0.6677011901114425  0.24849354352587616  0.21361105411897413  1.0000
  C   C294      1.0  0.6581784540662474  0.22874994060521123  0.23153766295979042  1.0000
  H   H193      1.0  0.7277223359186394  0.2481615415428045  0.24938409779308918  1.0000
  H   H194      1.0  0.744635257752034  0.28175972210142175  0.21711581366673946  1.0000
  H   H195      1.0  0.6508927770670924  0.24851132692598843  0.2037168170089144  1.0000
  H   H196      1.0  0.6339938790275459  0.21357216858699335  0.23532206814335085  1.0000
  C   C295      1.0  0.7717684202580526  0.5573642850183546  0.3530537950519238  1.0000
  C   C296      1.0  0.7449194511379967  0.5414690704444697  0.36577086031893086  1.0000
  C   C297      1.0  0.7431916205060308  0.5514971862480493  0.3854674676810377  1.0000
  C   C298      1.0  0.7682360272023723  0.5775213765534366  0.3926910466966711  1.0000
  C   C299      1.0  0.7949374595350313  0.5937638378496789  0.3798279673623349  1.0000
  C   C300      1.0  0.7966443469251895  0.5837273967246956  0.36007582276253913  1.0000
  H   H197      1.0  0.7253453097737667  0.5216411570843105  0.3603447922935655  1.0000
  H   H198      1.0  0.7223421592679197  0.5389978485180459  0.39523138073758823  1.0000
  H   H199      1.0  0.8143696493341792  0.6138211705146671  0.3852071425400908  1.0000
  H   H200      1.0  0.8174681585434588  0.5963070169997483  0.3503153594697597  1.0000
  C   C301      1.0  0.7341520528603362  0.43349289175525113  0.23799003789623513  1.0000
  C   C302      1.0  0.7392702214699092  0.4181376156687718  0.22215166214578944  1.0000
  C   C303      1.0  0.7179128443111569  0.4050236188064309  0.20696127378567164  1.0000
  C   C304      1.0  0.6921004107036476  0.4084734773392528  0.20705062068902932  1.0000
  C   C305      1.0  0.6877586168483303  0.42495468708186585  0.2224219336297772  1.0000
  C   C306      1.0  0.7082126243019681  0.43667020813457375  0.2381737418509211  1.0000
  H   H201      1.0  0.759587620876343  0.4160829264903565  0.22173836007320227  1.0000
  H   H202      1.0  0.7217519848121338  0.3928904850046771  0.19488610143937055  1.0000
  H   H203      1.0  0.6683978588592999  0.42854828742989337  0.22225597423571106  1.0000
  H   H204      1.0  0.704152389878944  0.44867222321374145  0.25021420622093343  1.0000
  C   C307      1.0  0.7355283216268149  0.37527663479553486  0.34300273140290627  1.0000
  C   C308      1.0  0.7508887335130133  0.3854597082344878  0.32348665440053026  1.0000
  C   C309      1.0  0.7627877334665599  0.36900545104728366  0.31377633847749603  1.0000
  C   C310      1.0  0.7583123465594905  0.34165540608315753  0.3231712442629946  1.0000
  C   C311      1.0  0.7422780662064874  0.33101526828095507  0.3424559297617038  1.0000
  C   C312      1.0  0.7314893657526368  0.3481880351527687  0.3525683740852159  1.0000
  H   H205      1.0  0.7540557826552644  0.40624373942095715  0.3159281881313243  1.0000
  H   H206      1.0  0.7752617388981543  0.3773673526627241  0.2989073302881305  1.0000
  H   H207      1.0  0.7388182223338321  0.309901268919187  0.34979789900107006  1.0000
  H   H208      1.0  0.7197254677700992  0.34025825487753497  0.3676882813035406  1.0000
  C   C313      1.0  0.3572980130242141  0.17249595257349642  0.4033040937263527  1.0000
  C   C314      1.0  0.3404899798432206  0.15427553597448532  0.3876158135291663  1.0000
  C   C315      1.0  0.35409279403160177  0.15894020061179204  0.3675445859473102  1.0000
  C   C316      1.0  0.3847028246772622  0.18167248881954984  0.3629348748458648  1.0000
  C   C317      1.0  0.40168526113908337  0.19978630411755513  0.3786307923260331  1.0000
  C   C318      1.0  0.38796062631383177  0.19526235262722874  0.3987137682495366  1.0000
  H   H209      1.0  0.3170144550379638  0.13652548614719956  0.39089104145026754  1.0000
  H   H210      1.0  0.34082956903715733  0.1447371225657093  0.35551795039471795  1.0000
  H   H211      1.0  0.4252995558691631  0.21737828933969777  0.3752829516536854  1.0000
  H   H212      1.0  0.40118348600844966  0.20948196803705554  0.4107459933348171  1.0000
  C   C319      1.0  0.5178277268639726  0.2679161578455359  0.23574363344552343  1.0000
  C   C320      1.0  0.513843144316037  0.2770634471247293  0.21600510461196892  1.0000
  C   C321      1.0  0.5282410473354996  0.27325078756817434  0.1984164064608021  1.0000
  C   C322      1.0  0.5473230319904597  0.2607558385563567  0.20033364311490642  1.0000
  C   C323      1.0  0.5519443973299194  0.25211619145906033  0.2201155888638999  1.0000
  C   C324      1.0  0.5370994290289628  0.25556383996841703  0.23781886789164228  1.0000
  H   H213      1.0  0.4989782057605065  0.2865780115663847  0.21426515945936303  1.0000
  H   H214      1.0  0.5241438637494692  0.279543954394694  0.18325642913326132  1.0000
  H   H215      1.0  0.5662043371590184  0.24188812235660262  0.22170094864694814  1.0000
  H   H216      1.0  0.540299559093791  0.24839831749227964  0.2529858924153114  1.0000
  C   C325      1.0  0.555581716348238  0.18862667420723242  0.33043698444776126  1.0000
  C   C326      1.0  0.5788943834510922  0.18459994648252687  0.3216166956083622  1.0000
  C   C327      1.0  0.6062220194714644  0.1944186882790549  0.331527181606039  1.0000
  C   C328      1.0  0.609867645995244  0.2072400724327507  0.3506819393877321  1.0000
  C   C329      1.0  0.5862759558113285  0.2107246744162611  0.359719973580453  1.0000
  C   C330      1.0  0.559391000461841  0.2019973464859655  0.34940929973923956  1.0000
  H   H217      1.0  0.5760412538741609  0.17434852524736588  0.3069102187930265  1.0000
  H   H218      1.0  0.6243361754794843  0.19184792208905319  0.324344972245767  1.0000
  H   H219      1.0  0.5889838028712072  0.2205954409013448  0.3745496881169881  1.0000
  H   H220      1.0  0.54140631096903  0.20508391433922096  0.35631792124556416  1.0000
  C   C331      1.0  0.5686773511768569  0.34071071167072453  0.3379326329725165  1.0000
  C   C332      1.0  0.5969267053350673  0.36196991012353624  0.34507660859118644  1.0000
  C   C333      1.0  0.616786376168204  0.38855223605411976  0.33289045658087607  1.0000
  C   C334      1.0  0.607909214606776  0.394519268542339  0.31391272186435043  1.0000
  C   C335      1.0  0.5794880043231705  0.3734439120495907  0.3068788017838598  1.0000
  C   C336      1.0  0.5601481001876357  0.34621583068734135  0.3186754573017586  1.0000
  H   H221      1.0  0.6034890405279149  0.35783569737494847  0.3600095081174617  1.0000
  H   H222      1.0  0.6385930300500265  0.4047985035789084  0.33845701823666036  1.0000
  H   H223      1.0  0.5723803685494464  0.3781669218430707  0.29236208829815313  1.0000
  H   H224      1.0  0.538272416336928  0.32987919704621727  0.31314791633053657  1.0000
  N   N1        1.0  0.16115173315557604  0.7272011257102188  0.8220229108149216  1.0000
  C   C337      1.0  0.17262107348121386  0.7544511635428153  0.8075770387997412  1.0000
  C   C338      1.0  0.1855790152451113  0.7309805225481635  0.8356188375390835  1.0000
  C   C339      1.0  0.1518703986635648  0.6998954260029346  0.8101318480732789  1.0000
  C   C340      1.0  0.1344698654240403  0.7233401035986355  0.834724707308759  1.0000
  H   H225      1.0  0.19279149088054587  0.7580854986008982  0.797750182341571  1.0000
  H   H226      1.0  0.17969940762664713  0.7755621501184895  0.8159169083089995  1.0000
  H   H227      1.0  0.1549970220970667  0.7520773246312351  0.7967664504863816  1.0000
  H   H228      1.0  0.17782638200157183  0.7105627646347553  0.8464778883452638  1.0000
  H   H229      1.0  0.20604125540997642  0.7338012695936773  0.826552499476295  1.0000
  H   H230      1.0  0.19320931264843164  0.7513025127923205  0.8449223968065296  1.0000
  H   H231      1.0  0.14315231649231672  0.6787957584480036  0.8204445391909853  1.0000
  H   H232      1.0  0.17160955789936988  0.7020622165356059  0.800657753702072  1.0000
  H   H233      1.0  0.13387475754742756  0.6964691472003133  0.7993725891745651  1.0000
  H   H234      1.0  0.14063998026025876  0.7435372894177066  0.8439401978276257  1.0000
  H   H235      1.0  0.12525612760945573  0.7028947855866607  0.8457350698749979  1.0000
  H   H236      1.0  0.11560783592881846  0.7203359775640966  0.8249168589955254  1.0000
  N   N2        1.0  0.3394421344503966  0.5563161473320819  0.25120338736554526  1.0000
  C   C341      1.0  0.33921732840525964  0.5592928908888241  0.22846605245176088  1.0000
  C   C342      1.0  0.3595427621644691  0.5866723409584291  0.2590358712465951  1.0000
  C   C343      1.0  0.35095496252973185  0.5354666769228718  0.25685750737182494  1.0000
  C   C344      1.0  0.3080427766887713  0.5437685634443006  0.2605024224467415  1.0000
  H   H237      1.0  0.3243858464087453  0.5368004580292691  0.2219742191960721  1.0000
  H   H238      1.0  0.36256574168182143  0.5688826740346795  0.22092880637211457  1.0000
  H   H239      1.0  0.3303853169205462  0.5746404199763403  0.2235611102623316  1.0000
  H   H240      1.0  0.3587476624840356  0.5856663629757553  0.27619243801655385  1.0000
  H   H241      1.0  0.38385106415969683  0.5959055207248737  0.2535317027073635  1.0000
  H   H242      1.0  0.3527862472646999  0.6035751481960631  0.2538946380032723  1.0000
  H   H243      1.0  0.3517802776751082  0.5329969562215774  0.27389825279146346  1.0000
  H   H244      1.0  0.3744629326807671  0.5439193626319864  0.24993235081559756  1.0000
  H   H245      1.0  0.33590089397204764  0.5121535990629595  0.2515751469215664  1.0000
  H   H246      1.0  0.2984608944159505  0.5587306901308037  0.2564935095713369  1.0000
  H   H247      1.0  0.3074258753644099  0.5412006356364758  0.27765612572902176  1.0000
  H   H248      1.0  0.2923188487719754  0.5207231301953359  0.2551050119253238  1.0000
  N   N3        1.0  0.07589448863024208  0.3105439951126283  0.7101935698823518  1.0000
  C   C345      1.0  0.08207581158414473  0.28666864098709877  0.7184325587404004  1.0000
  C   C346      1.0  0.04250283252837289  0.298565341051146  0.7112440334074537  1.0000
  C   C347      1.0  0.08797148733817634  0.31920727601057136  0.6884593061950799  1.0000
  C   C348      1.0  0.09104073387381657  0.33765127152774654  0.7225666341774075  1.0000
  H   H249      1.0  0.07340560019582507  0.27962981036501167  0.7348392842015358  1.0000
  H   H250      1.0  0.10705745340276784  0.2948273341292882  0.7176952916233623  1.0000
  H   H251      1.0  0.07087201901570524  0.26583584568254987  0.7094646454825856  1.0000
  H   H252      1.0  0.03694756479604343  0.31589165603907104  0.7050231041680236  1.0000
  H   H253      1.0  0.03053981733983813  0.27805814172410204  0.7020118469501581  1.0000
  H   H254      1.0  0.03252318223568508  0.29169657409304983  0.7274111881865988  1.0000
  H   H255      1.0  0.11293059112878873  0.3275857326966865  0.6870003880292501  1.0000
  H   H256      1.0  0.08434204560792177  0.33762654003750303  0.6817961551117839  1.0000
  H   H257      1.0  0.07669423532698086  0.2994351364649323  0.6786087621109818  1.0000
  H   H258      1.0  0.08683300184294411  0.35614353974606694  0.7168330934595449  1.0000
  H   H259      1.0  0.11629700276943786  0.3473136129505896  0.721917553840849  1.0000
  H   H260      1.0  0.08276811638104423  0.33195158154035537  0.7391246008489788  1.0000
  N   N4        1.0  0.4973126784226481  0.7917135138229526  0.7018203919754363  1.0000
  C   C349      1.0  0.4879076756193283  0.7591407157094439  0.705304382566322  1.0000
  C   C350      1.0  0.48265167773934864  0.800463613561086  0.7182354307357768  1.0000
  C   C351      1.0  0.48763029283838877  0.7965878202083002  0.6814898162386963  1.0000
  C   C352      1.0  0.5309740008000418  0.8104512255113636  0.702301746250143  1.0000
  H   H261      1.0  0.46262715052884795  0.7442102103255267  0.705249216748688  1.0000
  H   H262      1.0  0.49502644950038543  0.7547775143859374  0.7204625454092167  1.0000
  H   H263      1.0  0.49843675390594117  0.7516296951819562  0.6932144132109069  1.0000
  H   H264      1.0  0.4881474899730852  0.8245605610341203  0.7156739062463323  1.0000
  H   H265      1.0  0.4572328405120634  0.785624147315451  0.7190637634918383  1.0000
  H   H266      1.0  0.49055369111072133  0.7982732986829314  0.7336691418497797  1.0000
  H   H267      1.0  0.4982485903536106  0.7900746002929402  0.6687971038712346  1.0000
  H   H268      1.0  0.49432739104108964  0.8209482408318907  0.6782973459722245  1.0000
  H   H269      1.0  0.4623012830638461  0.7825979757290298  0.6807512726231723  1.0000
  H   H270      1.0  0.5391037556241298  0.83519056590513  0.6993935108874498  1.0000
  H   H271      1.0  0.5428251380684055  0.8038274257791062  0.6905218390497458  1.0000
  H   H272      1.0  0.5388562273329535  0.8075337163947073  0.7176200174193809  1.0000
  N   N5        1.0  0.7373890060346604  0.8193702399668602  0.5583037202177672  1.0000
  C   C353      1.0  0.7337752623292436  0.8220995038380547  0.5359479764570937  1.0000
  C   C354      1.0  0.7648031798537938  0.816648683649769  0.5614345045482894  1.0000
  C   C355      1.0  0.7100505829564472  0.7919061698549342  0.5678364780834975  1.0000
  C   C356      1.0  0.7409056438585456  0.8468172124189887  0.5680376657983279  1.0000
  H   H273      1.0  0.7540948000053167  0.8423893404122308  0.5281638683936222  1.0000
  H   H274      1.0  0.7135715196393754  0.8247019653431574  0.5331387646222372  1.0000
  H   H275      1.0  0.7304182679279649  0.8015429123932044  0.5280885847832796  1.0000
  H   H276      1.0  0.7680526616261165  0.8145181017745317  0.5782037096303074  1.0000
  H   H277      1.0  0.7629232140607792  0.7961325996239099  0.5543326469153849  1.0000
  H   H278      1.0  0.7859170230637487  0.837043877102854  0.5545561057994397  1.0000
  H   H279      1.0  0.7065566558768513  0.7707908762855673  0.5607478449922491  1.0000
  H   H280      1.0  0.6889864340583606  0.793307700381  0.5660237942023303  1.0000
  H   H281      1.0  0.7120778960524804  0.7890539957450274  0.5846864119859083  1.0000
  H   H282      1.0  0.7442403743678951  0.8458472080288529  0.5848331953130536  1.0000
  H   H283      1.0  0.720341315694528  0.8491903625377826  0.5664738304962806  1.0000
  H   H284      1.0  0.7608989989721863  0.8680632714381197  0.5609472158409949  1.0000
  N   N6        1.0  0.7186876471309953  0.3356405181749954  0.2542284070142699  1.0000
  C   C357      1.0  0.7191435335055503  0.3616114311863246  0.2642783655260103  1.0000
  C   C358      1.0  0.732473991128563  0.34552968437215104  0.23290998091642331  1.0000
  C   C359      1.0  0.6867448422469615  0.3104535984017635  0.25365109986142303  1.0000
  C   C360      1.0  0.7363795535220536  0.32492006844099963  0.26606698192977174  1.0000
  H   H285      1.0  0.705623752479731  0.3700166550585094  0.2559321724395819  1.0000
  H   H286      1.0  0.7429020993808341  0.3812786129338781  0.26458039402211597  1.0000
  H   H287      1.0  0.7096360565128446  0.3552311549804537  0.280565177061148  1.0000
  H   H288      1.0  0.7562422321821229  0.3651943533119414  0.23263882239745198  1.0000
  H   H289      1.0  0.7335074131165471  0.32688092869132035  0.2250672046588819  1.0000
  H   H290      1.0  0.7188819552450904  0.35239157239606306  0.22324027244893124  1.0000
  H   H291      1.0  0.6857260981193876  0.29051533375023425  0.2462624929124638  1.0000
  H   H292      1.0  0.6727801490369032  0.317533489507308  0.2445554896397899  1.0000
  H   H293      1.0  0.6755586764064287  0.3022935806431636  0.2694401752215587  1.0000
  H   H294      1.0  0.7605769733431418  0.3433415497662945  0.26704446531430903  1.0000
  H   H295      1.0  0.7367751908257483  0.30547693067463155  0.25890454882939784  1.0000
  H   H296      1.0  0.7264477202954426  0.31698138425559297  0.2821748932343275  1.0000
  N   N7        1.0  0.5742915262252606  0.7995250432267871  0.4859471786462714  1.0000
  C   C361      1.0  0.5790633380823236  0.7846174054877468  0.4681653022865072  1.0000
  C   C362      1.0  0.5471142322526159  0.8027411199642116  0.48307281311731515  1.0000
  C   C363      1.0  0.6014942148519206  0.8300832748899881  0.4873220473463143  1.0000
  C   C364      1.0  0.569538476910988  0.7806966498841893  0.5051630947630305  1.0000
  H   H297      1.0  0.599154074798465  0.7814264362350899  0.46992265245047177  1.0000
  H   H298      1.0  0.5832491258723748  0.7984813959223318  0.4534459240107586  1.0000
  H   H299      1.0  0.5588842084530451  0.7616991140226204  0.4663371083994482  1.0000
  H   H300      1.0  0.5261517146184181  0.7800893021103038  0.48201903231826043  1.0000
  H   H301      1.0  0.5429714560861697  0.8141629214689956  0.49611957128504236  1.0000
  H   H302      1.0  0.5499635385794697  0.816600322279902  0.46855706462174024  1.0000
  H   H303      1.0  0.6054492248298928  0.845164445229813  0.4732653099001951  1.0000
  H   H304      1.0  0.6225310290409733  0.828508931232361  0.48881971400506596  1.0000
  H   H305      1.0  0.599277818342827  0.8416944321139118  0.5009632153823769  1.0000
  H   H306      1.0  0.5661959330204195  0.7913866523689451  0.5189555776728214  1.0000
  H   H307      1.0  0.589646382714209  0.7777768523684211  0.5076928438672257  1.0000
  H   H308      1.0  0.5492668067956715  0.7574415808710016  0.504655373583229  1.0000
  N   N8        1.0  0.22779989689556357  0.5486104300272024  0.9907569859811225  1.0000
  C   C365      1.0  0.2195046146377578  0.5725873736879509  0.9930601279438287  1.0000
  C   C366      1.0  0.22412668126291072  0.5394005844510605  0.9691996546410799  1.0000
  C   C367      1.0  0.2076305068997829  0.5219030815529141  0.004936833930451133  1.0000
  C   C368      1.0  0.25994939043848947  0.5605706309471813  0.995900501165733  1.0000
  H   H309      1.0  0.2239849112496277  0.5816568582372469  0.008736048260387715  1.0000
  H   H310      1.0  0.19499449821341652  0.5640053891013477  0.9903544011808785  1.0000
  H   H311      1.0  0.23322262722532888  0.5924283688930284  0.981830508565748  1.0000
  H   H312      1.0  0.2001384981960508  0.5301320734384138  0.9647423712418886  1.0000
  H   H313      1.0  0.23876921543562152  0.5591238821587831  0.9580976528076031  1.0000
  H   H314      1.0  0.23061720745785183  0.5216822321170637  0.9666812644784839  1.0000
  H   H315      1.0  0.21342610388712052  0.5034638103073001  0.0036826822966318407  1.0000
  H   H316      1.0  0.18316980790669424  0.5121555874566168  0.001487151524773701  1.0000
  H   H317      1.0  0.20984914500421  0.5282559869795787  0.021308674665960117  1.0000
  H   H318      1.0  0.2758365743352026  0.5809624943941598  0.9857115006081527  1.0000
  H   H319      1.0  0.2672018835017347  0.5432730727413866  0.9942057513811077  1.0000
  H   H320      1.0  0.26357350294681947  0.5678788478006395  0.012042232559396697  1.0000
  N   N9        1.0  0.7487359853751058  0.5721133096324081  0.6090119878871695  1.0000
  C   C369      1.0  0.7740125132371598  0.5692571824083363  0.6175796942510419  1.0000
  C   C370      1.0  0.7612781690194572  0.5970186925113984  0.5926184804566995  1.0000
  C   C371      1.0  0.7328809969039461  0.5792270362683375  0.6255858387224141  1.0000
  C   C372      1.0  0.7268561839149512  0.543098413694436  0.6002902067177637  1.0000
  H   H321      1.0  0.7655837345362172  0.551392159811545  0.6305286811935407  1.0000
  H   H322      1.0  0.7911940540890777  0.5909495539635642  0.6239891292913851  1.0000
  H   H323      1.0  0.7862652944199885  0.5634476152739873  0.6056183331648682  1.0000
  H   H324      1.0  0.77779867011678  0.6191296278591717  0.598833023187925  1.0000
  H   H325      1.0  0.7735260951682823  0.59269546344461  0.5797621038690601  1.0000
  H   H326      1.0  0.7430567005471981  0.6003007344955681  0.5858857854725057  1.0000
  H   H327      1.0  0.7134123415417186  0.581182161913269  0.6198070396548271  1.0000
  H   H328      1.0  0.7487115938095886  0.6013075250943893  0.6321573726024835  1.0000
  H   H329      1.0  0.7240359373819859  0.5615337252469939  0.6386519588320144  1.0000
  H   H330      1.0  0.7075474918093922  0.5445459705451154  0.593655224416763  1.0000
  H   H331      1.0  0.7169935649675295  0.5238636852081907  0.6123239224860156  1.0000
  H   H332      1.0  0.7381328715875717  0.5371395643079239  0.5876999057223611  1.0000
  N   N10       1.0  0.13547501068849413  0.4359197302009946  0.38116594699999995  1.0000
  C   C373      1.0  0.1260266463229538  0.40810872506468443  0.3697568537257071  1.0000
  C   C374      1.0  0.13051484186425646  0.4579944520653952  0.3687639851630292  1.0000
  C   C375      1.0  0.16824964574975576  0.4499405551925569  0.385178843580442  1.0000
  C   C376      1.0  0.11719221020327437  0.427637147926668  0.40102843157214635  1.0000
  H   H333      1.0  0.12902528829389281  0.3907796757054349  0.3788292684967974  1.0000
  H   H334      1.0  0.13990433097993002  0.4132573087605764  0.3549156955663684  1.0000
  H   H335      1.0  0.10160674351346086  0.39717383096282616  0.3660206287802658  1.0000
  H   H336      1.0  0.1377604373450122  0.47940821776774006  0.37682589640217345  1.0000
  H   H337      1.0  0.14421148110893453  0.4648987072142301  0.3537606587074775  1.0000
  H   H338      1.0  0.10608596150347259  0.44827839199547376  0.3653094938455395  1.0000
  H   H339      1.0  0.1825211022347828  0.45519657235461203  0.37055396917040184  1.0000
  H   H340      1.0  0.17273640400310128  0.4345172110971306  0.3952270079312634  1.0000
  H   H341      1.0  0.17667995198351308  0.47185240607546886  0.3928103184314855  1.0000
  H   H342      1.0  0.12393837043384459  0.44806600655695533  0.41011054663422536  1.0000
  H   H343      1.0  0.120411645647899  0.41087912738557636  0.41066672113208014  1.0000
  H   H344      1.0  0.09232114146757989  0.4170401053049614  0.39858136640242947  1.0000
  N   N11       1.0  0.8754697141978639  0.17607440381059214  0.37357130281951545  1.0000
  C   C377      1.0  0.9082056804678257  0.18630280456396625  0.3691116761263707  1.0000
  C   C378      1.0  0.8566872970406514  0.14389948404680566  0.36836534449836417  1.0000
  C   C379      1.0  0.866811323552832  0.19539315161181298  0.3612034261569296  1.0000
  C   C380      1.0  0.8701803472541376  0.1786143418427755  0.3957424587433612  1.0000
  H   H345      1.0  0.9231528018693612  0.21032538248676702  0.3731651368400414  1.0000
  H   H346      1.0  0.9132168793284425  0.18480956909045088  0.3525097684317193  1.0000
  H   H347      1.0  0.9152443390305858  0.17193694802060586  0.3782299760676286  1.0000
  H   H348      1.0  0.8318750744796227  0.1353531325425972  0.3715249399610913  1.0000
  H   H349      1.0  0.8603851361869708  0.14102490295021672  0.3518001338705502  1.0000
  H   H350      1.0  0.8623917671310967  0.12864603380845716  0.37763727596102464  1.0000
  H   H351      1.0  0.8806237599316229  0.21982930718120958  0.3647298441369561  1.0000
  H   H352      1.0  0.8422897013742268  0.1883894253400995  0.36448918380222833  1.0000
  H   H353      1.0  0.8702188207901868  0.19387682764091613  0.34435367856098026  1.0000
  H   H354      1.0  0.8456235245301409  0.17035540922831963  0.39993295112388094  1.0000
  H   H355      1.0  0.8835005335878129  0.20261689566559488  0.40024965558464976  1.0000
  H   H356      1.0  0.8772324593047942  0.16489545165425834  0.40541645394320286  1.0000
  N   N12       1.0  0.7468570179104166  0.0007725003788059404  0.6010222588865708  1.0000
  C   C381      1.0  0.7461507235798063  0.008643618618035864  0.5789629772019391  1.0000
  C   C382      1.0  0.7346866243837744  0.967504832706783  0.6042033637761232  1.0000
  C   C383      1.0  0.727892120217997  0.009566843950520765  0.6136532772026136  1.0000
  C   C384      1.0  0.7787369924518506  0.01749857627569762  0.6072932549232166  1.0000
  H   H357      1.0  0.7224524548386821  0.9964655655033129  0.5736787305141068  1.0000
  H   H358      1.0  0.760450810528672  0.002592329223221723  0.5689783175618376  1.0000
  H   H359      1.0  0.7550959468138952  0.0335927668934064  0.5760639346830219  1.0000
  H   H360      1.0  0.7346859821827986  0.9607423051042537  0.6207103653398003  1.0000
  H   H361      1.0  0.7106534011557806  0.9541238946990312  0.5996140076933021  1.0000
  H   H362      1.0  0.7485396095621868  0.9600319865020407  0.5950422894740726  1.0000
  H   H363      1.0  0.7036616028095449  0.9974099109805086  0.6094070366638339  1.0000
  H   H364      1.0  0.7365010249762  0.034567990482309296  0.6116374508009669  1.0000
  H   H365      1.0  0.728073417757956  0.004100920234366479  0.6303886737051202  1.0000
  H   H366      1.0  0.7938381749631166  0.011602707985998828  0.5980929175003975  1.0000
  H   H367      1.0  0.7801165683080177  0.012157922351500705  0.6238558107348904  1.0000
  H   H368      1.0  0.7884855756101014  0.042674244780573245  0.6051688192950513  1.0000
  N   N13       1.0  0.0292261080331504  0.7210785875736065  0.6891874513608581  1.0000
  C   C385      1.0  0.028550842120589115  0.6923859323731221  0.6954941043285541  1.0000
  C   C386      1.0  0.00730531670219392  0.7248187076509899  0.7027243448627442  1.0000
  C   C387      1.0  0.020644126409963715  0.7199993420452804  0.6675641873270262  1.0000
  C   C388      1.0  0.06043616669155649  0.7471503631061668  0.6909101546742652  1.0000
  H   H369      1.0  0.045095000214446346  0.6891253066350385  0.6856450596675212  1.0000
  H   H370      1.0  0.005397569183697382  0.6721826314995264  0.6942133790617173  1.0000
  H   H371      1.0  0.03477484351923299  0.6923692976374222  0.7117811341887522  1.0000
  H   H372      1.0  0.007272737325673351  0.7462845078537731  0.698300400869147  1.0000
  H   H373      1.0  0.983461141054728  0.7056770477133767  0.7017086767281364  1.0000
  H   H374      1.0  0.013097116923455054  0.7259306830526385  0.7191663712379133  1.0000
  H   H375      1.0  0.02128212957026898  0.7414727816657755  0.6623028929154079  1.0000
  H   H376      1.0  0.9970144891812454  0.7009596916245945  0.6656917882067063  1.0000
  H   H377      1.0  0.03658245099196189  0.7170881848964157  0.6568625038774215  1.0000
  H   H378      1.0  0.06791926326297171  0.7484917348286765  0.706945562409093  1.0000
  H   H379      1.0  0.0616016347232049  0.7691948454347943  0.6865824197934403  1.0000
  H   H380      1.0  0.07751768164192163  0.7454257266238442  0.6805717332226087  1.0000
  N   N14       1.0  0.5901987142782826  0.3606018074948043  0.2394960052935971  1.0000
  C   C389      1.0  0.559150651956599  0.3477473984843143  0.24947232213076398  1.0000
  C   C390      1.0  0.5941301150895874  0.33575130212608867  0.231417435292603  1.0000
  C   C391      1.0  0.6130975036607418  0.37648224623413834  0.25483929751382073  1.0000
  C   C392      1.0  0.5943427478524363  0.3824346846432958  0.22222956083670206  1.0000
  H   H381      1.0  0.5553614932085842  0.36584336821939584  0.2557363123136733  1.0000
  H   H382      1.0  0.5550763592326523  0.3310389147492141  0.2625633296909861  1.0000
  H   H383      1.0  0.5411746478296733  0.33545565955849405  0.23841868338032257  1.0000
  H   H384      1.0  0.6174418327357221  0.3446840431366713  0.2238925445728891  1.0000
  H   H385      1.0  0.5903742251073782  0.3183414477873885  0.24388661647005716  1.0000
  H   H386      1.0  0.577525217310421  0.32367520608461353  0.21954394369343927  1.0000
  H   H387      1.0  0.6367756023843263  0.38532686319904014  0.24819049864431425  1.0000
  H   H388      1.0  0.6095822653547813  0.36101943324360153  0.2685749912580516  1.0000
  H   H389      1.0  0.6117192766569791  0.39628493213651206  0.260539979855466  1.0000
  H   H390      1.0  0.6172830222719189  0.3921051566026584  0.214054818579964  1.0000
  H   H391      1.0  0.5920884580439655  0.4018289354801599  0.22773036389597526  1.0000
  H   H392      1.0  0.5771190128434623  0.37114715439575013  0.21053893341202376  1.0000
  N   N15       1.0  0.4357626520567758  0.1204439723925006  0.7392456810791077  1.0000
  C   C393      1.0  0.43406752619943656  0.13628170812616122  0.7574882575063822  1.0000
  C   C394      1.0  0.4602586030863768  0.14262450794135065  0.7242871781568591  1.0000
  C   C395      1.0  0.40610054258959516  0.10655725746091084  0.7294785478087812  1.0000
  C   C396      1.0  0.44274657885894625  0.0964233127787693  0.74580573251646  1.0000
  H   H393      1.0  0.41523113966940134  0.12057313369640722  0.7688732611904122  1.0000
  H   H394      1.0  0.429839671834105  0.15520495000151532  0.7530545193289417  1.0000
  H   H395      1.0  0.45575882580096166  0.14632764910466933  0.7655594040994549  1.0000
  H   H396      1.0  0.46244045237835285  0.13144135909165922  0.710399651073339  1.0000
  H   H397      1.0  0.4556394181163253  0.16097418388814477  0.7188684524263009  1.0000
  H   H398      1.0  0.4829120479598389  0.15382482242625323  0.7312888301474305  1.0000
  H   H399      1.0  0.4066441235649966  0.09495685115569218  0.7153619895694348  1.0000
  H   H400      1.0  0.39993217310871376  0.1240940857595041  0.724782834644523  1.0000
  H   H401      1.0  0.3871405089997262  0.0894477501762103  0.7402531660458285  1.0000
  H   H402      1.0  0.46515919981850995  0.10640857765199743  0.7531217763341402  1.0000
  H   H403      1.0  0.444109363653063  0.08387524985002724  0.7324570955389116  1.0000
  H   H404      1.0  0.4249603259650364  0.07948763537034056  0.7573116357783143  1.0000
  N   N16       1.0  0.634673502550025  0.30192588510613866  0.3384121087637488  1.0000
  C   C397      1.0  0.6325974445744993  0.28317909749198283  0.32093487794773523  1.0000
  C   C398      1.0  0.6517626607214112  0.33464478912202894  0.33140327115212237  1.0000
  C   C399      1.0  0.6506553119806742  0.29618759991854127  0.3551246444740563  1.0000
  C   C400      1.0  0.6035187553896664  0.29363692949104864  0.34619375719524315  1.0000
  H   H405      1.0  0.6201080991308479  0.2864949714012827  0.30822270257411466  1.0000
  H   H406      1.0  0.6200280908081162  0.25841009433223217  0.32581830010518453  1.0000
  H   H407      1.0  0.6556716528991895  0.28881188750080233  0.3145920378423567  1.0000
  H   H408      1.0  0.6754671467220754  0.3417557395062295  0.3255062654035718  1.0000
  H   H409      1.0  0.6401336126793732  0.33991917945911326  0.31898440878037515  1.0000
  H   H410      1.0  0.6537376325025347  0.3494076509749348  0.34427206090829654  1.0000
  H   H411      1.0  0.6552318957270881  0.3120006734909133  0.3677236797504304  1.0000
  H   H412      1.0  0.6728946350685312  0.29891209207621794  0.34929571707320783  1.0000
  H   H413      1.0  0.6369108613534129  0.2725365844830766  0.36218486358762303  1.0000
  H   H414      1.0  0.590856885559524  0.29770094072385267  0.33395775344331446  1.0000
  H   H415      1.0  0.6039626713932096  0.307186190554601  0.35944294420304224  1.0000
  H   H416      1.0  0.5897389043861548  0.26909640256025874  0.35151797457894013  1.0000
  N   N17       1.0  0.08757742795958648  0.6200928756764266  0.3160377870665178  1.0000
  C   C401      1.0  0.1102547527332561  0.6250373665822267  0.33141493792674775  1.0000
  C   C402      1.0  0.08999409186682175  0.6496319841803758  0.30973103534756535  1.0000
  C   C403      1.0  0.05649849055034597  0.5989145966473  0.32528562465752753  1.0000
  C   C404      1.0  0.09364618295927257  0.6068048406268064  0.29778667444301776  1.0000
  H   H417      1.0  0.1093906291581167  0.6033370302330361  0.33646420217792516  1.0000
  H   H418      1.0  0.10684353341661461  0.635554866029299  0.34529655497272593  1.0000
  H   H419      1.0  0.133804845262439  0.6407329364209369  0.32480726726340564  1.0000
  H   H420      1.0  0.07323858692608946  0.6469179434105702  0.29813901073290316  1.0000
  H   H421      1.0  0.08599711340682181  0.660526346308393  0.3231966153932236  1.0000
  H   H422      1.0  0.11324551843772122  0.6662394176594956  0.302787167014489  1.0000
  H   H423      1.0  0.038758856283128244  0.594677228807168  0.3141135941584524  1.0000
  H   H424      1.0  0.05131103019026855  0.6082925979683748  0.3391378486506021  1.0000
  H   H425      1.0  0.053988312360949725  0.5764331386143063  0.33022798258911007  1.0000
  H   H426      1.0  0.07693937610649283  0.6025595609875672  0.2858332845195845  1.0000
  H   H427      1.0  0.0926302324497844  0.5847784087644984  0.3020690017052552  1.0000
  H   H428      1.0  0.1169627426231401  0.6222151097246736  0.2904413671030622  1.0000
  N   N18       1.0  0.7573805172700112  0.4731055757474024  0.3929042754661265  1.0000
  C   C405      1.0  0.7714480090534132  0.4810609857991758  0.3716099167142709  1.0000
  C   C406      1.0  0.72440661528997  0.4628245537388552  0.392424071663039  1.0000
  C   C407      1.0  0.7724856496342765  0.5002260772949298  0.4052756878750878  1.0000
  C   C408      1.0  0.7611270987431462  0.44817082254385754  0.40223260209917855  1.0000
  H   H429      1.0  0.7610542604511801  0.4608736349039244  0.3620532460976718  1.0000
  H   H430      1.0  0.796463372232108  0.4895887765333231  0.3713509248024004  1.0000
  H   H431      1.0  0.7683459125226201  0.4992227059370097  0.3638421129920742  1.0000
  H   H432      1.0  0.7129836343776943  0.45658283553494555  0.4082233160379864  1.0000
  H   H433      1.0  0.7206573825016356  0.48102964735452153  0.38548417230448645  1.0000
  H   H434      1.0  0.7123899528799513  0.4424090785410971  0.3831403137330697  1.0000
  H   H435      1.0  0.7709373672365087  0.5197668514703577  0.3982784573531157  1.0000
  H   H436      1.0  0.7972477680736253  0.5081769048301876  0.40639603086366205  1.0000
  H   H437      1.0  0.761796139086628  0.4954786723721148  0.42125828272297455  1.0000
  H   H438      1.0  0.7508235595780322  0.4415848587430704  0.4183360889122639  1.0000
  H   H439      1.0  0.7857073437936977  0.45493658681785826  0.40264561978746816  1.0000
  H   H440      1.0  0.7498131606485113  0.42733038367936393  0.3932472066076572  1.0000
  N   N19       1.0  0.43438420347395945  0.1263902057385135  0.35678039490905267  1.0000
  C   C409      1.0  0.4159713174368073  0.09278462050764308  0.35982549110424716  1.0000
  C   C410      1.0  0.42284968011567925  0.1404227810359796  0.37155834780907154  1.0000
  C   C411      1.0  0.43185230802355645  0.13582267550250612  0.33547676428445933  1.0000
  C   C412      1.0  0.4668063564690061  0.13653966991954514  0.360166407366085  1.0000
  H   H441      1.0  0.424077015551538  0.0815760766079931  0.348824639337538  1.0000
  H   H442      1.0  0.3914071375864991  0.08447884145361062  0.3573198381722846  1.0000
  H   H443      1.0  0.4173138118068567  0.08485463530906007  0.3757685990848044  1.0000
  H   H444      1.0  0.43592663911463864  0.16581154142936463  0.3694431253383716  1.0000
  H   H445      1.0  0.39844844084013503  0.13327198096289725  0.3693592776709466  1.0000
  H   H446      1.0  0.4245488112211127  0.1341277841189891  0.38785103734043774  1.0000
  H   H447      1.0  0.40771742552896945  0.12851550240285065  0.3322205726493571  1.0000
  H   H448      1.0  0.4411874547198838  0.12656213325360677  0.3237792190861646  1.0000
  H   H449      1.0  0.4448884016287225  0.16101685758538375  0.332926090054899  1.0000
  H   H450      1.0  0.4813697564247201  0.16179037578280153  0.3579047342321618  1.0000
  H   H451      1.0  0.476413620515028  0.12680088295196845  0.34901807416637537  1.0000
  H   H452      1.0  0.4697394777567411  0.12983844587263677  0.3760554657632343  1.0000
  N   N20       1.0  0.6441254341358847  0.30869856940975937  0.7643355212093682  1.0000
  C   C413      1.0  0.6241326171685432  0.3168076545346125  0.7763973993605974  1.0000
  C   C414      1.0  0.6499049633424342  0.3227604997076586  0.743100714510354  1.0000
  C   C415      1.0  0.6289680259176309  0.27517374505212294  0.7634954340197029  1.0000
  C   C416      1.0  0.6734569351391094  0.3199871082781232  0.7742444072000144  1.0000
  H   H453      1.0  0.6017502442533933  0.30835900092615254  0.769350186025732  1.0000
  H   H454      1.0  0.6347106094582937  0.3420224014940984  0.7769856387963768  1.0000
  H   H455      1.0  0.6192566580435468  0.30666894360204894  0.7925097207254942  1.0000
  H   H456      1.0  0.660895503797143  0.34808377879859254  0.7430744091867441  1.0000
  H   H457      1.0  0.6654531105715712  0.31768144272903764  0.7336500288698496  1.0000
  H   H458      1.0  0.6282408901157687  0.3142841014754878  0.7350403927577861  1.0000
  H   H459      1.0  0.6243794975276514  0.26359780848947895  0.7791557363610417  1.0000
  H   H460      1.0  0.6434190295063049  0.2683981898488158  0.7542819325487359  1.0000
  H   H461      1.0  0.6067348900660607  0.26598761926455294  0.756096362316348  1.0000
  H   H462      1.0  0.6864964352006547  0.34540389569139945  0.7738690858018789  1.0000
  H   H463      1.0  0.688296149108791  0.3127335934991615  0.7661331655233962  1.0000
  H   H464      1.0  0.6699374154986023  0.3110589334355807  0.7905996526866277  1.0000
  N   N21       1.0  0.6759996872705241  0.5277501291284754  0.7610221739909294  1.0000
  C   C417      1.0  0.6921442280016853  0.5276987014664978  0.7416091681925346  1.0000
  C   C418      1.0  0.6599865769419294  0.5450278149933829  0.757274780727854  1.0000
  C   C419      1.0  0.6983795252462072  0.5423129557838421  0.7768988258704924  1.0000
  C   C420      1.0  0.6535824446658673  0.49594462900040076  0.7682870339351158  1.0000
  H   H465      1.0  0.7044551515613919  0.5148551228570611  0.7439353634453673  1.0000
  H   H466      1.0  0.7096256130651776  0.5512880233186522  0.7357535767082297  1.0000
  H   H467      1.0  0.6760947306161949  0.5168436720748711  0.7292349848200038  1.0000
  H   H468      1.0  0.6764407382506717  0.5691578783673275  0.7518671718264198  1.0000
  H   H469      1.0  0.6430601011769517  0.5347268616906926  0.7452803677354538  1.0000
  H   H470      1.0  0.6474147295355425  0.5453983442994728  0.7715898244556174  1.0000
  H   H471      1.0  0.7097401125058463  0.5289576444079716  0.7808559296266427  1.0000
  H   H472      1.0  0.6873251947510092  0.5441179569684027  0.791480142983292  1.0000
  H   H473      1.0  0.7169606759544477  0.5656393308812718  0.7714264267922148  1.0000
  H   H474      1.0  0.6363417669865696  0.4839782085186217  0.7567352931448037  1.0000
  H   H475      1.0  0.6410613197522931  0.49485009112950745  0.783029403384751  1.0000
  H   H476      1.0  0.6650748613702882  0.48239441945663053  0.7711573816482672  1.0000
  N   N22       1.0  0.2816976205334646  0.4569022195397309  0.7163426638484693  1.0000
  C   C421      1.0  0.26454659837072775  0.42810107088480687  0.7293498159863867  1.0000
  C   C422      1.0  0.29305652437147733  0.4508956620969223  0.6967892852472185  1.0000
  C   C423      1.0  0.30786484870641523  0.4794657217723218  0.7274143332745912  1.0000
  C   C424      1.0  0.26129824718272443  0.4691914636164266  0.7117632442416881  1.0000
  H   H477      1.0  0.25419852949158106  0.43133461795444905  0.7438004658113958  1.0000
  H   H478      1.0  0.27950894213639976  0.41886104062519014  0.7339423178763703  1.0000
  H   H479      1.0  0.245473018034545  0.41011777124044313  0.7210965685061576  1.0000
  H   H480      1.0  0.3085017847510674  0.4415504680390148  0.6996581861987986  1.0000
  H   H481      1.0  0.27379611605991855  0.4339563952073436  0.6880574964331088  1.0000
  H   H482      1.0  0.3060318874312326  0.47215251894026344  0.6865947073748049  1.0000
  H   H483      1.0  0.3209558829829881  0.5017141035784731  0.7182290914963685  1.0000
  H   H484      1.0  0.3239860445821272  0.47123063737950294  0.7310381646565067  1.0000
  H   H485      1.0  0.30002845326270416  0.4843945595799153  0.742241826062763  1.0000
  H   H486      1.0  0.2737663193537965  0.4915787239777953  0.7027003553592465  1.0000
  H   H487      1.0  0.2515859551279746  0.4730996593564962  0.7262035130114655  1.0000
  H   H488      1.0  0.24183320470274008  0.4533086195278619  0.702797138736573  1.0000
  N   N23       1.0  0.22507986345302267  0.8503004826052861  0.6734827349411062  1.0000
  C   C425      1.0  0.19516671333167307  0.8448396151799219  0.6819795080236976  1.0000
  C   C426      1.0  0.22826003726068278  0.8585738367317567  0.651092544458137  1.0000
  C   C427      1.0  0.22691087115263023  0.8222101346191725  0.6768544316330792  1.0000
  C   C428      1.0  0.24974082080065269  0.8755386393533711  0.6839927080467282  1.0000
  H   H489      1.0  0.176176536407944  0.8263578968427595  0.6740595764521627  1.0000
  H   H490      1.0  0.19300632052267155  0.8656076481940735  0.6799484645644317  1.0000
  H   H491      1.0  0.19158010610106035  0.8379783558871261  0.6987753675427986  1.0000
  H   H492      1.0  0.22624457881557036  0.8792847717096735  0.6479652727573865  1.0000
  H   H493      1.0  0.25072062498375697  0.863264146905004  0.6441227765398994  1.0000
  H   H494      1.0  0.21004716453455957  0.839811305895561  0.6427442929643503  1.0000
  H   H495      1.0  0.2495758722138268  0.8257015998736438  0.6713036137377189  1.0000
  H   H496      1.0  0.20920818933398574  0.8030928396723778  0.6684483962113891  1.0000
  H   H497      1.0  0.22306717697369313  0.8143483280561119  0.693517290173734  1.0000
  H   H498      1.0  0.24866978045006685  0.8969354797563592  0.681777685409992  1.0000
  H   H499      1.0  0.2727296775302838  0.8804770178319137  0.6779196134258755  1.0000
  H   H500      1.0  0.24788456862120645  0.8699207305568338  0.7009213861561009  1.0000
  N   N24       1.0  0.9516040900597921  0.19737723845167526  0.5528766317221049  1.0000
  C   C429      1.0  0.9361603353582312  0.1664563851862799  0.5633213984214916  1.0000
  C   C430      1.0  0.9313153867134187  0.19953579535457752  0.5378258436907759  1.0000
  C   C431      1.0  0.98042919939444  0.20330309573185254  0.5419608842567097  1.0000
  C   C432      1.0  0.9584448253312023  0.2201754453282208  0.5684740082229784  1.0000
  H   H501      1.0  0.9508404184250758  0.16399088501156342  0.574753977090366  1.0000
  H   H502      1.0  0.9300728549231473  0.14848906288315572  0.5520683077940642  1.0000
  H   H503      1.0  0.9146299858894812  0.16151985947682312  0.5720588187274523  1.0000
  H   H504      1.0  0.9245797360655494  0.18181013631928153  0.5262645062457105  1.0000
  H   H505      1.0  0.9097802421159802  0.19624348990078894  0.545609405700969  1.0000
  H   H506      1.0  0.9425927068018248  0.2222006762876383  0.529140480716225  1.0000
  H   H507      1.0  0.9963244788648836  0.20180900876907193  0.552791244585903  1.0000
  H   H508      1.0  0.9928599518181633  0.2265119168287136  0.5339596163894661  1.0000
  H   H509      1.0  0.9760812141316964  0.18659619717973489  0.5299971020356659  1.0000
  H   H510      1.0  0.9371791731304113  0.21594830021700986  0.5772606708925998  1.0000
  H   H511      1.0  0.9698215870389115  0.24380501476847238  0.5612264227289187  1.0000
  H   H512      1.0  0.9737176995102571  0.21919501319689877  0.5800656087592314  1.0000
  N   N25       1.0  0.8029609309926216  0.5454813405405372  0.2577459286775315  1.0000
  C   C433      1.0  0.7918193985278457  0.5621676627721108  0.27033287172756504  1.0000
  C   C434      1.0  0.7797274190697973  0.5269632998192474  0.24320167375833227  1.0000
  C   C435      1.0  0.8086964192966017  0.5251862987760173  0.27147686898519385  1.0000
  C   C436      1.0  0.8317211770310939  0.5675705327394159  0.24599098440352887  1.0000
  H   H513      1.0  0.770248627755688  0.5462720807456449  0.2795402371817097  1.0000
  H   H514      1.0  0.7871890529746965  0.5777508984685032  0.2605590632761444  1.0000
  H   H515      1.0  0.8086352531381498  0.5760496479974523  0.28167633100283024  1.0000
  H   H516      1.0  0.7872288111661554  0.5136586959253828  0.23373691343231173  1.0000
  H   H517      1.0  0.7577224684246615  0.5099452213834733  0.25149567705868725  1.0000
  H   H518      1.0  0.7748051818229802  0.5414124610954861  0.23248113059797404  1.0000
  H   H519      1.0  0.787350350867021  0.5080842751572238  0.28028276993487544  1.0000
  H   H520      1.0  0.8256866430946499  0.5381486529205287  0.28294983350994135  1.0000
  H   H521      1.0  0.817095686746414  0.5121161072071893  0.26258488869448193  1.0000
  H   H522      1.0  0.8497601462730375  0.5818424213136577  0.25651119663516714  1.0000
  H   H523      1.0  0.8282269350779764  0.583264177819078  0.23544314714056153  1.0000
  H   H524      1.0  0.8407444006410016  0.5556787700015322  0.2363725230170502  1.0000
  N   N26       1.0  0.3787096685107349  0.5946051890946131  0.834560017040488  1.0000
  C   C437      1.0  0.4015762400848782  0.5851971202470745  0.829968600605942  1.0000
  C   C438      1.0  0.37602887605331375  0.5972208424698036  0.8570611177085098  1.0000
  C   C439      1.0  0.34872210959157496  0.5715395606488869  0.8275741577507854  1.0000
  C   C440      1.0  0.38854141334556913  0.6244329230832827  0.8235764753711791  1.0000
  H   H525      1.0  0.40392659279248616  0.5827267290959897  0.8131262785555977  1.0000
  H   H526      1.0  0.39507850416631685  0.5628785239962754  0.8381135896582134  1.0000
  H   H527      1.0  0.42461912029613436  0.6023791215352391  0.8347100228670109  1.0000
  H   H528      1.0  0.35906749214262346  0.6044350341657113  0.8611221905601694  1.0000
  H   H529      1.0  0.36847770066262997  0.5750664583276374  0.8658307771480549  1.0000
  H   H530      1.0  0.39826846952038664  0.6143743843784593  0.8629109511193042  1.0000
  H   H531      1.0  0.33061018504737044  0.5773096608665735  0.8313329865716949  1.0000
  H   H532      1.0  0.34102422708941676  0.5484665167773085  0.835007072304241  1.0000
  H   H533      1.0  0.3495685954593564  0.5695692947173775  0.8106005299741409  1.0000
  H   H534      1.0  0.37191811476052156  0.6323436776892504  0.8266865757240625  1.0000
  H   H535      1.0  0.390777983536946  0.6231846430648639  0.806567853635752  1.0000
  H   H536      1.0  0.4112364919530868  0.6423691539571675  0.8283361410785917  1.0000
  N   N27       1.0  0.1838502007074279  0.5400491208298166  0.1904342330718331  1.0000
  C   C441      1.0  0.1977092094077005  0.56192461264835  0.2066410542794691  1.0000
  C   C442      1.0  0.20278500227567275  0.52601156657131  0.18572072929162714  1.0000
  C   C443      1.0  0.18218681272578127  0.5563264476051637  0.17158888661052427  1.0000
  C   C444      1.0  0.1527148533011483  0.5159539654389284  0.19784636983823792  1.0000
  H   H537      1.0  0.18547482968170828  0.5747648971200133  0.20941370063714543  1.0000
  H   H538      1.0  0.22201309578262676  0.5791979580566624  0.2021896057404545  1.0000
  H   H539      1.0  0.19718505063055283  0.5501424163489907  0.22156041599570267  1.0000
  H   H540      1.0  0.1933804544702531  0.509744221819657  0.17331111908668226  1.0000
  H   H541      1.0  0.2266413641982153  0.5435933652494949  0.18039952713320961  1.0000
  H   H542      1.0  0.20422500113653277  0.513232662394855  0.19956672575992662  1.0000
  H   H543      1.0  0.16833424290866825  0.5674883498990168  0.17459813285774547  1.0000
  H   H544      1.0  0.17213164100663816  0.5407269966118154  0.15889162052125994  1.0000
  H   H545      1.0  0.20529242468612977  0.5748673707288501  0.16580453856566232  1.0000
  H   H546      1.0  0.14149932032682103  0.4991069993600285  0.18596529501255593  1.0000
  H   H547      1.0  0.1379445207449395  0.5258366386674124  0.20174274108169613  1.0000
  H   H548      1.0  0.15329135441024933  0.5031564357357717  0.21202000560886933  1.0000
  N   N28       1.0  0.8577283236907592  0.7870263767157721  0.42880786327040576  1.0000
  C   C445      1.0  0.8871357247511322  0.7887451308724238  0.4329706093891589  1.0000
  C   C446      1.0  0.8631018816817221  0.812005674598526  0.41370694162453236  1.0000
  C   C447      1.0  0.8433144029148945  0.7896735218780127  0.448250223054968  1.0000
  C   C448      1.0  0.8371761723638181  0.7574006904008003  0.4203015106492641  1.0000
  H   H549      1.0  0.8836884805872186  0.7696394570474835  0.44390812487654413  1.0000
  H   H550      1.0  0.9031994600181229  0.8105410229571431  0.43973797703761985  1.0000
  H   H551      1.0  0.8986619576817549  0.786852661266582  0.41860345024910484  1.0000
  H   H552      1.0  0.8735190025739289  0.8102712348408991  0.3987792004290093  1.0000
  H   H553      1.0  0.8412632609401768  0.8113220999664411  0.4104041969286336  1.0000
  H   H554      1.0  0.878778836365596  0.8347570137442696  0.419521269947691  1.0000
  H   H555      1.0  0.83953471238298  0.7714206358941442  0.4600944314477039  1.0000
  H   H556      1.0  0.8204004796385965  0.7870569293881724  0.44580936335413396  1.0000
  H   H557      1.0  0.8576660869911046  0.8120683050544014  0.45491636237124217  1.0000
  H   H558      1.0  0.8315561563393814  0.7383744521180551  0.4318333207904221  1.0000
  H   H559      1.0  0.8478308982845926  0.7535617461234575  0.4062667153246903  1.0000
  H   H560      1.0  0.8150655589331652  0.7554967705696836  0.41627907670538644  1.0000
  N   N29       1.0  0.04021934022007314  0.7403387108950714  0.5120965289164978  1.0000
  C   C449      1.0  0.0475643099597136  0.7413360270028181  0.5340183589218332  1.0000
  C   C450      1.0  0.033355622565769  0.7648781432670418  0.5068666034201195  1.0000
  C   C451      1.0  0.013327118329588047  0.7104358439403228  0.5085193859005842  1.0000
  C   C452      1.0  0.0667161860059584  0.7447828919863895  0.4988921855642801  1.0000
  H   H561      1.0  0.05261303274561288  0.7229746881948869  0.5385749495882602  1.0000
  H   H562      1.0  0.02838237479743361  0.7386889633350169  0.5444988746921525  1.0000
  H   H563      1.0  0.06812955319202141  0.7634852889841527  0.5370456607264424  1.0000
  H   H564      1.0  0.013317247363466147  0.7621055821161198  0.5163962993753353  1.0000
  H   H565      1.0  0.05309969377471479  0.7877733516256964  0.5094564207388435  1.0000
  H   H566      1.0  0.028044819905884526  0.7649870761481884  0.49034645371578645  1.0000
  H   H567      1.0  0.007226287593978265  0.7092547999872469  0.49207740029695785  1.0000
  H   H568      1.0  0.99285865977347  0.7061771100493118  0.5182559645873762  1.0000
  H   H569      1.0  0.017798865344662008  0.6913789914136995  0.5120045454549368  1.0000
  H   H570      1.0  0.07330771293966772  0.7273576740646414  0.5028205075280414  1.0000
  H   H571      1.0  0.087051435783508  0.7675425452846913  0.5005946787787391  1.0000
  H   H572      1.0  0.061799842473879416  0.7433483665154337  0.4822826795254933  1.0000
  N   N30       1.0  0.7085696328412895  0.08026247242248341  0.4310319004175752  1.0000
  C   C453      1.0  0.6814409096885697  0.04961787323511624  0.4298941154008896  1.0000
  C   C454      1.0  0.7345825961101409  0.08185880985661154  0.4188204091482366  1.0000
  C   C455      1.0  0.7163895113787379  0.08570991938236272  0.4527904955301513  1.0000
  C   C456      1.0  0.7021452300381612  0.10391536549073033  0.4226412566117045  1.0000
  H   H573      1.0  0.6859054781403691  0.031482934860798784  0.43622420737879747  1.0000
  H   H574      1.0  0.6751209618334889  0.04461742541020364  0.41365706695571736  1.0000
  H   H575      1.0  0.6612754184874258  0.047487767019000815  0.4389281916495784  1.0000
  H   H576      1.0  0.7301638000081618  0.07919344575750675  0.4021435504631275  1.0000
  H   H577      1.0  0.7556964240961969  0.1041170912581928  0.4202199673385149  1.0000
  H   H578      1.0  0.7394662806581394  0.06368362760603263  0.4242173948954424  1.0000
  H   H579      1.0  0.6970366556142209  0.08391410969740543  0.46263663344108424  1.0000
  H   H580      1.0  0.7363803767816698  0.10897880588928932  0.45421913837711  1.0000
  H   H581      1.0  0.7223936381874507  0.0688506581651982  0.45941083399116633  1.0000
  H   H582      1.0  0.7223807249379166  0.12725874748824006  0.4233890095775687  1.0000
  H   H583      1.0  0.6826435953440341  0.10348264428420095  0.4314666286181767  1.0000
  H   H584      1.0  0.69654268267178  0.1008349635336927  0.40614801184127897  1.0000
  N   N31       1.0  0.6603212483345001  0.7415151834236545  0.6786805601312964  1.0000
  C   C457      1.0  0.6807413746173138  0.7306562219740058  0.6862197907820792  1.0000
  C   C458      1.0  0.6620147626820567  0.7655113524503754  0.6918198192541611  1.0000
  C   C459      1.0  0.6284536819284589  0.7158074857976314  0.6795644729754654  1.0000
  C   C460      1.0  0.6700312724228414  0.7541422260125675  0.6571009614238482  1.0000
  H   H585      1.0  0.6806432258714313  0.7130131107230134  0.6764075718042104  1.0000
  H   H586      1.0  0.6738779375326641  0.7205909382854202  0.7023675403065266  1.0000
  H   H587      1.0  0.7048605731692774  0.7496744960633716  0.6860336608985775  1.0000
  H   H588      1.0  0.6858015796855476  0.785164134386312  0.69175855224813  1.0000
  H   H589      1.0  0.6472633334027923  0.7745648668009713  0.6863295291186011  1.0000
  H   H590      1.0  0.6542334202289134  0.7566618590786746  0.7081413412564536  1.0000
  H   H591      1.0  0.6125251882618706  0.7234147440871844  0.6740166222049925  1.0000
  H   H592      1.0  0.6202432428563421  0.7057668362588986  0.6956271436964812  1.0000
  H   H593      1.0  0.6262339624890959  0.6973323427641805  0.6697336872208561  1.0000
  H   H594      1.0  0.654516917590885  0.7616476753118986  0.6507237494629795  1.0000
  H   H595      1.0  0.6700726111916008  0.7370308894433046  0.6468338601397554  1.0000
  H   H596      1.0  0.6935438268057346  0.7742901685960285  0.6558905671031037  1.0000
  N   N32       1.0  0.15998345411440884  0.8922398334414169  0.37345545841458516  1.0000
  C   C461      1.0  0.17634957329744863  0.9157988039840725  0.35643624578867045  1.0000
  C   C462      1.0  0.13741305056457334  0.8981483368878295  0.3843143977196774  1.0000
  C   C463      1.0  0.18220517919174253  0.8933227317460644  0.38810820306110283  1.0000
  C   C464      1.0  0.1440139756067154  0.8617036102117129  0.3650155654090135  1.0000
  H   H597      1.0  0.19362748159803964  0.9120490415420204  0.34796361373617957  1.0000
  H   H598      1.0  0.18861604306264623  0.9391015851191512  0.3623532731168268  1.0000
  H   H599      1.0  0.16026009165577593  0.915653317756542  0.3450824237232777  1.0000
  H   H600      1.0  0.12481350744462262  0.8809372506426448  0.39737294899288245  1.0000
  H   H601      1.0  0.1486161137052916  0.9209763520846224  0.3909441428094098  1.0000
  H   H602      1.0  0.12006875793997385  0.8973078814381396  0.37384644775683606  1.0000
  H   H603      1.0  0.17049049609681646  0.8761691943106925  0.4012935384317889  1.0000
  H   H604      1.0  0.19510243823039755  0.9161645525937474  0.3945608583086258  1.0000
  H   H605      1.0  0.1990529671481047  0.888012747564384  0.3806528309391658  1.0000
  H   H606      1.0  0.1271500201588269  0.8599738046251922  0.3537906761722688  1.0000
  H   H607      1.0  0.1313618780792867  0.8434434054227326  0.37749054020676637  1.0000
  H   H608      1.0  0.16040696946298144  0.8561566480460796  0.3571055069505843  1.0000
  N   N33       1.0  0.6999813946202489  0.14398369048756443  0.2700113631696813  1.0000
  C   C465      1.0  0.7169763997162176  0.14706322909907632  0.2887123261874734  1.0000
  C   C466      1.0  0.7150108096949986  0.17336697286338598  0.2575430543829977  1.0000
  C   C467      1.0  0.6681384936825326  0.13554015244852824  0.2761760758622789  1.0000
  C   C468      1.0  0.6997843738052252  0.11998026696682107  0.25761487232653346  1.0000
  H   H609      1.0  0.7063133963775861  0.1254854556713163  0.29866608574699843  1.0000
  H   H610      1.0  0.7174735737053632  0.16500393008337189  0.29837966561773455  1.0000
  H   H611      1.0  0.7412028135056346  0.1536581142354081  0.28480614442325936  1.0000
  H   H612      1.0  0.7387242210818374  0.17999501407573382  0.25201188023731724  1.0000
  H   H613      1.0  0.7019606744343899  0.17252232309181004  0.24384144196579663  1.0000
  H   H614      1.0  0.7165552438567103  0.19217889357411733  0.26666942886083383  1.0000
  H   H615      1.0  0.6549596654925955  0.13456878675911854  0.262526555564607  1.0000
  H   H616      1.0  0.6674415814036037  0.15258246374589945  0.28616680868928346  1.0000
  H   H617      1.0  0.6557319720418617  0.11302598800455077  0.2850314209141845  1.0000
  H   H618      1.0  0.6870962017359746  0.11720294116926167  0.24340463840924398  1.0000
  H   H619      1.0  0.6886077312406876  0.09748436173180575  0.2665468797700601  1.0000
  H   H620      1.0  0.7234497055137441  0.12559522649564303  0.2527037121619432  1.0000
  N   N34       1.0  0.38824293173086327  0.7563774576139571  0.8817881577122021  1.0000
  C   C469      1.0  0.40894807868504707  0.7763760962568698  0.8970228453163556  1.0000
  C   C470      1.0  0.37092846596908685  0.7247141178191057  0.8909001761123275  1.0000
  C   C471      1.0  0.406414058606806  0.7576214389276577  0.8630498018481186  1.0000
  C   C472      1.0  0.3665299360583002  0.7666585703686625  0.8762638082061749  1.0000
  H   H621      1.0  0.42243118745239383  0.8005123547010347  0.8907165397307168  1.0000
  H   H622      1.0  0.4254575731181356  0.7689784936808857  0.9015386165619866  1.0000
  H   H623      1.0  0.395900356791702  0.7758486832288047  0.9113768564506619  1.0000
  H   H624      1.0  0.38634511402635324  0.7158405082130597  0.895195544718455  1.0000
  H   H625      1.0  0.35713606812024423  0.7231724083791191  0.9050926821061233  1.0000
  H   H626      1.0  0.3545492573323881  0.7090167333763845  0.8800283451116169  1.0000
  H   H627      1.0  0.42242426512383635  0.7491281610786333  0.8665102499534422  1.0000
  H   H628      1.0  0.42032783840698834  0.7812715232924118  0.855961110783915  1.0000
  H   H629      1.0  0.3914811090063321  0.7433197552277969  0.8510231964170897  1.0000
  H   H630      1.0  0.3506682896714906  0.7519194405879822  0.8647755430997335  1.0000
  H   H631      1.0  0.3786258808058281  0.7905669923781353  0.8694773791749644  1.0000
  H   H632      1.0  0.3519420862935007  0.7653370108286884  0.8899973093554349  1.0000
  N   N35       1.0  0.1643409523868807  0.1990972491481237  0.6016484989317402  1.0000
  C   C473      1.0  0.1609637838234223  0.17424886414866067  0.6161489760736505  1.0000
  C   C474      1.0  0.18294228360099649  0.20107184446158816  0.5829494978703023  1.0000
  C   C475      1.0  0.17970604529238698  0.22834228598299347  0.6117386701839821  1.0000
  C   C476      1.0  0.13379057422962784  0.19284091643543103  0.5958293019326174  1.0000
  H   H633      1.0  0.1499556348870529  0.15183760427558818  0.609020808242358  1.0000
  H   H634      1.0  0.14663458705609242  0.1719189086799631  0.6303076781874029  1.0000
  H   H635      1.0  0.18357016928829797  0.17864906555351878  0.6212825601810545  1.0000
  H   H636      1.0  0.1861372543400627  0.21986210192665684  0.5718155161939797  1.0000
  H   H637      1.0  0.20608780781064626  0.20558956710492451  0.586868932622525  1.0000
  H   H638      1.0  0.17192804454290136  0.17946524663491414  0.5748185501094296  1.0000
  H   H639      1.0  0.20305940559285796  0.2341289114022866  0.6159941677396626  1.0000
  H   H640      1.0  0.1665395803175711  0.227360491770106  0.6261421649431136  1.0000
  H   H641      1.0  0.18209079667643735  0.24759583253570014  0.6014744251382391  1.0000
  H   H642      1.0  0.13553316383679945  0.21104806482654856  0.584747774053502  1.0000
  H   H643      1.0  0.11946119303065571  0.19189233044289591  0.6095771128442352  1.0000
  H   H644      1.0  0.1212735227953655  0.17072440501021768  0.5884384471088482  1.0000
  N   N36       1.0  0.754978088708689  0.3387880811662311  0.8370699711617492  1.0000
  C   C477      1.0  0.7475182625224568  0.3618824987028597  0.8291499300993472  1.0000
  C   C478      1.0  0.7349777815998055  0.3093075967211987  0.8281065329290676  1.0000
  C   C479      1.0  0.7502340743608651  0.3351821065937721  0.859840203159942  1.0000
  C   C480      1.0  0.7873263967760663  0.34893079063789595  0.8311551716905786  1.0000
  H   H645      1.0  0.7633413897230988  0.3847890243639262  0.8347111635680896  1.0000
  H   H646      1.0  0.7237984686853353  0.35592307200971196  0.8341644975884389  1.0000
  H   H647      1.0  0.7495538982918163  0.3644053319586292  0.8119964876676489  1.0000
  H   H648      1.0  0.7365416811746678  0.31175821290675115  0.8109332098443687  1.0000
  H   H649      1.0  0.7416760974865684  0.29207072074215806  0.8323857383268729  1.0000
  H   H650      1.0  0.7105588230527125  0.29973735078017605  0.8334522186988306  1.0000
  H   H651      1.0  0.7565315120221795  0.3186198456798641  0.8664169765652974  1.0000
  H   H652      1.0  0.725875223869614  0.3266798012968591  0.8649601623165887  1.0000
  H   H653      1.0  0.7643460153986298  0.35722933897411446  0.867037513191995  1.0000
  H   H654      1.0  0.8031133815565539  0.37113828197115495  0.8376200747232705  1.0000
  H   H655      1.0  0.7917439530031967  0.3519862290209718  0.8140923478032931  1.0000
  H   H656      1.0  0.7937348052608534  0.33190516456071145  0.8366550013805716  1.0000
  N   N37       1.0  0.22872288958088635  0.01768136043423385  0.5968004936864988  1.0000
  C   C481      1.0  0.23327463234725007  0.02285872483996587  0.5740842605139879  1.0000
  C   C482      1.0  0.20342914431635797  0.9863148580797451  0.6023504086592121  1.0000
  C   C483      1.0  0.22105693998191925  0.03982400025218524  0.6053962379804608  1.0000
  C   C484      1.0  0.25722406879479087  0.021924455356856942  0.6054060735764628  1.0000
  H   H657      1.0  0.2530689128175388  0.045918150800661195  0.5695162514622926  1.0000
  H   H658      1.0  0.21283792101185423  0.021538968059131802  0.5671433305892403  1.0000
  H   H659      1.0  0.23804191214078688  0.005855488709230583  0.5670334964220806  1.0000
  H   H660      1.0  0.19902968868306883  0.9820474362950369  0.619375128649109  1.0000
  H   H661      1.0  0.1816502106809348  0.9822546528323175  0.5959323857469583  1.0000
  H   H662      1.0  0.20862916500241313  0.9688065530453265  0.5966990194732463  1.0000
  H   H663      1.0  0.21765563691173315  0.03671659513959624  0.6225084885585117  1.0000
  H   H664      1.0  0.19971193521008032  0.03751951373198703  0.59935204968651  1.0000
  H   H665      1.0  0.23971993900463232  0.06365271048760968  0.6016027761685714  1.0000
  H   H666      1.0  0.276705424594615  0.045514567443937226  0.6015723955241161  1.0000
  H   H667      1.0  0.2638042717595623  0.005611483678523266  0.5993344977959734  1.0000
  H   H668      1.0  0.25470149094862016  0.018431337274142257  0.6225264890124922  1.0000
  N   N38       1.0  0.34270521329308373  0.22442027237464363  0.6841260643267064  1.0000
  C   C485      1.0  0.3319132056399764  0.24647630196914708  0.686665345052654  1.0000
  C   C486      1.0  0.35186013820198725  0.2250258304592052  0.6621554144165122  1.0000
  C   C487      1.0  0.31767347801944423  0.1934525621384467  0.6908417892279325  1.0000
  C   C488      1.0  0.36920788051823983  0.23253004578953554  0.6967808019223883  1.0000
  H   H669      1.0  0.3501422832503717  0.2701443854386737  0.6817191303413772  1.0000
  H   H670      1.0  0.3245182044926797  0.24633328830493761  0.7030437958052382  1.0000
  H   H671      1.0  0.311901063128615  0.24081716777709156  0.6772102905554002  1.0000
  H   H672      1.0  0.3597630159807622  0.20829839009336767  0.6596688754978387  1.0000
  H   H673      1.0  0.3323551872371434  0.21904450572084688  0.6521744339466043  1.0000
  H   H674      1.0  0.37080619471371834  0.24798375394027117  0.6565014715765753  1.0000
  H   H675      1.0  0.3242040925078088  0.17595042317367998  0.6877027342563162  1.0000
  H   H676      1.0  0.29669055048382653  0.18740235882445738  0.6825034412485426  1.0000
  H   H677      1.0  0.31138701507240346  0.19138836716937913  0.7076574137320097  1.0000
  H   H678      1.0  0.37817619475205555  0.2166143144954306  0.6947828857628545  1.0000
  H   H679      1.0  0.36297471574976103  0.23137743445501854  0.7135494592879883  1.0000
  H   H680      1.0  0.38836838157134634  0.2559986472870267  0.6924255167230977  1.0000
  N   N39       1.0  0.5279374623320217  0.7202162043936133  0.2520655698920236  1.0000
  C   C489      1.0  0.5443620681379744  0.7475568462886144  0.26409117487837475  1.0000
  C   C490      1.0  0.5070634036410543  0.724080175907663  0.23844631782468356  1.0000
  C   C491      1.0  0.5099968010317972  0.6930472617070653  0.2663865264489595  1.0000
  C   C492      1.0  0.5502728041157573  0.7160437770695172  0.2393606323512318  1.0000
  H   H681      1.0  0.560049892009457  0.7452652438222137  0.2747224988493116  1.0000
  H   H682      1.0  0.5282511862230559  0.751300708525567  0.2740018152333171  1.0000
  H   H683      1.0  0.5581188796109741  0.7686087476793486  0.2538623969237954  1.0000
  H   H684      1.0  0.49383103661322836  0.7035601618015991  0.2294666174725645  1.0000
  H   H685      1.0  0.48990111224580085  0.7273045670719382  0.24749413769416453  1.0000
  H   H686      1.0  0.5196944913710201  0.744216512531996  0.22727415266553427  1.0000
  H   H687      1.0  0.5247874249537025  0.6895226417530843  0.27715591855655836  1.0000
  H   H688      1.0  0.4971376783432507  0.6719109802072102  0.2579304499238454  1.0000
  H   H689      1.0  0.4927841459391  0.6954316354943775  0.2759723210805254  1.0000
  H   H690      1.0  0.5385489509212364  0.695571530162606  0.23011838034154714  1.0000
  H   H691      1.0  0.5662906140402243  0.7129236098668431  0.24916033604028506  1.0000
  H   H692      1.0  0.5642279195089727  0.7361514940532711  0.22835673350960206  1.0000
  N   N40       1.0  0.3417156773886242  0.7194623136486107  0.24381477703454402  1.0000
  C   C493      1.0  0.3339969334814846  0.7093875704528637  0.22266129214972658  1.0000
  C   C494      1.0  0.316055384931315  0.7212022186176293  0.253964236493775  1.0000
  C   C495      1.0  0.3696295037509263  0.7499071817977079  0.24283805022272406  1.0000
  C   C496      1.0  0.3471571541741837  0.6974170957458711  0.2558086003884371  1.0000
  H   H693      1.0  0.3301200387784895  0.725705143909131  0.21309380275145565  1.0000
  H   H694      1.0  0.31287165564276354  0.686610325716098  0.22269493799950918  1.0000
  H   H695      1.0  0.35269940211274636  0.707621307980225  0.21453703643164956  1.0000
  H   H696      1.0  0.32019045649824784  0.7272252511057281  0.27025928766088086  1.0000
  H   H697      1.0  0.31241215724089605  0.738835131995999  0.24592413847889583  1.0000
  H   H698      1.0  0.2941888332866248  0.6990830333174451  0.2540086059295389  1.0000
  H   H699      1.0  0.37596327504656213  0.7583259442273472  0.2585401418560549  1.0000
  H   H700      1.0  0.366475861205384  0.7671085844668035  0.23375162472070693  1.0000
  H   H701      1.0  0.3895287322453572  0.7493425808161475  0.2354602605235446  1.0000
  H   H702      1.0  0.3538797378710107  0.7049205644902521  0.2716778398615509  1.0000
  H   H703      1.0  0.3659935241336  0.6951192459709222  0.24830407492522058  1.0000
  H   H704      1.0  0.3263697918255907  0.6743499457641338  0.2571735645957475  1.0000
  N   N41       1.0  0.8959417113251877  0.7445395527827242  0.5703231944382492  1.0000
  C   C497      1.0  0.908072447285841  0.7663568194428027  0.5867522351442567  1.0000
  C   C498      1.0  0.9172755644629474  0.7568113174651053  0.5517844145572545  1.0000
  C   C499      1.0  0.8657010761849051  0.7398559903689733  0.5650675736105563  1.0000
  C   C500      1.0  0.8927231419630608  0.7150433925650473  0.5776696598803607  1.0000
  H   H705      1.0  0.9109910903537066  0.7889676636917259  0.5818160896548802  1.0000
  H   H706      1.0  0.9306158219634606  0.769959691263249  0.5914245964041294  1.0000
  H   H707      1.0  0.8925107625069353  0.7577678671826452  0.6009586273254661  1.0000
  H   H708      1.0  0.9087180866241148  0.7408350825176921  0.5390917214587876  1.0000
  H   H709      1.0  0.9202421434066275  0.7790754469490636  0.5458129781294134  1.0000
  H   H710      1.0  0.9402722621643334  0.7604967975568884  0.5552562972502721  1.0000
  H   H711      1.0  0.8670164566492874  0.7616577707407126  0.5598304639369045  1.0000
  H   H712      1.0  0.8488094846544357  0.7299611419228277  0.578614312511764  1.0000
  H   H713      1.0  0.856087081655454  0.7238297496614661  0.552500693951676  1.0000
  H   H714      1.0  0.8848970280817019  0.6984283518818718  0.565401172574236  1.0000
  H   H715      1.0  0.8758356087992019  0.7045566109633602  0.5911682955562012  1.0000
  H   H716      1.0  0.9147659281546521  0.7178786826898927  0.582788853133625  1.0000
  N   N42       1.0  0.30055485570695645  0.6344733431610213  0.7528451036916535  1.0000
  C   C501      1.0  0.27541699084124105  0.6249933342254521  0.768817258554566  1.0000
  C   C502      1.0  0.31286606532943884  0.6669174307867071  0.7462110146172977  1.0000
  C   C503      1.0  0.28888832748657695  0.61571915403996  0.7348354362957757  1.0000
  C   C504      1.0  0.3251219008465933  0.6304226035507035  0.7613987314433615  1.0000
  H   H717      1.0  0.25719481775496195  0.6289938629505435  0.7630097067268712  1.0000
  H   H718      1.0  0.2836453742802006  0.6382556285566945  0.7827825264724728  1.0000
  H   H719      1.0  0.26457647370870174  0.6002301021018005  0.7734962249927994  1.0000
  H   H720      1.0  0.3314227373875944  0.6744844522520426  0.7338299491136958  1.0000
  H   H721      1.0  0.29483116289660977  0.670986880727567  0.7399361482793713  1.0000
  H   H722      1.0  0.3225140364254973  0.6820560131563563  0.7592201389723058  1.0000
  H   H723      1.0  0.2776178345906088  0.5908501808711384  0.7393571212609308  1.0000
  H   H724      1.0  0.30764615812692747  0.6210414863396074  0.7230214180554598  1.0000
  H   H725      1.0  0.271866912952847  0.619984137673764  0.7271827012338075  1.0000
  H   H726      1.0  0.33406620567243633  0.6438153440318805  0.7752418986890808  1.0000
  H   H727      1.0  0.34489307103382344  0.6384358376118341  0.7498992242075174  1.0000
  H   H728      1.0  0.31687304664282495  0.6059643828304778  0.7658656132672426  1.0000
  N   N43       1.0  0.6147801335515424  0.7189515011071016  0.38393826185075997  1.0000
  C   C505      1.0  0.6331242074987534  0.7525928297796933  0.38152240075223554  1.0000
  C   C506      1.0  0.629955999309808  0.7057736936251956  0.37156305339051127  1.0000
  C   C507      1.0  0.5838205253687209  0.7087558656070998  0.37680648925071836  1.0000
  C   C508      1.0  0.6123833914064292  0.7089064092674686  0.4059335578428386  1.0000
  H   H729      1.0  0.6233826460663543  0.7632952697465828  0.3916224178650592  1.0000
  H   H730      1.0  0.6341943794167001  0.761201563356711  0.3653263342046529  1.0000
  H   H731      1.0  0.6570637089031737  0.761100707374779  0.38573972216433094  1.0000
  H   H732      1.0  0.6167631144011406  0.680369445456031  0.37293100617140523  1.0000
  H   H733      1.0  0.6325484823017058  0.7132395863628713  0.35491997641505335  1.0000
  H   H734      1.0  0.6533338639390911  0.7131127956055024  0.37681796585774846  1.0000
  H   H735      1.0  0.5692531840711308  0.6834472970787995  0.3782832382011164  1.0000
  H   H736      1.0  0.5847394416617353  0.7163876969249355  0.3603517806893062  1.0000
  H   H737      1.0  0.5719190958261012  0.718404533499672  0.3859768059544271  1.0000
  H   H738      1.0  0.6005022710064325  0.7179829568482229  0.41566409189984166  1.0000
  H   H739      1.0  0.6354503293130667  0.7170672525756981  0.41197275169040676  1.0000
  H   H740      1.0  0.5993774449903542  0.6835807902309327  0.40830316805240363  1.0000
  N   N44       1.0  0.9219787813800824  0.10201315182051007  0.6734862883333314  1.0000
  C   C509      1.0  0.9143175920496864  0.06990117274565488  0.6771234061398823  1.0000
  C   C510      1.0  0.9553488668433039  0.12253361664092899  0.674363560087327  1.0000
  C   C511      1.0  0.9056714283932745  0.10950118809258003  0.6895197275769889  1.0000
  C   C512      1.0  0.912462856058169  0.10612283042473036  0.6529040418828802  1.0000
  H   H741      1.0  0.8891804029541129  0.05396449591922936  0.6766885241587322  1.0000
  H   H742      1.0  0.9212217090691538  0.06590635180822879  0.6924987080595876  1.0000
  H   H743      1.0  0.9258715491430076  0.06329274739044566  0.6651598495230767  1.0000
  H   H744      1.0  0.9618093305604842  0.14690578902347862  0.67143942790859  1.0000
  H   H745      1.0  0.9633679279503645  0.12035536342842779  0.6897543327843886  1.0000
  H   H746      1.0  0.9684144795589772  0.11749474271936888  0.6625216464259136  1.0000
  H   H747      1.0  0.9111229353441053  0.13367154067758458  0.6873666080824495  1.0000
  H   H748      1.0  0.9119124411562294  0.106226189190189  0.7052942247081196  1.0000
  H   H749      1.0  0.8803705030159503  0.0946981979987731  0.6890708575392122  1.0000
  H   H750      1.0  0.9165284417747475  0.12964494274394278  0.6500458981611281  1.0000
  H   H751      1.0  0.8876456986592021  0.09025403117795383  0.6514008464984892  1.0000
  H   H752      1.0  0.9251461142129648  0.10194808475284178  0.640295765430557  1.0000
  N   N45       1.0  0.06908132966438606  0.13363394046326849  0.4298099738581326  1.0000
  C   C513      1.0  0.08626124029743182  0.1353773209681527  0.4481975914066546  1.0000
  C   C514      1.0  0.06462227636821968  0.10739372640300318  0.41805786115623167  1.0000
  C   C515      1.0  0.08655263330847301  0.1620771616610624  0.416545422612346  1.0000
  C   C516      1.0  0.038951293201409935  0.12976280573273866  0.4363720292053725  1.0000
  H   H753      1.0  0.0910398460729705  0.15560356684699256  0.4570483025889307  1.0000
  H   H754      1.0  0.10878821266094435  0.13750125111679198  0.4438262782262147  1.0000
  H   H755      1.0  0.0734347031782182  0.11474080021219257  0.45891940716879137  1.0000
  H   H756      1.0  0.05180960045715256  0.10554882672565616  0.4040499288466206  1.0000
  H   H757      1.0  0.08697652216084821  0.109682006080007  0.4128603983394834  1.0000
  H   H758      1.0  0.05151620975154976  0.08551570584313636  0.42759795089563707  1.0000
  H   H759      1.0  0.073885810862563  0.16208428130491054  0.4028294891220715  1.0000
  H   H760      1.0  0.10919945225004046  0.1655487040498949  0.41094206966069696  1.0000
  H   H761      1.0  0.09073901638860517  0.18230995609919465  0.4250857362785441  1.0000
  H   H762      1.0  0.02559244151346909  0.12893485491368242  0.42284806993423046  1.0000
  H   H763      1.0  0.04150244500105515  0.1492214330263522  0.4452503288156697  1.0000
  H   H764      1.0  0.024934991866208827  0.10847218970184037  0.4463173634079364  1.0000
  N   N46       1.0  0.6023649454194925  0.3623707428649841  0.8479759562402156  1.0000
  C   C517      1.0  0.6201979892236482  0.35361996313641203  0.8613568004485487  1.0000
  C   C518      1.0  0.6158693398520253  0.39591105189540926  0.8470683337640925  1.0000
  C   C519      1.0  0.5703352671277926  0.34751961716752716  0.8565541018301577  1.0000
  C   C520      1.0  0.6030628321360308  0.3525463491171661  0.8268966897101804  1.0000
  H   H765      1.0  0.6444888211489963  0.36425828648604913  0.8553777769243809  1.0000
  H   H766      1.0  0.6105445346566443  0.3285026343735248  0.8626645640408567  1.0000
  H   H767      1.0  0.6201896101374778  0.36088608290616664  0.8773666083556265  1.0000
  H   H768      1.0  0.6030304664890775  0.40333861829093653  0.837028573677445  1.0000
  H   H769      1.0  0.6159110913436397  0.40426706442093674  0.8627096000780935  1.0000
  H   H770      1.0  0.6399944389764382  0.4077386351030433  0.8405402087860709  1.0000
  H   H771      1.0  0.5560360095995523  0.3532235291886035  0.8467182172077611  1.0000
  H   H772      1.0  0.5689315233246105  0.3545598562753348  0.8724236185312154  1.0000
  H   H773      1.0  0.5595345068851617  0.32216936558579634  0.857560121456445  1.0000
  H   H774      1.0  0.5901289535256176  0.3592772432270873  0.8164864513164916  1.0000
  H   H775      1.0  0.5922960104317833  0.32732637440708545  0.8267694148664054  1.0000
  H   H776      1.0  0.6268884172989034  0.36318939185794225  0.8199662305714439  1.0000
  N   N47       1.0  0.6965045893835461  0.17993655880015247  0.6992526159401359  1.0000
  C   C521      1.0  0.7101252038575583  0.16319617533046626  0.6894370437159069  1.0000
  C   C522      1.0  0.6886113511860295  0.16966179033292605  0.7213330686355955  1.0000
  C   C523      1.0  0.6684990915962236  0.17388509898833138  0.6890096751477182  1.0000
  C   C524      1.0  0.7187429168204699  0.2130710701999703  0.6973136699762998  1.0000
  H   H777      1.0  0.7307807367357159  0.16662370071731725  0.6972559122624264  1.0000
  H   H778      1.0  0.7173728652084086  0.17100965642938215  0.6729104628057058  1.0000
  H   H779      1.0  0.6938121793381239  0.13816661277430575  0.6902493960408901  1.0000
  H   H780      1.0  0.6774725226647328  0.181140817932119  0.7291003560833013  1.0000
  H   H781      1.0  0.6727431584546109  0.14459590494140206  0.7235047622028792  1.0000
  H   H782      1.0  0.7093338894974477  0.17491234229508001  0.7297095239289229  1.0000
  H   H783      1.0  0.6735622012301749  0.18128666976457186  0.6722979800569289  1.0000
  H   H784      1.0  0.6578798598601779  0.18642286937939412  0.6960971281087713  1.0000
  H   H785      1.0  0.6510476996479619  0.14914991320404303  0.6903805095548579  1.0000
  H   H786      1.0  0.7092221920173188  0.22635145839009363  0.7047097320770334  1.0000
  H   H787      1.0  0.7252049831023061  0.2216828083669462  0.6808601745057371  1.0000
  H   H788      1.0  0.740203543965108  0.21849056058495275  0.7048419631199356  1.0000
  N   N48       1.0  0.24343151772030963  0.7544002159348598  0.383577636932786  1.0000
  C   C525      1.0  0.218644869940799  0.723435537769674  0.3796051512777888  1.0000
  C   C526      1.0  0.26708184167849197  0.7521194859250645  0.3950412451510242  1.0000
  C   C527      1.0  0.23068299256279937  0.7698960584531769  0.39593552984599123  1.0000
  C   C528      1.0  0.2573299138911884  0.7720529014807723  0.36368444599704913  1.0000
  H   H789      1.0  0.20694833844949873  0.7097109337453886  0.39423525819842925  1.0000
  H   H790      1.0  0.2277586549972685  0.7107800275580081  0.37098227767618386  1.0000
  H   H791      1.0  0.2009177524828845  0.7242749369049616  0.37027360242427126  1.0000
  H   H792      1.0  0.2860997682552018  0.7750768171824328  0.39837673936136475  1.0000
  H   H793      1.0  0.2573792760510655  0.7385647818243747  0.41001082031549246  1.0000
  H   H794      1.0  0.277337032435421  0.7407399638691593  0.38601876497528753  1.0000
  H   H795      1.0  0.24845682804860997  0.7937370317527013  0.39865505822391084  1.0000
  H   H796      1.0  0.2207364737152687  0.757611841768346  0.4112744667830043  1.0000
  H   H797      1.0  0.21201959900374262  0.7709945828638592  0.38806119129433286  1.0000
  H   H798      1.0  0.24014872599884643  0.7740809571413741  0.35452956255615997  1.0000
  H   H799      1.0  0.26720073073747447  0.7609204224353535  0.35403112490124555  1.0000
  H   H800      1.0  0.2761439708385799  0.7955748468263019  0.36602459526459125  1.0000
  N   N49       1.0  0.1465789594362129  0.34592230402539514  0.5091891762935871  1.0000
  C   C529      1.0  0.11401568875958858  0.32751400748258297  0.5046193110163975  1.0000
  C   C530      1.0  0.1658194416084034  0.3565203302886266  0.4896355560683606  1.0000
  C   C531      1.0  0.15529493147028928  0.32710643743153406  0.5220731478423604  1.0000
  C   C532      1.0  0.1511463261407267  0.37256880934677084  0.5204933801941984  1.0000
  H   H801      1.0  0.09880489158601102  0.31841751592452777  0.5190102341986028  1.0000
  H   H802      1.0  0.10975235463398589  0.3074618084756909  0.49583885965287605  1.0000
  H   H803      1.0  0.10646225578598861  0.3409839225030477  0.495105999377787  1.0000
  H   H804      1.0  0.15926072300360886  0.36994198470919415  0.4791607342949881  1.0000
  H   H805      1.0  0.19051017703488013  0.3709836984627859  0.49238834118193914  1.0000
  H   H806      1.0  0.16345037301882617  0.3370082091539081  0.4809009598356035  1.0000
  H   H807      1.0  0.1796623740868465  0.34023618841632447  0.5259614265382555  1.0000
  H   H808      1.0  0.15228603817586173  0.30685214961284374  0.5140044660499314  1.0000
  H   H809      1.0  0.14100879323293256  0.3184266017301352  0.5368778462329612  1.0000
  H   H810      1.0  0.1754507785314075  0.38689853540795865  0.5243033119647192  1.0000
  H   H811      1.0  0.1368559898369934  0.36525922911646763  0.5353031390170391  1.0000
  H   H812      1.0  0.14486349203294274  0.38732434671393207  0.5112044680547702  1.0000
  N   N50       1.0  0.5603594711255017  0.26491931433775234  0.10753944018929472  1.0000
  C   C533      1.0  0.5818499908386615  0.2562555180555012  0.11614712952304679  1.0000
  C   C534      1.0  0.528689580874385  0.2414287403760323  0.11438851451872277  1.0000
  C   C535      1.0  0.5641031833488411  0.26738090346840865  0.08473185782579704  1.0000
  C   C536      1.0  0.5669313378326473  0.29470302216477756  0.11502202063293371  1.0000
  H   H813      1.0  0.6059968025158379  0.2735060452256742  0.11137022495600082  1.0000
  H   H814      1.0  0.5776789450736417  0.23390816245387416  0.11086710473464766  1.0000
  H   H815      1.0  0.5796520439152574  0.25430214457643757  0.13335170258499518  1.0000
  H   H816      1.0  0.5117755091453481  0.24735403946168324  0.10845463914064946  1.0000
  H   H817      1.0  0.5229096873885718  0.21866863545794743  0.10893687523972462  1.0000
  H   H818      1.0  0.5254853471079626  0.2389685875381144  0.13160389649442353  1.0000
  H   H819      1.0  0.5477848310785646  0.27323573440409155  0.07766073167284998  1.0000
  H   H820      1.0  0.5604124662561857  0.24567839906598682  0.07849251906175926  1.0000
  H   H821      1.0  0.5876048052413199  0.28561528670555164  0.07921955107589929  1.0000
  H   H822      1.0  0.5909261048791964  0.31285315788477835  0.11044004086240268  1.0000
  H   H823      1.0  0.56391845303566  0.29352495969890247  0.13218939233459748  1.0000
  H   H824      1.0  0.5515047530062014  0.30227212596142866  0.10859271683658758  1.0000
  N   N51       1.0  0.29840931262504844  0.21928738928110295  0.40621751201655576  1.0000
  C   C537      1.0  0.27149391267069395  0.21762689236163138  0.4173215530237763  1.0000
  C   C538      1.0  0.32298813530439174  0.22704985979428086  0.42060323365778207  1.0000
  C   C539      1.0  0.30953107668585256  0.24289132419038592  0.38899209372797094  1.0000
  C   C540      1.0  0.2896155393811944  0.18940479402870705  0.3979229062302111  1.0000
  H   H825      1.0  0.25237941845705697  0.2115039163476391  0.40695977816142254  1.0000
  H   H826      1.0  0.27716545933761  0.23969847291915455  0.4239102265097468  1.0000
  H   H827      1.0  0.2623336517904871  0.19977356892264447  0.43029269219654226  1.0000
  H   H828      1.0  0.3433133368408493  0.22757454116956105  0.4128586955103832  1.0000
  H   H829      1.0  0.3306758573884926  0.24967865279330803  0.42698718162519667  1.0000
  H   H830      1.0  0.3152323990567279  0.20977647905854258  0.43389175406919417  1.0000
  H   H831      1.0  0.32987728228264257  0.2446752473441955  0.38035668151448887  1.0000
  H   H832      1.0  0.3162894025234946  0.2657762086890723  0.3946615868621667  1.0000
  H   H833      1.0  0.29156283036988206  0.23749353890149266  0.37778055565921  1.0000
  H   H834      1.0  0.30910905946417977  0.18988043018078934  0.38901543287736373  1.0000
  H   H835      1.0  0.270182583936809  0.18196450236344514  0.3876893338955417  1.0000
  H   H836      1.0  0.28224914515637006  0.17151060607661708  0.4106267691737023  1.0000
  N   N52       1.0  0.2048656776511915  0.9985555359877839  0.4943451318847404  1.0000
  C   C541      1.0  0.235315241852998  0.021974955296563528  0.5004835695737554  1.0000
  C   C542      1.0  0.20781129459613043  0.9752725036156379  0.4829659866559527  1.0000
  C   C543      1.0  0.19232180541151936  0.01322970589315781  0.4808786605224507  1.0000
  C   C544      1.0  0.18399330526515142  0.983920210483353  0.5129243243955652  1.0000
  H   H837      1.0  0.23399240070629604  0.040210109835470305  0.5087918712257313  1.0000
  H   H838      1.0  0.25151924961416783  0.03342227757104379  0.48673269272853315  1.0000
  H   H839      1.0  0.2455926466283078  0.011893490182317373  0.5107257154265978  1.0000
  H   H840      1.0  0.21638493037531883  0.9630080548122606  0.4927756480769057  1.0000
  H   H841      1.0  0.1854425280504311  0.9579122121198302  0.47733683280094574  1.0000
  H   H842      1.0  0.22409451647116826  0.9858744130328249  0.46914575263379354  1.0000
  H   H843      1.0  0.16927013908068986  0.9964131121808155  0.47595621376960984  1.0000
  H   H844      1.0  0.2074297700188765  0.024180463380778068  0.46664696678258594  1.0000
  H   H845      1.0  0.19018440622033053  0.03131520463471548  0.48878953287035354  1.0000
  H   H846      1.0  0.1608271902825405  0.9661623691539044  0.5087147582837098  1.0000
  H   H847      1.0  0.1811822059972274  0.001009711595891888  0.5216650757654203  1.0000
  H   H848      1.0  0.19270149106513668  0.9725868048571827  0.5234965334232214  1.0000
  N   N53       1.0  0.7113088996740493  0.2747981641579006  0.9853608507873435  1.0000
  C   C545      1.0  0.717961753559282  0.27877710148217877  0.9627451089257518  1.0000
  C   C546      1.0  0.7133805753600839  0.3029058990938517  0.9930091938006694  1.0000
  C   C547      1.0  0.73373035208139  0.2688176864817442  0.9954562269052099  1.0000
  C   C548      1.0  0.6801189306850163  0.24868009300305327  0.9902176310505386  1.0000
  H   H849      1.0  0.7012644957843357  0.283115590872097  0.9547290542652699  1.0000
  H   H850      1.0  0.7165296704439467  0.2580579159961351  0.9562804299083717  1.0000
  H   H851      1.0  0.7411300698210836  0.2984638511234878  0.9583080439660685  1.0000
  H   H852      1.0  0.6974824055599733  0.30864888687679437  0.9852226934896234  1.0000
  H   H853      1.0  0.7070362545198919  0.3003082956277103  0.00987677884666658  1.0000
  H   H854      1.0  0.7368020849968606  0.3229509946110442  0.9901637775899006  1.0000
  H   H855      1.0  0.7292340477670736  0.2657371814850532  0.012545468468319141  1.0000
  H   H856      1.0  0.7575168463610857  0.2880741926080771  0.9920738910756068  1.0000
  H   H857      1.0  0.7328030388870831  0.24776997225190528  0.9900303651084551  1.0000
  H   H858      1.0  0.6779597888568101  0.2268902581492568  0.9853238766482124  1.0000
  H   H859      1.0  0.6627689526484322  0.25190962442843073  0.9821607666746822  1.0000
  H   H860      1.0  0.6735127202253046  0.24593929000847026  0.007041791648818856  1.0000
  N   N54       1.0  0.5621987503125133  0.18038866178499297  0.8346127932016361  1.0000
  C   C549      1.0  0.5776909245046472  0.1629436394643016  0.8396946264880475  1.0000
  C   C550      1.0  0.5532998544611527  0.18951111998366177  0.8538652282452446  1.0000
  C   C551      1.0  0.5345329571721077  0.16110297392293713  0.8235117988532183  1.0000
  C   C552      1.0  0.5831631987590011  0.2079301942762002  0.82130763879597  1.0000
  H   H861      1.0  0.5977896857555335  0.17619840992008215  0.8490024064443751  1.0000
  H   H862      1.0  0.586430150522242  0.1573124002635765  0.8254960468495413  1.0000
  H   H863      1.0  0.5620898809211669  0.14121489149099967  0.8488124017623364  1.0000
  H   H864      1.0  0.5383250668057248  0.16940786857480067  0.8646115805995237  1.0000
  H   H865      1.0  0.5736242805646298  0.20505219872508496  0.862344615311526  1.0000
  H   H866      1.0  0.5405072514510344  0.20166681576708254  0.8506358189795997  1.0000
  H   H867      1.0  0.5176027811234912  0.14067613049185257  0.8333056788342832  1.0000
  H   H868      1.0  0.5402982543048581  0.15287087305513908  0.8093132411274534  1.0000
  H   H869      1.0  0.5229803493814537  0.17396057555343683  0.81859879313307  1.0000
  H   H870      1.0  0.5897077426639922  0.20173025726248578  0.8064395751744822  1.0000
  H   H871      1.0  0.6047471808845399  0.22256545393323326  0.8289101258477012  1.0000
  H   H872      1.0  0.5724133771847181  0.2219868982938093  0.8176066945025922  1.0000
  N   N55       1.0  0.29058593193344356  0.6245088779690604  0.33219940729624386  1.0000
  C   C553      1.0  0.3192871026087816  0.6427048669900635  0.3192749898443847  1.0000
  C   C554      1.0  0.2770231926752964  0.591975102973635  0.327904376789524  1.0000
  C   C555      1.0  0.2688002660124548  0.6349578824618249  0.32737011924594933  1.0000
  C   C556      1.0  0.2972118918548772  0.6283501180997398  0.35423999224291064  1.0000
  H   H873      1.0  0.3305105403153227  0.6673341914871597  0.3224165832925151  1.0000
  H   H874      1.0  0.31517739734303113  0.6406681876877989  0.3025482313363056  1.0000
  H   H875      1.0  0.3360268958051019  0.6350537079180889  0.3224671281270441  1.0000
  H   H876      1.0  0.255954847982516  0.577448753198831  0.3379263901612342  1.0000
  H   H877      1.0  0.27070379915503207  0.5880191001158417  0.31159644445903717  1.0000
  H   H878      1.0  0.29311351531170343  0.5834757299300875  0.33077297378735276  1.0000
  H   H879      1.0  0.24738882138821985  0.6225191818224007  0.33745495134110925  1.0000
  H   H880      1.0  0.2622489806711873  0.6312188725851771  0.31109158241976487  1.0000
  H   H881      1.0  0.2787543122245615  0.6597130655587572  0.32967714139076765  1.0000
  H   H882      1.0  0.2762736336664798  0.6139266805417459  0.36448338627885984  1.0000
  H   H883      1.0  0.3064657077945186  0.6524933689046672  0.3581476642564034  1.0000
  H   H884      1.0  0.3146002817428564  0.6219140073614792  0.3582084169027048  1.0000
  N   N56       1.0  0.21372582543492596  0.5818448482169527  0.8383976317144325  1.0000
  C   C557      1.0  0.23533873818536075  0.5763678951805847  0.8259028058722608  1.0000
  C   C558      1.0  0.2087727773924991  0.6048413408796852  0.8272496681771383  1.0000
  C   C559      1.0  0.22644792527680724  0.5931919203480199  0.8584885494545049  1.0000
  C   C560      1.0  0.18425971076998962  0.5529454304224654  0.8418554139620178  1.0000
  H   H885      1.0  0.22596215718535195  0.5672837270729112  0.8108034840776985  1.0000
  H   H886      1.0  0.23975470926046574  0.5592315605860735  0.8339086980332103  1.0000
  H   H887      1.0  0.257721652763453  0.597694433331271  0.8227775548608465  1.0000
  H   H888      1.0  0.2300918657101948  0.6275150126341177  0.825375780756222  1.0000
  H   H889      1.0  0.200885218164368  0.5979561272962309  0.8115697034205643  1.0000
  H   H890      1.0  0.19107423038818697  0.6080999528914285  0.8355598239510255  1.0000
  H   H891      1.0  0.21037906222662217  0.5969038685476277  0.8684651472389956  1.0000
  H   H892      1.0  0.2484041906385113  0.6152955472337922  0.8565262351898754  1.0000
  H   H893      1.0  0.2309851615465232  0.5767136214858486  0.8672013585401122  1.0000
  H   H894      1.0  0.18728157849090543  0.53479610135862  0.8497113432231258  1.0000
  H   H895      1.0  0.17371555035807532  0.5441563042261286  0.8269958017832376  1.0000
  H   H896      1.0  0.16748435993625094  0.5559381201272658  0.85158080963568  1.0000
