data_image0
_chemical_formula_structural       FeS2FeS2FeSFeS3FeS2FeS2FeSFeS3FeS2FeS2FeSFeS3FeS2FeS2FeSFeS3FeS2FeS2FeSFeS3FeS2FeS2FeSFeS3FeS2FeS2FeSFeS3FeS2FeS2FeSFeS3C6H4C6H4C6H4C6H4C6H4C6H4C6H4C6H4C6H4C6H4C6H4C6H4C6H4C6H4C6H4C6H4FeS2FeS2FeSFeS3FeS2FeS2FeSFeS3FeS2FeS2FeSFeS3FeS2FeS2FeSFeS3FeS2FeS2FeSFeS3FeS2FeS2FeSFeS3FeS2FeS2FeSFeS3FeS2FeS2FeSFeS3C6H4C6H4C6H4C6H4C6H4C6H4C6H4C6H4C6H4C6H4C6H4C6H4C6H4C6H4C6H4C6H4FeS2FeS2FeSFeS3FeS2FeS2FeSFeS3FeS2FeS2FeSFeS3FeS2FeS2FeSFeS3FeS2FeS2FeSFeS3FeS2FeS2FeSFeS3FeS2FeS2FeSFeS3FeS2FeS2FeSFeS3C6H4C6H4C6H4C6H4C6H4C6H4C6H4C6H4C6H4C6H4C6H4C6H4C6H4C6H4C6H4C6H4FeS2FeS2FeSFeS3FeS2FeS2FeSFeS3FeS2FeS2FeSFeS3FeS2FeS2FeSFeS3FeS2FeS2FeSFeS3FeS2FeS2FeSFeS3FeS2FeS2FeSFeS3FeS2FeS2FeSFeS3C6H4C6H4C6H4C6H4C6H4C6H4C6H4C6H4C6H4C6H4C6H4C6H4C6H4C6H4C6H4C6H4NC4H12NC4H12NC4H12NC4H12NC4H12NC4H12NC4H12NC4H12NC4H12NC4H12NC4H12NC4H12NC4H12NC4H12NC4H12NC4H12NC4H12NC4H12NC4H12NC4H12NC4H12NC4H12NC4H12NC4H12NC4H12NC4H12NC4H12NC4H12NC4H12NC4H12NC4H12NC4H12NC4H12NC4H12NC4H12NC4H12NC4H12NC4H12NC4H12NC4H12NC4H12NC4H12NC4H12NC4H12NC4H12NC4H12NC4H12NC4H12NC4H12NC4H12NC4H12NC4H12NC4H12NC4H12NC4H12NC4H12NC4H12NC4H12NC4H12NC4H12NC4H12NC4H12NC4H12NC4H12
_chemical_formula_sum              "Fe128 S256 C640 H1024 N64"
_cell_length_a       46.12253301760525
_cell_length_b       45.466553219641725
_cell_length_c       41.91232189185185
_cell_angle_alpha    82.67208634939118
_cell_angle_beta     88.0835905010432
_cell_angle_gamma    124.34626784121798

_space_group_name_H-M_alt    "P 1"
_space_group_IT_number       1

loop_
  _space_group_symop_operation_xyz
  'x, y, z'

loop_
  _atom_site_type_symbol
  _atom_site_label
  _atom_site_symmetry_multiplicity
  _atom_site_fract_x
  _atom_site_fract_y
  _atom_site_fract_z
  _atom_site_occupancy
  Fe  Fe1       1.0  0.10296299151018513  0.024027031807742585  0.3199585677930673  1.0000
  S   S1        1.0  0.08380704471315706  0.4949335032339337  0.31985779428516214  1.0000
  S   S2        1.0  0.15633630868462597  0.031715689490107134  0.31417316974587106  1.0000
  Fe  Fe2       1.0  0.5343511082304333  0.03106038119042929  0.35598041775593214  1.0000
  S   S3        1.0  0.5102563410300919  0.49137189523307084  0.326850595106249  1.0000
  S   S4        1.0  0.5175367592062633  0.06416097694776222  0.376195086510618  1.0000
  Fe  Fe3       1.0  0.5285355690227476  0.46055932644750014  0.35536671726409613  1.0000
  S   S5        1.0  0.4948368004228001  0.39976821875226437  0.37348319189407586  1.0000
  Fe  Fe4       1.0  0.04553035425618679  0.009585662974259418  0.27707539385026025  1.0000
  S   S6        1.0  0.03721172360538068  0.019189209315624525  0.2258678145835008  1.0000
  S   S7        1.0  0.5538011022135158  0.5005554747534111  0.3894900040608887  1.0000
  S   S8        1.0  0.08819945383304675  0.05923347457967387  0.29459293938004877  1.0000
  Fe  Fe5       1.0  0.12471770340499876  0.2554207281492135  0.10710299576308177  1.0000
  S   S9        1.0  0.09358009600140337  0.21409068846829699  0.07528808761827104  1.0000
  S   S10       1.0  0.15961003864176104  0.3154790148716218  0.08604674928838003  1.0000
  Fe  Fe6       1.0  0.09600911964843271  0.19742297805557124  0.1662959490761486  1.0000
  S   S11       1.0  0.06200789551722708  0.15189774059598898  0.13937980268539868  1.0000
  S   S12       1.0  0.09377381518308124  0.18218339577109163  0.2195531469741652  1.0000
  Fe  Fe7       1.0  0.11092924387479138  0.1815084845921876  0.10317663549068229  1.0000
  S   S13       1.0  0.12807727036359334  0.1483787811624398  0.08301116001617599  1.0000
  Fe  Fe8       1.0  0.0476135298220442  0.18789502458507232  0.11523129328361899  1.0000
  S   S14       1.0  0.9922213187027507  0.17385838418238359  0.10833851377352399  1.0000
  S   S15       1.0  0.14546404696120013  0.22499407849092487  0.13150016355447916  1.0000
  S   S16       1.0  0.07826401057160244  0.23153992285757785  0.14489359568877766  1.0000
  Fe  Fe9       1.0  0.36399776537561457  0.17604536594851067  0.30349665311594337  1.0000
  S   S17       1.0  0.39552914147796  0.22256272808801608  0.2615971936884591  1.0000
  S   S18       1.0  0.3127028036075512  0.16398498639278847  0.3281169299918988  1.0000
  Fe  Fe10      1.0  0.4171408094686825  0.15518129548645845  0.30175182032223274  1.0000
  S   S19       1.0  0.45234271975296564  0.1999472281110992  0.2596704261818049  1.0000
  S   S20       1.0  0.4161704412268863  0.10463045828679693  0.31794395920878316  1.0000
  Fe  Fe11      1.0  0.4429631325199998  0.23485882511692688  0.286129708586342  1.0000
  S   S21       1.0  0.489599445083963  0.29338860788268306  0.28446265934307535  1.0000
  Fe  Fe12      1.0  0.4026184660635112  0.18477834180567612  0.2384838829825168  1.0000
  S   S22       1.0  0.39373300755548923  0.17037049060632772  0.18824771852791777  1.0000
  S   S23       1.0  0.4111148455266729  0.19103254739256925  0.32997587259016287  1.0000
  S   S24       1.0  0.3677431211100868  0.1375955298697712  0.27869168547832057  1.0000
  Fe  Fe13      1.0  0.404690574483468  0.24963357488924826  0.009148393207130113  1.0000
  S   S25       1.0  0.3953685318196986  0.19887372937998385  0.9956681217175821  1.0000
  S   S26       1.0  0.40427275869668994  0.2656223033746664  0.05797047452930665  1.0000
  Fe  Fe14      1.0  0.4194665708414531  0.28706639127175076  0.9390919510060053  1.0000
  S   S27       1.0  0.41117768366741925  0.2394124590168536  0.9193717305459856  1.0000
  S   S28       1.0  0.42778866879347877  0.337013246724518  0.9089566772808391  1.0000
  Fe  Fe15      1.0  0.36416056915366535  0.20504942368174006  0.9581263524535916  1.0000
  S   S29       1.0  0.3140565909665415  0.1543197517895699  0.9471957183671171  1.0000
  Fe  Fe16      1.0  0.4426745869565255  0.23643947499458268  0.957914939834225  1.0000
  S   S30       1.0  0.48973357625626485  0.23389712301169274  0.9466502702047417  1.0000
  S   S31       1.0  0.3698564518025106  0.252816348430288  0.9747626919898008  1.0000
  S   S32       1.0  0.45459954342242664  0.28704801308734845  0.9745821480943038  1.0000
  Fe  Fe17      1.0  0.05607314416119436  0.11747826455241699  0.6238971388812756  1.0000
  S   S33       1.0  0.043881448513600214  0.06872695866238511  0.6039767478884797  1.0000
  S   S34       1.0  0.035077481863839396  0.11015631786665778  0.6762254867379348  1.0000
  Fe  Fe18      1.0  0.08760582105108844  0.16661985754583622  0.557139786675836  1.0000
  S   S35       1.0  0.07552610948080565  0.12020731103057476  0.5323878459530822  1.0000
  S   S36       1.0  0.11786848431273206  0.22057203064266598  0.5222749568670468  1.0000
  Fe  Fe19      1.0  0.02307938320040105  0.08755505527670883  0.5642993187498674  1.0000
  S   S37       1.0  0.46071007216666415  0.04896243973049509  0.5371622623756385  1.0000
  Fe  Fe20      1.0  0.09721250165815537  0.10567030541262017  0.573888914513822  1.0000
  S   S38       1.0  0.1420765825333216  0.09853525104650239  0.5678827031103433  1.0000
  S   S39       1.0  0.03303757667608648  0.1349271988833852  0.5853742092692235  1.0000
  S   S40       1.0  0.11140517059083996  0.1533786596785755  0.5975082939575895  1.0000
  Fe  Fe21      1.0  0.1167206312000383  0.09482228934090198  0.9113966211528215  1.0000
  S   S41       1.0  0.09645742098036497  0.04684089017495276  0.8860746642185486  1.0000
  S   S42       1.0  0.16353782979382006  0.12885878542231338  0.9388402897081705  1.0000
  Fe  Fe22      1.0  0.058452295182647905  0.10501786073824597  0.8922486019883336  1.0000
  S   S43       1.0  0.5240947732360777  0.052879499792677635  0.8734511292845701  1.0000
  S   S44       1.0  0.4879681127435756  0.09685356971005621  0.923482964963381  1.0000
  Fe  Fe23      1.0  0.04205266449000279  0.028466192695849574  0.9072013105303177  1.0000
  S   S45       1.0  0.5623156515136609  0.4961059718105613  0.9127538172164256  1.0000
  Fe  Fe24      1.0  0.08866571449257542  0.07870453891650186  0.8457116302311887  1.0000
  S   S46       1.0  0.10536298787615685  0.08172779814240223  0.7933093283113041  1.0000
  S   S47       1.0  0.06242364023157186  0.07382437189480864  0.935896624139635  1.0000
  S   S48       1.0  0.11335503128935406  0.12775922722650404  0.8690542300093337  1.0000
  Fe  Fe25      1.0  0.2180366758474833  0.9899904286150536  0.1611161811744772  1.0000
  S   S49       1.0  0.2372587769795221  0.03632022004552685  0.1198841552160463  1.0000
  S   S50       1.0  0.16289433234304995  0.43333879113082396  0.15610214195700192  1.0000
  Fe  Fe26      1.0  0.2703254238189925  0.03844223803167918  0.20444072663220067  1.0000
  S   S51       1.0  0.29382049822870365  0.08837046149435737  0.16628396439808138  1.0000
  S   S52       1.0  0.2924138745747134  0.04736899977366675  0.25264841215663436  1.0000
  Fe  Fe27      1.0  0.23791014923541157  0.06733547560539771  0.1577391512158104  1.0000
  S   S53       1.0  0.22367956477085832  0.10818896005327135  0.15711892712321165  1.0000
  Fe  Fe28      1.0  0.29209120499556446  0.054357476956551506  0.13130807270657485  1.0000
  S   S54       1.0  0.33412330072994034  0.07854608224304056  0.08748878229874904  1.0000
  S   S55       1.0  0.21487889464834298  0.019959599021867436  0.1985320440939752  1.0000
  S   S56       1.0  0.2726179678683403  0.005417997815744414  0.16985290501149955  1.0000
  Fe  Fe29      1.0  0.2237233879197846  0.9557673070980539  0.4372386806682817  1.0000
  S   S57       1.0  0.24377179241211905  0.009440611401948792  0.4512712122677919  1.0000
  S   S58       1.0  0.21187186808336617  0.9399992668541343  0.387457189313899  1.0000
  Fe  Fe30      1.0  0.21424253898526  0.4296174052241907  0.5143801729299861  1.0000
  S   S59       1.0  0.24840371814553383  0.4835552405044946  0.5307051013818541  1.0000
  S   S60       1.0  0.183352250585994  0.37909613940468045  0.553628442041303  1.0000
  Fe  Fe31      1.0  0.1952456923553999  0.980431805538899  0.48809015981417836  1.0000
  S   S61       1.0  0.15474077013584606  0.9943803705369768  0.4885731168468716  1.0000
  Fe  Fe32      1.0  0.26809861398207446  0.9933962178927256  0.48986581245335464  1.0000
  S   S62       1.0  0.3230284742239005  0.03987071264811989  0.49888063316901965  1.0000
  S   S63       1.0  0.18571019629795368  0.44667393056353105  0.48296052500129255  1.0000
  S   S64       1.0  0.25591677700836246  0.44386012699059885  0.47412893515448135  1.0000
  C   C1        1.0  0.26900980432227745  0.017643079288675277  0.2899832792986158  1.0000
  C   C2        1.0  0.2841236594681925  0.02728098234810942  0.31874634122721246  1.0000
  C   C3        1.0  0.26648882284671516  0.004273570238222272  0.3488986237511254  1.0000
  C   C4        1.0  0.23387280715634948  0.9710137834793157  0.3504334742693789  1.0000
  C   C5        1.0  0.2188016544832032  0.9613208127290392  0.3216667590683285  1.0000
  C   C6        1.0  0.23613491342612897  0.9846288264420199  0.291591733526759  1.0000
  H   H1        1.0  0.30963915106249346  0.05265873966703815  0.3176172851006812  1.0000
  H   H2        1.0  0.27846581637869405  0.011846499644364187  0.3707973233596959  1.0000
  H   H3        1.0  0.19363409210581428  0.9356299541930024  0.3225590140327669  1.0000
  H   H4        1.0  0.22425491621023955  0.9768835992638787  0.2696250779412731  1.0000
  C   C7        1.0  0.053924292660749926  0.10040034020205761  0.7083548295313834  1.0000
  C   C8        1.0  0.08516706511357783  0.10255147379677737  0.7027248007418888  1.0000
  C   C9        1.0  0.10031335353004159  0.09616420158593483  0.7289802261774192  1.0000
  C   C10       1.0  0.08436321887819323  0.08752993127906765  0.7610152631715931  1.0000
  C   C11       1.0  0.0526234030027019  0.08445884904191554  0.7666191978410779  1.0000
  C   C12       1.0  0.03759343439266891  0.09110027350763733  0.7403738980031158  1.0000
  H   H5        1.0  0.09794251214713456  0.1095870973359128  0.6781620237842142  1.0000
  H   H6        1.0  0.12478890286759571  0.09840900735798457  0.7244071479352918  1.0000
  H   H7        1.0  0.03980337836138706  0.07723062816576938  0.7911382301180878  1.0000
  H   H8        1.0  0.013229571276269222  0.08904871935345092  0.7448758824096623  1.0000
  C   C13       1.0  0.36081441807028436  0.04157544115188928  0.5099467978171757  1.0000
  C   C14       1.0  0.36204975453141125  0.011324360152255604  0.5130493875801366  1.0000
  C   C15       1.0  0.39290290536463146  0.014269012434735549  0.5213004389497566  1.0000
  C   C16       1.0  0.4228422271413651  0.04736890844907541  0.5266360591764174  1.0000
  C   C17       1.0  0.4215743753922507  0.07759177473331286  0.5237206700180118  1.0000
  C   C18       1.0  0.3907598634157421  0.07468215003236008  0.5153184147595935  1.0000
  H   H9        1.0  0.33930805212721754  0.9857159519431467  0.5089442338769545  1.0000
  H   H10       1.0  0.3935474254887668  0.9906847255962832  0.5234838821044473  1.0000
  H   H11       1.0  0.444366095676515  0.10325559783723076  0.5276648042406075  1.0000
  H   H12       1.0  0.39012050063515397  0.09828083917837385  0.5129771950162372  1.0000
  C   C19       1.0  0.1444871740958314  0.06863838004841825  0.5462918335976524  1.0000
  C   C20       1.0  0.1736735075267404  0.06649821758868037  0.5480960306418851  1.0000
  C   C21       1.0  0.17714404272738987  0.04373415726756688  0.5308406834034508  1.0000
  C   C22       1.0  0.15154161726044327  0.02307871653550779  0.5113181731099207  1.0000
  C   C23       1.0  0.12250922196620186  0.025490499766312416  0.5092655396971738  1.0000
  C   C24       1.0  0.11889836413575866  0.04804793416330398  0.5267209460018905  1.0000
  H   H13       1.0  0.19365465846256308  0.08237273087240754  0.563114887381994  1.0000
  H   H14       1.0  0.19962116837440344  0.04220293798754486  0.5326274772000341  1.0000
  H   H15       1.0  0.10256470601524648  0.009617183817384635  0.4942322178417581  1.0000
  H   H16       1.0  0.09635041953407733  0.04945111418114165  0.5250520641532249  1.0000
  C   C25       1.0  0.13586758933787127  0.2642845355981377  0.5318499211369975  1.0000
  C   C26       1.0  0.1326204923782558  0.2696261046266863  0.5635748988002547  1.0000
  C   C27       1.0  0.14733392089928388  0.3048946854772464  0.5699067462465677  1.0000
  C   C28       1.0  0.16549462063081763  0.3351549180829046  0.5446725897154701  1.0000
  C   C29       1.0  0.16881694433551533  0.32977519886613493  0.5129993984504135  1.0000
  C   C30       1.0  0.1540727757161354  0.29455424667254826  0.5066698830869781  1.0000
  H   H17       1.0  0.11873796333794963  0.2466284495046714  0.5831944965170119  1.0000
  H   H18       1.0  0.1446482320592766  0.30873911617409094  0.5944876859104034  1.0000
  H   H19       1.0  0.18264583784326172  0.352735211983892  0.49332359314521074  1.0000
  H   H20       1.0  0.15668156871231095  0.29077384292192604  0.48203754900204887  1.0000
  C   C31       1.0  0.4655933561852082  0.38116977521488504  0.9094763668423258  1.0000
  C   C32       1.0  0.4954990733938868  0.3867898289961603  0.9224793754656867  1.0000
  C   C33       1.0  0.5249577051674575  0.4222187609565274  0.9229470723054546  1.0000
  C   C34       1.0  0.5247323832849166  0.4523465283857847  0.9107282870743023  1.0000
  C   C35       1.0  0.49474926545913106  0.4467550344056212  0.8978446576573963  1.0000
  C   C36       1.0  0.46536997279499137  0.4112730259750862  0.8970911056857109  1.0000
  H   H21       1.0  0.49619675645090255  0.3639152792358693  0.9317231835003352  1.0000
  H   H22       1.0  0.9444226959011607  0.4071167775645701  0.9659143984705975  1.0000
  H   H23       1.0  0.4943109734610469  0.4697430612660365  0.8882853914555376  1.0000
  H   H24       1.0  0.44236085949464093  0.40714911642628054  0.8868823848454043  1.0000
  C   C37       1.0  0.4888433898974135  0.19547887099387456  0.9406714983073415  1.0000
  C   C38       1.0  0.4595521144514116  0.16024747783770707  0.9527349845714739  1.0000
  C   C39       1.0  0.45970377053297407  0.13039426930099532  0.947153338550385  1.0000
  C   C40       1.0  0.4892499155787014  0.13544153062610892  0.9297200446575309  1.0000
  C   C41       1.0  0.5188001129058569  0.1707030196096669  0.9181531909019731  1.0000
  C   C42       1.0  0.5186076023372178  0.20053303363434874  0.92373857257697  1.0000
  H   H25       1.0  0.4370148144965904  0.15607897535609347  0.9667027902383221  1.0000
  H   H26       1.0  0.436969002420239  0.10320493725742957  0.9567208581374205  1.0000
  H   H27       1.0  0.03884837808572778  0.2062163230684999  0.8896023295343389  1.0000
  H   H28       1.0  0.5415374730533191  0.2277262976503697  0.9145356957095709  1.0000
  C   C43       1.0  0.20578421383426448  0.1363611084028245  0.938866066920166  1.0000
  C   C44       1.0  0.21276182524462955  0.11261116474881279  0.9285684750571359  1.0000
  C   C45       1.0  0.24610773586883364  0.11862934542172034  0.9310642708488935  1.0000
  C   C46       1.0  0.27305565630925227  0.14881112169435018  0.9431839559538111  1.0000
  C   C47       1.0  0.26628303142666326  0.17291860870480005  0.9528998894950735  1.0000
  C   C48       1.0  0.23270751839002224  0.1664276418378828  0.9511365376220301  1.0000
  H   H29       1.0  0.19223472859048527  0.08919788172134134  0.9193676659148431  1.0000
  H   H30       1.0  0.25094419837801835  0.09967896289074533  0.9236383586380348  1.0000
  H   H31       1.0  0.2867261121401689  0.1964171915389876  0.9620156767007174  1.0000
  H   H32       1.0  0.227606684572216  0.18495797700252475  0.9591969964818756  1.0000
  C   C49       1.0  0.39550518810272894  0.1969234468644286  0.15273097487507672  1.0000
  C   C50       1.0  0.4038575246542422  0.23167331102215147  0.15241096690642256  1.0000
  C   C51       1.0  0.40591262479399437  0.2522448763212202  0.12322362744075689  1.0000
  C   C52       1.0  0.3999894523098124  0.23834506378635342  0.09422988541669695  1.0000
  C   C53       1.0  0.3913577554490857  0.20348441170238005  0.09462336625554836  1.0000
  C   C54       1.0  0.38886028638793974  0.18278661695835988  0.12385876120899017  1.0000
  H   H33       1.0  0.4090127779550984  0.2427704183255013  0.17455588715834022  1.0000
  H   H34       1.0  0.41254608081969535  0.27920165678863  0.12308426242609533  1.0000
  H   H35       1.0  0.38675665474409215  0.1923954748002406  0.07251387814743035  1.0000
  H   H36       1.0  0.3821494414123572  0.1557904388019984  0.12404457983367045  1.0000
  C   C55       1.0  0.4562489746813762  0.14712100122897984  0.07367821594470612  1.0000
  C   C56       1.0  0.43685635846353993  0.1439007471653495  0.047778969940464294  1.0000
  C   C57       1.0  0.3997617473172727  0.122969671984061  0.05273515787587035  1.0000
  C   C58       1.0  0.38114629169048886  0.1047617860921984  0.0837458601088495  1.0000
  C   C59       1.0  0.4003075396045289  0.10750726235627031  0.10988557209914976  1.0000
  C   C60       1.0  0.4378842114782035  0.12880173169663733  0.1049372267001031  1.0000
  H   H37       1.0  0.4506360531468966  0.1577054462846914  0.02359736617607  1.0000
  H   H38       1.0  0.385379258086275  0.12080849107882591  0.032282401356788594  1.0000
  H   H39       1.0  0.3860397890340637  0.09282231072059706  0.13363180612553555  1.0000
  H   H40       1.0  0.45252051731376386  0.1309702740421299  0.12518526092636792  1.0000
  C   C61       1.0  0.1537677599167363  0.13630390723885363  0.1042432925069023  1.0000
  C   C62       1.0  0.1587787047627276  0.11094930138049271  0.09396677086475236  1.0000
  C   C63       1.0  0.1796669628089485  0.10148834052845919  0.10998733497308953  1.0000
  C   C64       1.0  0.19634121345866734  0.1179121666612625  0.1360643905377999  1.0000
  C   C65       1.0  0.19129072989912851  0.14315926451910788  0.14627248732670392  1.0000
  C   C66       1.0  0.16999078694943381  0.1521057398122287  0.13066890630447478  1.0000
  H   H41       1.0  0.14629901214026805  0.09847401632092125  0.0735863361055294  1.0000
  H   H42       1.0  0.18296908224108102  0.08173911101268665  0.10201427282326613  1.0000
  H   H43       1.0  0.20376040620559896  0.15586898869563615  0.16655919616612852  1.0000
  H   H44       1.0  0.16647295611771287  0.1716069735049361  0.13892619130676592  1.0000
  C   C67       1.0  0.16330830170399122  0.34822183992600647  0.10787952836998957  1.0000
  C   C68       1.0  0.14124243717003504  0.33806506489486604  0.13675105044168784  1.0000
  C   C69       1.0  0.14199278059743073  0.3645262006214266  0.1515877162172389  1.0000
  C   C70       1.0  0.1658237632075618  0.40150689539982054  0.138562217178433  1.0000
  C   C71       1.0  0.18903859829737407  0.4118307961863605  0.11049066217952312  1.0000
  C   C72       1.0  0.18743504673426592  0.38524197135081256  0.09500671574862883  1.0000
  H   H45       1.0  0.12295632053463534  0.30980896470322705  0.14729482276495406  1.0000
  H   H46       1.0  0.12395662489049228  0.3563217576513167  0.17328817230940263  1.0000
  H   H47       1.0  0.2073099892077389  0.440200396420586  0.10006669530151405  1.0000
  H   H48       1.0  0.20467917243482342  0.39340221878638504  0.07273933175070817  1.0000
  C   C73       1.0  0.05045697647524507  0.0639717824358018  0.22259093697838853  1.0000
  C   C74       1.0  0.039984989374431686  0.07430635604070783  0.24829543333526097  1.0000
  C   C75       1.0  0.05457433376477907  0.11092597350905602  0.24842565025856442  1.0000
  C   C76       1.0  0.07972536048787111  0.13718701731409114  0.2228347347156018  1.0000
  C   C77       1.0  0.09058425716742816  0.12687405401497273  0.19745935214174723  1.0000
  C   C78       1.0  0.07551202333412792  0.09027224649867031  0.1969893451096334  1.0000
  H   H49       1.0  0.020979736638009727  0.05409217943284108  0.2684137673280145  1.0000
  H   H50       1.0  0.04621451201590549  0.11878581147779774  0.26816035097961627  1.0000
  H   H51       1.0  0.11053737240473313  0.1472242395257844  0.17793172092994788  1.0000
  H   H52       1.0  0.08402278551773339  0.08264192994334708  0.17720535789993194  1.0000
  C   C79       1.0  0.4919877491687959  0.37034917421525326  0.3476862324794311  1.0000
  C   C80       1.0  0.5143109946963211  0.3837977754732469  0.31836521593006867  1.0000
  C   C81       1.0  0.5129986717136437  0.35986998312186524  0.29924975288925043  1.0000
  C   C82       1.0  0.48880911346744893  0.3222371547119009  0.3087334064874545  1.0000
  C   C83       1.0  0.46597579176688775  0.30869938169579303  0.3377581116673483  1.0000
  C   C84       1.0  0.4678511050906833  0.33267778491615263  0.3572985690074691  1.0000
  H   H53       1.0  0.5326938040218757  0.41263124638752186  0.31038817176580025  1.0000
  H   H54       1.0  0.5304900943261582  0.3706208740037427  0.27676661969602295  1.0000
  H   H55       1.0  0.44728984218434403  0.2797737654101523  0.3454151193882171  1.0000
  H   H56       1.0  0.4504164721624333  0.32196689090836267  0.37989697503509623  1.0000
  C   C85       1.0  0.49225182522513816  0.07767178687864684  0.3566827138897395  1.0000
  C   C86       1.0  0.4682084692459569  0.05720453164610168  0.33602684019504614  1.0000
  C   C87       1.0  0.44603642404757343  0.06668746717345454  0.32346742813683355  1.0000
  C   C88       1.0  0.44839227081201255  0.09737007186640086  0.33047076586013174  1.0000
  C   C89       1.0  0.47353731227934154  0.11878475378761583  0.35003189620288183  1.0000
  C   C90       1.0  0.495010450624773  0.10865545869371726  0.3634258935480179  1.0000
  H   H57       1.0  0.46563767695445774  0.0331932269160584  0.3307744984519264  1.0000
  H   H58       1.0  0.42645849542819064  0.04962408611248143  0.308748807014829  1.0000
  H   H59       1.0  0.47530152305500406  0.1421222593229935  0.35609824066048756  1.0000
  H   H60       1.0  0.5133661463748784  0.1245257889295404  0.37960217643431976  1.0000
  C   C91       1.0  0.199310054860292  0.06858122537529816  0.31905724470588415  1.0000
  C   C92       1.0  0.22802235117709296  0.06616481286898503  0.3130900919688213  1.0000
  C   C93       1.0  0.26280859542543195  0.0949863516910048  0.31590420606541897  1.0000
  C   C94       1.0  0.26925845583223507  0.12656270672514058  0.32490567816703836  1.0000
  C   C95       1.0  0.2404592263775961  0.1287503365469704  0.3314025209022336  1.0000
  C   C96       1.0  0.2056541865536605  0.1000121492164666  0.328310506286673  1.0000
  H   H61       1.0  0.20090842321813565  0.5922017556810821  0.323136553826022  1.0000
  H   H62       1.0  0.28456188406596217  0.0926883264454098  0.3110297100589067  1.0000
  H   H63       1.0  0.24512714734347987  0.15298821414891908  0.3385377110860177  1.0000
  H   H64       1.0  0.18381535952990793  0.1022465383889531  0.33299684532393037  1.0000
  Fe  Fe33      1.0  0.10342029919721171  0.5352921385935407  0.3534475851151694  1.0000
  S   S65       1.0  0.06360589078812627  0.9758526566324031  0.298079708660981  1.0000
  S   S66       1.0  0.14884967593740128  0.552305978773169  0.3833322160225208  1.0000
  Fe  Fe34      1.0  0.5398553324844456  0.5339759217113932  0.3575949888103353  1.0000
  S   S67       1.0  0.5046048437296263  0.9792467701494947  0.3358906394268576  1.0000
  S   S68       1.0  0.5189661928400119  0.5643908080914386  0.3770668001284649  1.0000
  Fe  Fe35      1.0  0.5359762271178986  0.9633559718633103  0.36346359576943166  1.0000
  S   S69       1.0  0.5128603414644962  0.9056860480155742  0.38767683267415937  1.0000
  Fe  Fe36      1.0  0.06814369328783408  0.5289920312986155  0.29312037710499894  1.0000
  S   S70       1.0  0.0802863756627548  0.548955560813656  0.23993959518139438  1.0000
  S   S71       1.0  0.561080247191975  0.012067368036128734  0.3880059808702327  1.0000
  S   S72       1.0  0.0930332823375997  0.5720323385054997  0.32387904973366194  1.0000
  Fe  Fe37      1.0  0.11540865748185644  0.7554313210303197  0.10367526876680618  1.0000
  S   S73       1.0  0.09139115812862586  0.7156402220415667  0.06930233025115791  1.0000
  S   S74       1.0  0.1534031674579981  0.8157362075757784  0.08482604450664973  1.0000
  Fe  Fe38      1.0  0.07733648709144836  0.6963690202496277  0.1617647980768987  1.0000
  S   S75       1.0  0.04919204264936649  0.6519058405645941  0.13285749472693298  1.0000
  S   S76       1.0  0.06688582116653755  0.680498143913998  0.21561668068408096  1.0000
  Fe  Fe39      1.0  0.10246131475299573  0.6809341499704521  0.10296652289539794  1.0000
  S   S77       1.0  0.11430704983118828  0.6417791602957769  0.08771465913930647  1.0000
  Fe  Fe40      1.0  0.04034886297375809  0.6893310442149572  0.10229112531130137  1.0000
  S   S78       1.0  0.9890242085460416  0.6732001509483825  0.08272041020482082  1.0000
  S   S79       1.0  0.13121083017216875  0.723364453364335  0.13416274295383132  1.0000
  S   S80       1.0  0.0636679272834053  0.7315259794682619  0.13415407742091887  1.0000
  Fe  Fe41      1.0  0.36115727957953137  0.6639716835919792  0.322389925767371  1.0000
  S   S81       1.0  0.3769476722047292  0.7107788820491849  0.283322319990086  1.0000
  S   S82       1.0  0.31730676245674455  0.639480853640895  0.36431107653832273  1.0000
  Fe  Fe42      1.0  0.4228609730610339  0.6598991563641065  0.29900956855023214  1.0000
  S   S83       1.0  0.4438082157172439  0.7077260456769361  0.2589445329246079  1.0000
  S   S84       1.0  0.43963622360555027  0.6214712052108553  0.2957609655834669  1.0000
  Fe  Fe43      1.0  0.43226808247642445  0.7333794868104093  0.29539511844680294  1.0000
  S   S85       1.0  0.4692250085139648  0.7947452772679818  0.2901038379903347  1.0000
  Fe  Fe44      1.0  0.3874836950413989  0.6819590401976855  0.24988774864617225  1.0000
  S   S86       1.0  0.36621498958547716  0.6664111833675238  0.20239271490712182  1.0000
  S   S87       1.0  0.41617526488224527  0.6877293679785768  0.33659056174931773  1.0000
  S   S88       1.0  0.36673292069150226  0.6331490982743176  0.2882937681124428  1.0000
  Fe  Fe45      1.0  0.4193957128775385  0.7413297219927477  0.015240864416597196  1.0000
  S   S89       1.0  0.40719876813369055  0.6920782010405546  0.9957455112818222  1.0000
  S   S90       1.0  0.441879932465144  0.7601413741792409  0.061794164084316386  1.0000
  Fe  Fe46      1.0  0.41804365849574776  0.7788527432685157  0.9497694837625248  1.0000
  S   S91       1.0  0.4071495692565427  0.7333803875114746  0.9247389027527267  1.0000
  S   S92       1.0  0.4187951074127345  0.826357401239078  0.9240315017284356  1.0000
  Fe  Fe47      1.0  0.36783262455095883  0.6971295265071084  0.9688747421150771  1.0000
  S   S93       1.0  0.31604355080618557  0.6489162964796376  0.9572465106845234  1.0000
  Fe  Fe48      1.0  0.446805229668869  0.7314640587232286  0.9529796549522306  1.0000
  S   S94       1.0  0.49420442373367257  0.7333425901113892  0.9325986032758511  1.0000
  S   S95       1.0  0.37644339464733984  0.7428487065630873  0.9925001421728668  1.0000
  S   S96       1.0  0.46125109462581315  0.7806122967380906  0.9736706143986045  1.0000
  Fe  Fe49      1.0  0.05034344337511445  0.6029947005761995  0.6195820000152171  1.0000
  S   S97       1.0  0.013942679466786418  0.5564029366160703  0.5943841906156443  1.0000
  S   S98       1.0  0.040820426039674874  0.6052239549259759  0.6728442038244871  1.0000
  Fe  Fe50      1.0  0.09398273043549364  0.6539544330201446  0.5557557047268548  1.0000
  S   S99       1.0  0.06136961449581133  0.6112563743588821  0.5258121531714033  1.0000
  S   S100      1.0  0.14242068995500567  0.7095638794013205  0.5320928873690592  1.0000
  Fe  Fe51      1.0  0.013602009176973278  0.5971181139560835  0.5580346495985923  1.0000
  S   S101      1.0  0.4576956605123983  0.5563890154846383  0.5817271927688129  1.0000
  Fe  Fe52      1.0  0.06426951310176202  0.5735484664314556  0.5638176048677976  1.0000
  S   S102      1.0  0.06963086728032583  0.53010055849138  0.5485212845486329  1.0000
  S   S103      1.0  0.04646991583801299  0.6427773884591949  0.5852833176717671  1.0000
  S   S104      1.0  0.10053447228135132  0.6172341777360107  0.5916593577868842  1.0000
  Fe  Fe53      1.0  0.12585962426819924  0.6027417349058604  0.9118405208972962  1.0000
  S   S105      1.0  0.10173134758187669  0.552012185434302  0.8900191531077966  1.0000
  S   S106      1.0  0.17247917944343347  0.6347389804251259  0.9402285134615765  1.0000
  Fe  Fe54      1.0  0.06639592990005115  0.6120035607634393  0.8963417982987565  1.0000
  S   S107      1.0  0.5382710951796473  0.5652032388037344  0.8685373264811461  1.0000
  S   S108      1.0  0.4980222061010883  0.5955562501515048  0.930492562236761  1.0000
  Fe  Fe55      1.0  0.04913328774292716  0.5355594051722014  0.9140245338486243  1.0000
  S   S109      1.0  0.5441306302088033  0.988055046843664  0.9333444613420998  1.0000
  Fe  Fe56      1.0  0.0913255984293987  0.5815741737321678  0.8493324975518393  1.0000
  S   S110      1.0  0.1014137024916562  0.5746712418118923  0.7980069273294825  1.0000
  S   S111      1.0  0.07377473453585572  0.5834827141641079  0.9395335745438383  1.0000
  S   S112      1.0  0.11956152791962427  0.633358762712049  0.8693320195234467  1.0000
  Fe  Fe57      1.0  0.20926956720955567  0.4906904079406254  0.15795836705039584  1.0000
  S   S113      1.0  0.24738787741621374  0.5362499779344598  0.1171224555789149  1.0000
  S   S114      1.0  0.1676932264682858  0.9335551227757031  0.16355795030653922  1.0000
  Fe  Fe58      1.0  0.24161394234568237  0.5370968147556158  0.21045872657895598  1.0000
  S   S115      1.0  0.28176425834010316  0.5856024826723445  0.17344556969267333  1.0000
  S   S116      1.0  0.24597735231891613  0.5496826468159732  0.2615888117272665  1.0000
  Fe  Fe59      1.0  0.23682061728806772  0.570384673417158  0.1439334661468155  1.0000
  S   S117      1.0  0.233875390210911  0.6179498471962539  0.12395524162803541  1.0000
  Fe  Fe60      1.0  0.2892724041773323  0.5481756836505428  0.15022239058344034  1.0000
  S   S118      1.0  0.34178188690836075  0.5535104563980054  0.14371887830852656  1.0000
  S   S119      1.0  0.19633954064369508  0.5241704979655304  0.18245716311457225  1.0000
  S   S120      1.0  0.25112000883040564  0.500050596334921  0.18929497548479837  1.0000
  Fe  Fe61      1.0  0.229811832842075  0.46473142003164786  0.4435720237432292  1.0000
  S   S121      1.0  0.2640523379583591  0.5208778633385767  0.4544960339393975  1.0000
  S   S122      1.0  0.2185433881996146  0.44769818841279857  0.3942952162945185  1.0000
  Fe  Fe62      1.0  0.20169620078024492  0.9162695284286856  0.5082369303982368  1.0000
  S   S123      1.0  0.2202633424457574  0.967587503249845  0.5276496880720435  1.0000
  S   S124      1.0  0.16576060298011436  0.8604929696378608  0.5404383601047518  1.0000
  Fe  Fe63      1.0  0.22230778629736261  0.5014532006559442  0.49667439513326583  1.0000
  S   S125      1.0  0.21128390828224117  0.5407952038678091  0.5126841637070797  1.0000
  Fe  Fe64      1.0  0.2878315604744691  0.4992247860441551  0.48785705915703437  1.0000
  S   S126      1.0  0.34845254546640964  0.5355241380373963  0.4819012801343592  1.0000
  S   S127      1.0  0.1736534752084808  0.9275618566966177  0.47144850877600336  1.0000
  S   S128      1.0  0.25115094883218747  0.9411191770497913  0.4729782789490278  1.0000
  C   C97       1.0  0.23891368543817137  0.5207841575476689  0.29786417261905884  1.0000
  C   C98       1.0  0.25003172273467156  0.5357088689626283  0.3260473509580442  1.0000
  C   C99       1.0  0.244100196714348  0.5137758833609077  0.3557974719827162  1.0000
  C   C100      1.0  0.22770905287665114  0.47666979247773106  0.3573760517621985  1.0000
  C   C101      1.0  0.2173638190835661  0.4617860992612477  0.32901162526474553  1.0000
  C   C102      1.0  0.22261846165845287  0.4836798643681179  0.29938955217772445  1.0000
  H   H65       1.0  0.2632586743564049  0.5644521865536246  0.3248431921062353  1.0000
  H   H66       1.0  0.25184632872618895  0.5255960733285765  0.37746326466908375  1.0000
  H   H67       1.0  0.20456839981060193  0.4330330057644807  0.330075246954618  1.0000
  H   H68       1.0  0.2138174054825127  0.47180851731064466  0.2778567316682352  1.0000
  C   C103      1.0  0.058181691255261986  0.5965549291350499  0.707143485320091  1.0000
  C   C104      1.0  0.08109787396385078  0.5857722879160465  0.7049746136960418  1.0000
  C   C105      1.0  0.09433638290885009  0.5794918870199381  0.7329793429693194  1.0000
  C   C106      1.0  0.0850780568186997  0.5842099039221039  0.7633108980711987  1.0000
  C   C107      1.0  0.062319956206535576  0.5951842946788755  0.765419187426536  1.0000
  C   C108      1.0  0.048927781291098926  0.6012467773829028  0.7374826688088212  1.0000
  H   H69       1.0  0.08846659535303303  0.5820839142584598  0.6818029677859386  1.0000
  H   H70       1.0  0.11188020546045357  0.5709385555293223  0.7311225665377322  1.0000
  H   H71       1.0  0.05494058369488324  0.5989112272092183  0.788573066186116  1.0000
  H   H72       1.0  0.031223762149376007  0.6096036485963766  0.7394176419514775  1.0000
  C   C109      1.0  0.37800711412849564  0.5412668551920536  0.5105608119315199  1.0000
  C   C110      1.0  0.36653869329642147  0.5190479638957223  0.541051857199934  1.0000
  C   C111      1.0  0.39125411372338575  0.5241268193232423  0.5625825416854715  1.0000
  C   C112      1.0  0.42761152319464996  0.5514282838772625  0.5539188191578804  1.0000
  C   C113      1.0  0.43905026363478916  0.5737854392412872  0.5235220561476149  1.0000
  C   C114      1.0  0.41437036486536577  0.568641550088277  0.5019622045831243  1.0000
  H   H73       1.0  0.3386763533310643  0.49784818130511493  0.5479759968789094  1.0000
  H   H74       1.0  0.38209146153388995  0.5066935091359298  0.5860559403565107  1.0000
  H   H75       1.0  0.4668310270212013  0.5953020089346789  0.5167767209197252  1.0000
  H   H76       1.0  0.42348163492083235  0.5862053538379967  0.47855916437983026  1.0000
  C   C115      1.0  0.10932204787216014  0.5334589310637062  0.5391003266244346  1.0000
  C   C116      1.0  0.10733591830785175  0.5045587794121689  0.5278395642328465  1.0000
  C   C117      1.0  0.1382461997748015  0.5066714966101589  0.5187179287265807  1.0000
  C   C118      1.0  0.17149755848167691  0.5374085322427825  0.5215883691758244  1.0000
  C   C119      1.0  0.17344845926230926  0.5662424335755476  0.532886845530476  1.0000
  C   C120      1.0  0.1425825217695578  0.5644233867871162  0.5414196255083203  1.0000
  H   H77       1.0  0.08169899067717756  0.48066815002282853  0.5255722983624427  1.0000
  H   H78       1.0  0.13631708140887072  0.48467599149056606  0.5092805447958514  1.0000
  H   H79       1.0  0.1990595732128693  0.5901763943696452  0.5351354068980371  1.0000
  H   H80       1.0  0.1445430206659198  0.5868994981412218  0.5499416277657264  1.0000
  C   C121      1.0  0.148206534655649  0.7512428606474622  0.5341051384395604  1.0000
  C   C122      1.0  0.12133724615165617  0.7526549384649783  0.5485085516224903  1.0000
  C   C123      1.0  0.1272823223836006  0.7863407200054888  0.5504075467721385  1.0000
  C   C124      1.0  0.15982033978153395  0.8189448777315982  0.5372798707736546  1.0000
  C   C125      1.0  0.1865775603516597  0.8175314715292192  0.5225586585580932  1.0000
  C   C126      1.0  0.1807578295758318  0.7838273998069566  0.5210033763827584  1.0000
  H   H81       1.0  0.09593604041803495  0.7277972171156666  0.558036117553966  1.0000
  H   H82       1.0  0.10638366057950616  0.7871703946512629  0.5617622083302302  1.0000
  H   H83       1.0  0.21198716593972128  0.8423940429618888  0.5129608454594876  1.0000
  H   H84       1.0  0.20175732357390228  0.7829763362676408  0.5099440612138504  1.0000
  C   C127      1.0  0.45443268280379734  0.8713882793096523  0.9254333584667678  1.0000
  C   C128      1.0  0.4834091855365243  0.8787398624939249  0.9413137701589621  1.0000
  C   C129      1.0  0.5106482568302029  0.9146508553917362  0.9433168839120624  1.0000
  C   C130      1.0  0.5094698540327407  0.943629726953547  0.9291523138580486  1.0000
  C   C131      1.0  0.48062432825246965  0.9363480975604146  0.9130122976963281  1.0000
  C   C132      1.0  0.45314972981702484  0.9003129163170281  0.9112720523540416  1.0000
  H   H85       1.0  0.484976225419126  0.8568423208255993  0.9519313174654156  1.0000
  H   H86       1.0  0.936326124160181  0.8952813285500886  0.9349476050900478  1.0000
  H   H87       1.0  0.4794149384386323  0.9584536855089492  0.90206790434689  1.0000
  H   H88       1.0  0.4308329322729728  0.8949131717278509  0.8989381978693879  1.0000
  C   C133      1.0  0.49438464962889206  0.6945679860518604  0.9318490027992626  1.0000
  C   C134      1.0  0.4649035407379595  0.6596653186050863  0.9447105179561532  1.0000
  C   C135      1.0  0.4662244716411362  0.6295775853726756  0.9436349385506685  1.0000
  C   C136      1.0  0.49698021355053756  0.6340665247817064  0.9297954666136875  1.0000
  C   C137      1.0  0.5265269923268403  0.6690107981970252  0.9171577905832283  1.0000
  C   C138      1.0  0.5252085351693708  0.6990831536939202  0.9182241729128812  1.0000
  H   H89       1.0  0.44100051262322915  0.6557935381797858  0.9552718392784245  1.0000
  H   H90       1.0  0.4432010346107939  0.602664698972162  0.9534764568642695  1.0000
  H   H91       1.0  0.9863019674731486  0.593329893287791  0.9324937852059668  1.0000
  H   H92       1.0  0.5481129228250434  0.7259783645561307  0.9081461394068376  1.0000
  C   C139      1.0  0.21393241911387503  0.6409178309913584  0.9409873236212652  1.0000
  C   C140      1.0  0.221641589518683  0.6193066803638629  0.9271413213414101  1.0000
  C   C141      1.0  0.2533609160276065  0.6224775164085146  0.9318806778756569  1.0000
  C   C142      1.0  0.2778925762664674  0.6477144067283703  0.9498944919210858  1.0000
  C   C143      1.0  0.27076842113976257  0.6702210137255912  0.9626808360439423  1.0000
  C   C144      1.0  0.23892502928289527  0.6667768011502234  0.9582645783961942  1.0000
  H   H93       1.0  0.202610781564902  0.5992506508103369  0.91385032372797  1.0000
  H   H94       1.0  0.2586837954564936  0.6048981583180132  0.9219434560151198  1.0000
  H   H95       1.0  0.28919815357867845  0.6893844598444727  0.9769568938421536  1.0000
  H   H96       1.0  0.23305627344466612  0.6834633004869555  0.969226739431782  1.0000
  C   C145      1.0  0.3884442276147337  0.6924482702884809  0.16351513195841078  1.0000
  C   C146      1.0  0.42038878527863877  0.726782044836912  0.15958310296935826  1.0000
  C   C147      1.0  0.4367274553168246  0.7470239111305158  0.12821558715506165  1.0000
  C   C148      1.0  0.42130935097005295  0.7331045472949789  0.10061582541417231  1.0000
  C   C149      1.0  0.3898232522009081  0.6985266458254967  0.10454213027326302  1.0000
  C   C150      1.0  0.3735231958986801  0.6783191603978181  0.13586860022347336  1.0000
  H   H97       1.0  0.43209015020336117  0.7379982507414169  0.18068493737566613  1.0000
  H   H98       1.0  0.4611107149578581  0.7737895974057215  0.12536804352855735  1.0000
  H   H99       1.0  0.3777747215889122  0.6873710019407905  0.08351833564580172  1.0000
  H   H100      1.0  0.3489941033290446  0.6516962068830946  0.13861437843991567  1.0000
  C   C151      1.0  0.4555898319546299  0.6381553881111035  0.09243279523335664  1.0000
  C   C152      1.0  0.4473899565807193  0.6080233726820137  0.11466021660676677  1.0000
  C   C153      1.0  0.41233371449082573  0.5823666301367518  0.12965864301204566  1.0000
  C   C154      1.0  0.38514393864947777  0.5868340015105589  0.1232933746155285  1.0000
  C   C155      1.0  0.3933332347952565  0.6170404519816498  0.10112895886655057  1.0000
  C   C156      1.0  0.42827313059932637  0.642257305552079  0.0853999349040436  1.0000
  H   H101      1.0  0.46795179595221503  0.6042334583488395  0.12009074549121715  1.0000
  H   H102      1.0  0.4062144382680737  0.5588248684163564  0.14636218209905608  1.0000
  H   H103      1.0  0.3726989902102506  0.6207876125107297  0.09581705646710716  1.0000
  H   H104      1.0  0.43406428404065955  0.665333346193417  0.0682086656490989  1.0000
  C   C157      1.0  0.14601114587972475  0.6350409353997527  0.10337021067530541  1.0000
  C   C158      1.0  0.13751760690093018  0.5997179858779175  0.11103190598107945  1.0000
  C   C159      1.0  0.1635114827288677  0.5937453133676442  0.11922923384284727  1.0000
  C   C160      1.0  0.19873192264666803  0.6231774272995616  0.11850529130145628  1.0000
  C   C161      1.0  0.20701978073142052  0.6583918179710414  0.11140957590439694  1.0000
  C   C162      1.0  0.18082789045163683  0.6643108779752205  0.10430014786696669  1.0000
  H   H105      1.0  0.1106983709229297  0.5768394711621233  0.11036401725348487  1.0000
  H   H106      1.0  0.15644975256264984  0.566428266542528  0.12509219869568916  1.0000
  H   H107      1.0  0.23410786123319652  0.6813847272184409  0.1107511936924213  1.0000
  H   H108      1.0  0.1879827182807047  0.6916425800645452  0.09799257474410036  1.0000
  C   C163      1.0  0.15749317801946794  0.8479940071739663  0.10750129207406135  1.0000
  C   C164      1.0  0.12956055939930228  0.8396486217212294  0.12983555723539578  1.0000
  C   C165      1.0  0.13309920326042263  0.8661985788706151  0.14669156439668948  1.0000
  C   C166      1.0  0.16467663322019566  0.901206595775133  0.14167891792677031  1.0000
  C   C167      1.0  0.19258935844006805  0.9095916573180246  0.11929452000455676  1.0000
  C   C168      1.0  0.188846895615238  0.8831666910153386  0.10207863562442988  1.0000
  H   H109      1.0  0.10502556130969226  0.8129903695661728  0.13362210783874587  1.0000
  H   H110      1.0  0.11123621936772961  0.8597352775705002  0.16356285935756854  1.0000
  H   H111      1.0  0.21696388257995233  0.9364839846709342  0.11506290522698254  1.0000
  H   H112      1.0  0.2104709989160536  0.8899712664591076  0.08462410813435595  1.0000
  C   C169      1.0  0.07541202753862895  0.5846968449071954  0.23311678731112756  1.0000
  C   C170      1.0  0.05816715985544862  0.5901493335443897  0.25746152338825196  1.0000
  C   C171      1.0  0.05611885207636386  0.620002000515609  0.25252505851483903  1.0000
  C   C172      1.0  0.07092535445140281  0.6441648546059908  0.22303092979091965  1.0000
  C   C173      1.0  0.0877986291801896  0.6384138574308283  0.19866522520068622  1.0000
  C   C174      1.0  0.09002445432459422  0.6087643901335242  0.20364390545312233  1.0000
  H   H113      1.0  0.046082842514557534  0.5712612914730562  0.2800657594980914  1.0000
  H   H114      1.0  0.042867348588326644  0.6240765927084106  0.27146503534767463  1.0000
  H   H115      1.0  0.09959088414516672  0.6569039060981612  0.17592268117053908  1.0000
  H   H116      1.0  0.10331773017683672  0.6047164231944733  0.18468976483237654  1.0000
  C   C175      1.0  0.49904706065105736  0.8740629392563021  0.3610793055563002  1.0000
  C   C176      1.0  0.49897917300346645  0.8841048610939457  0.3281495228598271  1.0000
  C   C177      1.0  0.48888375283511193  0.859075245082438  0.30709012871317215  1.0000
  C   C178      1.0  0.4787169691840387  0.8237401655847131  0.31858288031304854  1.0000
  C   C179      1.0  0.47842720727310184  0.813468710090224  0.3516064140248972  1.0000
  C   C180      1.0  0.4883824499889333  0.8385242778219612  0.3728035861619932  1.0000
  H   H117      1.0  0.506748923347166  0.9112376205024214  0.31885326703249406  1.0000
  H   H118      1.0  0.4888574054700571  0.8671253832997148  0.28169063683309087  1.0000
  H   H119      1.0  0.4717797138816778  0.7867269759053546  0.36059498558591885  1.0000
  H   H120      1.0  0.48866376938353934  0.8306455410331203  0.39820781195270805  1.0000
  C   C181      1.0  0.49760991640879726  0.5808081277809427  0.3539075774475212  1.0000
  C   C182      1.0  0.49254087898076304  0.6057235498717795  0.3651463062969488  1.0000
  C   C183      1.0  0.47521006243942787  0.6188334268536327  0.3476393900118119  1.0000
  C   C184      1.0  0.46243677297856534  0.6068625469218243  0.3187943870010741  1.0000
  C   C185      1.0  0.46728535993549203  0.5818022905670489  0.3077242368889238  1.0000
  C   C186      1.0  0.4847547183748598  0.5688809939048417  0.32510355529495233  1.0000
  H   H121      1.0  0.502571241240575  0.615419090260654  0.38724256866036755  1.0000
  H   H122      1.0  0.472013945167187  0.6383487335503861  0.35636177312052664  1.0000
  H   H123      1.0  0.4577592943957903  0.5724372612273353  0.28537447963212864  1.0000
  H   H124      1.0  0.48823072241804044  0.5496258102511673  0.3161733439711287  1.0000
  C   C187      1.0  0.1956242105482822  0.5767209136047413  0.3748947569550322  1.0000
  C   C188      1.0  0.21484094355438035  0.5939164209125248  0.34376831896940113  1.0000
  C   C189      1.0  0.2523680027741708  0.6135204322051518  0.3395442449602232  1.0000
  C   C190      1.0  0.2705001778739196  0.6154518056229071  0.36643875274575566  1.0000
  C   C191      1.0  0.2509761789875706  0.5981440376325668  0.3971957221429116  1.0000
  C   C192      1.0  0.21404157738267307  0.5790237635422015  0.4013687428395986  1.0000
  H   H125      1.0  0.2234183277551963  0.04194483243117131  0.30595311034769224  1.0000
  H   H126      1.0  0.2671251897750117  0.6266629365491427  0.31559363009288405  1.0000
  H   H127      1.0  0.26445307489969005  0.5993691590616484  0.4181827911049532  1.0000
  H   H128      1.0  0.19970000057943682  0.5659429526492303  0.42552434467736455  1.0000
  Fe  Fe65      1.0  0.6052303690426866  0.03990243781108934  0.34669095677439116  1.0000
  S   S129      1.0  0.579095009127042  0.48614677054712957  0.32274932438753773  1.0000
  S   S130      1.0  0.6602814032214304  0.07782459539524232  0.3600851586467105  1.0000
  Fe  Fe66      1.0  0.0468437472224954  0.03865144334077991  0.33737020039945115  1.0000
  S   S131      1.0  0.012740234963732  0.4980880747979106  0.3188188955631298  1.0000
  S   S132      1.0  0.038241175497446545  0.0792429324267058  0.3545675980440154  1.0000
  Fe  Fe67      1.0  0.030083868491435295  0.4668259115674161  0.34849706483185083  1.0000
  S   S133      1.0  0.9988554640503217  0.4083336288328407  0.37451191205268564  1.0000
  Fe  Fe68      1.0  0.5525923449099913  0.008011015975833133  0.29868089641842577  1.0000
  S   S134      1.0  0.547641157613786  0.005060073173330508  0.24641365839284174  1.0000
  S   S135      1.0  0.050501396204529536  0.5054318526209907  0.3839534258030715  1.0000
  S   S136      1.0  0.5798402931701019  0.06109147357415447  0.3160642607332808  1.0000
  Fe  Fe69      1.0  0.5979870066172891  0.22593028135183257  0.1420922033840439  1.0000
  S   S137      1.0  0.5987646916988301  0.21188856256211  0.09239654966482125  1.0000
  S   S138      1.0  0.6376463235720853  0.27818731703372807  0.16004398685074647  1.0000
  Fe  Fe70      1.0  0.5372617714431467  0.1489088325422855  0.17026949486572224  1.0000
  S   S139      1.0  0.5331511767309963  0.1291092511279634  0.12358373211156043  1.0000
  S   S140      1.0  0.49981978133326915  0.10866143135340475  0.21331637848829305  1.0000
  Fe  Fe71      1.0  0.5926574107319761  0.16148788445202258  0.11828541535763841  1.0000
  S   S141      1.0  0.61400712557806  0.13114235991309933  0.09954480334963214  1.0000
  Fe  Fe72      1.0  0.539036632619485  0.1798654480489458  0.1025806742785674  1.0000
  S   S142      1.0  0.5032407498699597  0.17532390017699126  0.0651737061082186  1.0000
  S   S143      1.0  0.596065873030105  0.1776631481647777  0.16709951007955148  1.0000
  S   S144      1.0  0.5388805129608918  0.19783755803996503  0.14995866419284185  1.0000
  Fe  Fe73      1.0  0.8543968102955788  0.15661568461706513  0.28231648466666953  1.0000
  S   S145      1.0  0.8885984272929068  0.21727577493927297  0.2688135505987205  1.0000
  S   S146      1.0  0.7976462602442916  0.11860605478338848  0.27336738604892374  1.0000
  Fe  Fe74      1.0  0.9177141501230218  0.15193551462248206  0.29422132877811685  1.0000
  S   S147      1.0  0.9571358273555016  0.21245188697833137  0.2810690323155981  1.0000
  S   S148      1.0  0.9225043977230455  0.10429169817803513  0.30620677322772644  1.0000
  Fe  Fe75      1.0  0.9173493952551334  0.2155769658166259  0.31059282892827134  1.0000
  S   S149      1.0  0.9271688227636609  0.24550845023332807  0.3527730056892498  1.0000
  Fe  Fe76      1.0  0.9253731232080212  0.20983769659521445  0.2400513408759236  1.0000
  S   S150      1.0  0.9496206594987106  0.239340745388078  0.1881971003459495  1.0000
  S   S151      1.0  0.8797745160684788  0.15478643317968777  0.3263763749415304  1.0000
  S   S152      1.0  0.8894484436384489  0.14966834885203345  0.2507890214971087  1.0000
  Fe  Fe77      1.0  0.8849401281058128  0.21513309913639378  0.016232996609112347  1.0000
  S   S153      1.0  0.8609127786839134  0.17000586247925628  0.987915274486127  1.0000
  S   S154      1.0  0.8605274345936432  0.1923426050835475  0.06903668097029159  1.0000
  Fe  Fe78      1.0  0.9298597126643378  0.2700373614262889  0.9555650824894656  1.0000
  S   S155      1.0  0.9082109548495739  0.22770638268542262  0.9231342952768071  1.0000
  S   S156      1.0  0.9762745129812229  0.32730662635047836  0.9325626478295984  1.0000
  Fe  Fe79      1.0  0.8549558871548373  0.20544829376491622  0.950693909853695  1.0000
  S   S157      1.0  0.8028014500517955  0.1721991022052431  0.9294753701945285  1.0000
  Fe  Fe80      1.0  0.915494617587839  0.19495380448588986  0.9626875901000822  1.0000
  S   S158      1.0  0.9263835881906795  0.15184002988925285  0.9606060093670555  1.0000
  S   S159      1.0  0.875859388975923  0.2498977708273436  0.9804481538246692  1.0000
  S   S160      1.0  0.9401471012847477  0.23802863610670652  0.9938103949606971  1.0000
  Fe  Fe81      1.0  0.549919374294563  0.11397782856587986  0.6130513319749904  1.0000
  S   S161      1.0  0.5265518727616497  0.06402815775570336  0.5911567323745449  1.0000
  S   S162      1.0  0.5274056324552506  0.1066372140282092  0.6650376982516158  1.0000
  Fe  Fe82      1.0  0.5889800403490724  0.16232019875978795  0.5478236959163714  1.0000
  S   S163      1.0  0.5672315476683317  0.11508791973565391  0.5211319270505924  1.0000
  S   S164      1.0  0.6310332246546415  0.21910962889510555  0.5198063240347747  1.0000
  Fe  Fe83      1.0  0.5148487673771031  0.09182685871638932  0.5509281514560826  1.0000
  S   S165      1.0  0.9691909081259059  0.04271005042456609  0.5524849409936892  1.0000
  Fe  Fe84      1.0  0.579854995504434  0.08954309728985699  0.5627193430674869  1.0000
  S   S166      1.0  0.5916110600716104  0.046965005694552114  0.560779246637765  1.0000
  S   S167      1.0  0.5355303803082865  0.14114470871419532  0.5741377811398856  1.0000
  S   S168      1.0  0.6046639808620091  0.13786636351864448  0.5882432664803312  1.0000
  Fe  Fe85      1.0  0.6109313617119704  0.12163313874221936  0.90835562680144  1.0000
  S   S169      1.0  0.6069532726343426  0.08198931734356857  0.8790826368187026  1.0000
  S   S170      1.0  0.6599378536310235  0.16403272093903024  0.9290619983793659  1.0000
  Fe  Fe86      1.0  0.5336464670622807  0.09494785811236457  0.9036123378864848  1.0000
  S   S171      1.0  0.03359197065783737  0.05828558123393078  0.8652403569590713  1.0000
  S   S172      1.0  0.05025152401335453  0.15033899730016154  0.8895154876097101  1.0000
  Fe  Fe87      1.0  0.5537561617361382  0.040871500418214926  0.9082900434557463  1.0000
  S   S173      1.0  0.0030286203220197816  0.48001306113094017  0.9402831649220453  1.0000
  Fe  Fe88      1.0  0.5779144018661189  0.09715240985738013  0.8461816534826325  1.0000
  S   S174      1.0  0.6004841600142484  0.11064067800310277  0.7928555921981866  1.0000
  S   S175      1.0  0.5597941760412974  0.07974799591734401  0.9400886214806095  1.0000
  S   S176      1.0  0.5853359103324259  0.139920863261266  0.873892081640025  1.0000
  Fe  Fe89      1.0  0.705902769392024  0.9804502633808488  0.16279029493654706  1.0000
  S   S177      1.0  0.7515657926946455  0.032557607560343975  0.13190128897865852  1.0000
  S   S178      1.0  0.6717452542639766  0.4365098647778351  0.1254423615030348  1.0000
  Fe  Fe90      1.0  0.7217919536824314  0.012433066552009254  0.22485009715489118  1.0000
  S   S179      1.0  0.7684978755959175  0.06677684058107368  0.19935380646714002  1.0000
  S   S180      1.0  0.6981298168910154  0.9995613918726975  0.2771566608382623  1.0000
  Fe  Fe91      1.0  0.7339403182416802  0.06046982184858881  0.16013623968434573  1.0000
  S   S181      1.0  0.7333158498214614  0.10993951625930508  0.1423872106097726  1.0000
  Fe  Fe92      1.0  0.7828518146810645  0.03537295349673469  0.17343227493140975  1.0000
  S   S182      1.0  0.8360501798074795  0.041831355990307816  0.1717537862538818  1.0000
  S   S183      1.0  0.6867512345270164  0.008674374926959928  0.18755885761124597  1.0000
  S   S184      1.0  0.7379143691531262  0.9811014508025866  0.2020914335073244  1.0000
  Fe  Fe93      1.0  0.7420136493727532  0.9588846948424536  0.445864244874246  1.0000
  S   S185      1.0  0.7667327804435481  0.016235158262984696  0.45118929188810153  1.0000
  S   S186      1.0  0.7374681754335661  0.9373717938540777  0.39909074629161273  1.0000
  Fe  Fe94      1.0  0.6903078905657438  0.4212951713246637  0.49299468209975894  1.0000
  S   S187      1.0  0.7152680492414726  0.4506210445374622  0.5341925097608647  1.0000
  S   S188      1.0  0.6388454443161977  0.364996023759386  0.5053155252316635  1.0000
  Fe  Fe95      1.0  0.7203874458981755  0.9950884770719769  0.4890221815469046  1.0000
  S   S189      1.0  0.7026224833703303  0.03311085961312237  0.47996370382166925  1.0000
  Fe  Fe96      1.0  0.7929891481800732  0.006700023012468872  0.491477470666535  1.0000
  S   S190      1.0  0.8499640553594195  0.05425560541846982  0.49267190418320117  1.0000
  S   S191      1.0  0.6919163302215596  0.4679811152716246  0.46418864797798365  1.0000
  S   S192      1.0  0.7416809548232449  0.4364574079472259  0.4673222057146523  1.0000
  C   C193      1.0  0.7129319794571928  0.984278054979289  0.3090861063773373  1.0000
  C   C194      1.0  0.725695423857016  0.0036992489970449688  0.33462616806603923  1.0000
  C   C195      1.0  0.7331564829399952  0.9895570834114686  0.36247922266283944  1.0000
  C   C196      1.0  0.7281093935420672  0.9559545442685217  0.36478568832396996  1.0000
  C   C197      1.0  0.7158393398000121  0.9367811871024178  0.33902469001932056  1.0000
  C   C198      1.0  0.70814791449226  0.9508250253875288  0.31129050249625495  1.0000
  H   H129      1.0  0.7294405722552606  0.029626804787099874  0.3329454273075273  1.0000
  H   H130      1.0  0.7428855429074636  0.004701288797899703  0.3820573520102332  1.0000
  H   H131      1.0  0.7118180785702979  0.9107511621410821  0.34068742547302766  1.0000
  H   H132      1.0  0.6976775049085775  0.935377987469448  0.2919706206389605  1.0000
  C   C199      1.0  0.5479613774449192  0.10726329061851746  0.7003205893721641  1.0000
  C   C200      1.0  0.5819173866918875  0.11480322269770703  0.69856563108916  1.0000
  C   C201      1.0  0.5974416085306357  0.11554575227242955  0.727152540185411  1.0000
  C   C202      1.0  0.5791770062832973  0.10854007452035427  0.7577967440035774  1.0000
  C   C203      1.0  0.5451161381190167  0.10075876589741221  0.7595826043471375  1.0000
  C   C204      1.0  0.5296669821822023  0.10023068042868988  0.7309651604567535  1.0000
  H   H133      1.0  0.5962761852514578  0.12019764096650479  0.6751929152164019  1.0000
  H   H134      1.0  0.6237453760187479  0.12149516688965967  0.7254727985444308  1.0000
  H   H135      1.0  0.5307927873784283  0.09538906516064855  0.7829633355930734  1.0000
  H   H136      1.0  0.5034351048483258  0.09445613873562388  0.7326094028370373  1.0000
  C   C205      1.0  0.8823522794740812  0.05056541662149209  0.5105278402044038  1.0000
  C   C206      1.0  0.9158218483886289  0.08225199880483149  0.5119532134266052  1.0000
  C   C207      1.0  0.9425575027806691  0.08044509299020894  0.5252767668112884  1.0000
  C   C208      1.0  0.9361202124868653  0.0468033875078758  0.5370055645734939  1.0000
  C   C209      1.0  0.9026244442465784  0.015137195452121718  0.5357573959789622  1.0000
  C   C210      1.0  0.8758153809629171  0.01696873090861044  0.5226941617891481  1.0000
  H   H137      1.0  0.9211177336277637  0.10837244631278162  0.5025840318867116  1.0000
  H   H138      1.0  0.9682062083933425  0.10506095929712898  0.5260609551424195  1.0000
  H   H139      1.0  0.8973822501511556  0.9889685847056278  0.5447765350931077  1.0000
  H   H140      1.0  0.850180808340504  0.9923886137251513  0.5217726541656343  1.0000
  C   C211      1.0  0.6235907547774825  0.04460872974017262  0.5383472522553736  1.0000
  C   C212      1.0  0.6454675628830048  0.06992879168536668  0.5106676444065265  1.0000
  C   C213      1.0  0.6695073764304609  0.06599564489566027  0.49322743994418217  1.0000
  C   C214      1.0  0.67236532941047  0.037059378249079594  0.5034142581454235  1.0000
  C   C215      1.0  0.6504658059172405  0.01173886487211374  0.5310260749426295  1.0000
  C   C216      1.0  0.6261264676991437  0.015412919694210093  0.548204390687391  1.0000
  H   H141      1.0  0.6437858610745187  0.09243754588683205  0.5026350849877097  1.0000
  H   H142      1.0  0.6861143287770327  0.08565617043370041  0.47177515416704935  1.0000
  H   H143      1.0  0.6521461961750254  0.9892483133010734  0.5391530314932311  1.0000
  H   H144      1.0  0.609279147145536  0.9955820717242763  0.5694995154486133  1.0000
  C   C217      1.0  0.63145698070051  0.2586951434603066  0.5152699633156267  1.0000
  C   C218      1.0  0.605510216221989  0.2599950222087845  0.5319263982593647  1.0000
  C   C219      1.0  0.6079203704108816  0.29262985475242764  0.5284304589434456  1.0000
  C   C220      1.0  0.6364791097707508  0.3243371590347139  0.5086630803514185  1.0000
  C   C221      1.0  0.6622837568874669  0.32295095711718946  0.4918797753420095  1.0000
  C   C222      1.0  0.659647599637012  0.29027366049917347  0.49505595628850696  1.0000
  H   H145      1.0  0.5836594708607175  0.23590619291143286  0.5475324896692764  1.0000
  H   H146      1.0  0.5876749635456038  0.2933428654092476  0.541342171219469  1.0000
  H   H147      1.0  0.6839861128069551  0.3469000581955448  0.47604143594077974  1.0000
  H   H148      1.0  0.6796511206750018  0.28942770466425616  0.48182861630579477  1.0000
  C   C223      1.0  0.9832311882302806  0.3693881813594484  0.9356340046742753  1.0000
  C   C224      1.0  0.9577331655852797  0.3715988967513317  0.9519138506972127  1.0000
  C   C225      1.0  0.9643587255308192  0.4056918369368081  0.9533446606834077  1.0000
  C   C226      1.0  0.9964955275728883  0.4378747777039348  0.9386444893080383  1.0000
  C   C227      1.0  0.02206838003320577  0.4356867685152985  0.922506204643599  1.0000
  C   C228      1.0  0.0153613077391761  0.4016102575506076  0.9208900966592594  1.0000
  H   H149      1.0  0.9329085971820771  0.3470705227381572  0.9633312587400159  1.0000
  H   H150      1.0  0.5481645580982875  0.4263580424649709  0.9327376172726802  1.0000
  H   H151      1.0  0.04710680543239465  0.4602217671781328  0.9115545851582333  1.0000
  H   H152      1.0  0.03532979758363153  0.4001511159408959  0.9084371858809818  1.0000
  C   C229      1.0  0.9616223949520082  0.15255987361284135  0.940988919312222  1.0000
  C   C230      1.0  0.9606611886246061  0.12077823749282099  0.9459028143392901  1.0000
  C   C231      1.0  0.9876488707612122  0.11964822200793793  0.9306026443824164  1.0000
  C   C232      1.0  0.015916922233770725  0.15036349654523493  0.9100779412492674  1.0000
  C   C233      1.0  0.017070584534440547  0.18224663440144992  0.9053560120139342  1.0000
  C   C234      1.0  0.9901176104377453  0.183403882291743  0.9207441224154266  1.0000
  H   H153      1.0  0.9387122057322471  0.0967284342171629  0.9614382089481642  1.0000
  H   H154      1.0  0.9863177776850333  0.09490670077788692  0.9344254056661521  1.0000
  H   H155      1.0  0.5417074662485161  0.17502264193935277  0.9046898162673713  1.0000
  H   H156      1.0  0.9912300736969857  0.20802811401500587  0.916749100733248  1.0000
  C   C235      1.0  0.6995360868451524  0.16605756579059452  0.9291572295035339  1.0000
  C   C236      1.0  0.7013449214743144  0.13836253375530974  0.920560997987871  1.0000
  C   C237      1.0  0.7332585919554552  0.14094901894993656  0.9206633321999901  1.0000
  C   C238      1.0  0.7636852651620498  0.17105598636164995  0.9295559156987178  1.0000
  C   C239      1.0  0.761956907644247  0.19884506130028567  0.9380792857375264  1.0000
  C   C240      1.0  0.7299821237824404  0.19626178571496  0.9379624327210793  1.0000
  H   H157      1.0  0.6780499765083248  0.11475239696807034  0.9141457578100772  1.0000
  H   H158      1.0  0.7342870047236774  0.11925588916113244  0.9141012187250759  1.0000
  H   H159      1.0  0.785303657814412  0.22246580166263435  0.9444082401343993  1.0000
  H   H160      1.0  0.7288881988060453  0.21791713892543965  0.9445122872755434  1.0000
  C   C241      1.0  0.9237855049003842  0.2265885234689334  0.1556960198652208  1.0000
  C   C242      1.0  0.9368257574447342  0.25018179884704705  0.12564205440569046  1.0000
  C   C243      1.0  0.918186899748449  0.23982277311428993  0.09863554757106635  1.0000
  C   C244      1.0  0.8858007798773957  0.20605604778536363  0.10174176300791174  1.0000
  C   C245      1.0  0.872282668874293  0.18289532895541577  0.13198263104624822  1.0000
  C   C246      1.0  0.8912355140183581  0.19296724784574448  0.15881490392188044  1.0000
  H   H161      1.0  0.9614291492536333  0.27666370476137503  0.12329433617179006  1.0000
  H   H162      1.0  0.9284398541567956  0.2582308385216814  0.07563513565720481  1.0000
  H   H163      1.0  0.8473413881323815  0.1566444825423342  0.1344717866911101  1.0000
  H   H164      1.0  0.8811221276370544  0.17430570336707804  0.18161528805109822  1.0000
  C   C247      1.0  0.95014719151816  0.1376993757367076  0.12970427825238678  1.0000
  C   C248      1.0  0.9422054772233031  0.10327492709954023  0.1411046082956313  1.0000
  C   C249      1.0  0.907492447061865  0.07457516364792623  0.15519075914965494  1.0000
  C   C250      1.0  0.8802150526417367  0.07978084072759273  0.15775266433023  1.0000
  C   C251      1.0  0.8884840178919629  0.1144074622857894  0.14752320180273268  1.0000
  C   C252      1.0  0.9231079330792155  0.1430759585750392  0.1333071611397107  1.0000
  H   H165      1.0  0.9624654262346392  0.09838718894372052  0.13809847574708747  1.0000
  H   H166      1.0  0.9014841088843266  0.04786421762488176  0.1630108602674942  1.0000
  H   H167      1.0  0.8678519786501097  0.11875500117084173  0.14979997312969617  1.0000
  H   H168      1.0  0.9288269241068614  0.1694966335762861  0.12454192813606667  1.0000
  C   C253      1.0  0.6438450520390528  0.1228157386266969  0.11739035564489539  1.0000
  C   C254      1.0  0.6733969457369067  0.14958901479872583  0.12997816568210838  1.0000
  C   C255      1.0  0.6997108646675878  0.14449975957878733  0.1389292488444543  1.0000
  C   C256      1.0  0.6964490419596385  0.11218070453789122  0.1363920516594238  1.0000
  C   C257      1.0  0.6661277345921596  0.08471426033354944  0.12516690490617127  1.0000
  C   C258      1.0  0.6403369308073215  0.09029576015051888  0.11521995590918332  1.0000
  H   H169      1.0  0.6768246403781897  0.17497284400531993  0.13128645558045166  1.0000
  H   H170      1.0  0.7231042302519461  0.16622554222016003  0.14707422015570193  1.0000
  H   H171      1.0  0.6633475568281475  0.059899075946931994  0.12257686946306026  1.0000
  H   H172      1.0  0.6178105305333961  0.06953383040116366  0.1051921426762318  1.0000
  C   C259      1.0  0.6468060684179773  0.32195499997764404  0.14925375275604344  1.0000
  C   C260      1.0  0.6274047306869256  0.32891664860977743  0.12848475066219492  1.0000
  C   C261      1.0  0.6356050403379173  0.3642108677090231  0.12106701820492932  1.0000
  C   C262      1.0  0.6632071446010477  0.39281357875773687  0.1343041343981351  1.0000
  C   C263      1.0  0.6825900868255351  0.3857814605538239  0.15494914528928483  1.0000
  C   C264      1.0  0.6743082788533233  0.35055964433407577  0.16246942573174225  1.0000
  H   H173      1.0  0.6061986686093498  0.307143591915277  0.11816380222159979  1.0000
  H   H174      1.0  0.62050741181806  0.3694028435129779  0.10501069815682743  1.0000
  H   H175      1.0  0.7041471930276372  0.4074819228045239  0.16502355684770853  1.0000
  H   H176      1.0  0.6895868973143615  0.34549637603857924  0.17841175077205615  1.0000
  C   C265      1.0  0.5299747705732627  0.029498267540611623  0.23474012513661205  1.0000
  C   C266      1.0  0.5044706431216005  0.027248660849603732  0.2560541793447671  1.0000
  C   C267      1.0  0.4936276423591614  0.05027395837885628  0.24860480720600173  1.0000
  C   C268      1.0  0.5088690012879229  0.0760342588819363  0.22014045680466804  1.0000
  C   C269      1.0  0.5337731358860801  0.07767861950440634  0.1985494647358162  1.0000
  C   C270      1.0  0.544046925273069  0.05418064496926044  0.20565329427747178  1.0000
  H   H177      1.0  0.49318795660655645  0.007925313851501662  0.2783806324977868  1.0000
  H   H178      1.0  0.4744511243232551  0.04896791669969288  0.265398745922911  1.0000
  H   H179      1.0  0.5461754374813523  0.09772702778916814  0.17677894967873087  1.0000
  H   H180      1.0  0.5641288789033928  0.05638012136340981  0.18930043598337273  1.0000
  C   C271      1.0  0.980056277652639  0.3643591271198128  0.3651376437645592  1.0000
  C   C272      1.0  0.9805949555077306  0.35689951401259057  0.3336109174404809  1.0000
  C   C273      1.0  0.964576868173686  0.32062776450939756  0.32878812951530334  1.0000
  C   C274      1.0  0.9482021409173622  0.291962031157717  0.35551764238706757  1.0000
  C   C275      1.0  0.9481201420423315  0.29990901003657494  0.3866694845341861  1.0000
  C   C276      1.0  0.9637675531400708  0.3355635046700759  0.3913995782478361  1.0000
  H   H181      1.0  0.9930495659917749  0.37887207010956647  0.31306468645304575  1.0000
  H   H182      1.0  0.9648764463589815  0.31490653651841644  0.30456013872794585  1.0000
  H   H183      1.0  0.9357125916647056  0.27823732843507504  0.4074759979335424  1.0000
  H   H184      1.0  0.9630965772630461  0.34082888078247575  0.4157775561398316  1.0000
  C   C277      1.0  0.008248985269728948  0.08789816469286808  0.33768114438511215  1.0000
  C   C278      1.0  0.9790423913398771  0.06171683783204748  0.32432737652955385  1.0000
  C   C279      1.0  0.953405876083187  0.06748922643916143  0.31464467431051807  1.0000
  C   C280      1.0  0.9566885142802795  0.09963069085253809  0.3178282634194683  1.0000
  C   C281      1.0  0.9862659240053122  0.1262520559729203  0.33053655100101437  1.0000
  C   C282      1.0  0.01182442087436919  0.12032910105365167  0.34046674778828834  1.0000
  H   H185      1.0  0.9757020825581316  0.03656428978893731  0.32217174453990965  1.0000
  H   H186      1.0  0.9307422998921675  0.04668199641339027  0.304824053149546  1.0000
  H   H187      1.0  0.989248059003968  0.1511605447466434  0.3331616202766403  1.0000
  H   H188      1.0  0.03437111747865251  0.140897031057694  0.35061427425627173  1.0000
  C   C283      1.0  0.6984183372247107  0.09001911503819066  0.33527477465509553  1.0000
  C   C284      1.0  0.6959031596821152  0.07701851468514788  0.30632627161764986  1.0000
  C   C285      1.0  0.7266984414291416  0.08650812889429749  0.2874832112694279  1.0000
  C   C286      1.0  0.7601232205505082  0.10870022203299845  0.297519223347239  1.0000
  C   C287      1.0  0.7627644984325133  0.12210448331514467  0.3262860234793353  1.0000
  C   C288      1.0  0.731919496053599  0.11266139027178908  0.34516918626934834  1.0000
  H   H189      1.0  0.7183793449385392  0.5437909003754854  0.3504646328139729  1.0000
  H   H190      1.0  0.7245300812721259  0.07623559655431524  0.2651328507910519  1.0000
  H   H191      1.0  0.788477591615917  0.13973388354638774  0.33388730123674926  1.0000
  H   H192      1.0  0.7339557466041986  0.12297125071427728  0.36747610978328277  1.0000
  Fe  Fe97      1.0  0.6038657895200078  0.5284009083888503  0.3544016856167473  1.0000
  S   S193      1.0  0.5825154397533961  0.9895805320456996  0.3250277686790438  1.0000
  S   S194      1.0  0.6565861488316006  0.5416434359382905  0.36905800840972475  1.0000
  Fe  Fe98      1.0  0.03838245294539888  0.5393876651945014  0.35145986238917304  1.0000
  S   S195      1.0  0.0036861387050413086  0.9905509965326419  0.318344072876278  1.0000
  S   S196      1.0  0.021876629034232487  0.5734701977326939  0.3701690875706002  1.0000
  Fe  Fe99      1.0  0.025472539883106382  0.9606093531572217  0.3414373969640191  1.0000
  S   S197      1.0  0.9893197651528284  0.9018944904650955  0.36648030329057657  1.0000
  Fe  Fe100     1.0  0.5633238288516519  0.5203907689755641  0.2972440778125373  1.0000
  S   S198      1.0  0.5714881737009617  0.5358753054212573  0.24350834962128412  1.0000
  S   S199      1.0  0.0652448928702718  0.006994800559010361  0.3652333116144437  1.0000
  S   S200      1.0  0.5923838588965754  0.5650834025753634  0.32589736712115314  1.0000
  Fe  Fe101     1.0  0.623730877794932  0.7479026475432528  0.10458605484522168  1.0000
  S   S201      1.0  0.6019651312293619  0.7099750788758042  0.06831463170882517  1.0000
  S   S202      1.0  0.6677591889410347  0.8079707854096171  0.09449726908473789  1.0000
  Fe  Fe102     1.0  0.5785206324691188  0.6870850352922553  0.16039765595220742  1.0000
  S   S203      1.0  0.5521520235466041  0.6443128417016224  0.1296643413375138  1.0000
  S   S204      1.0  0.56459469167095  0.671169018335397  0.21396750378337703  1.0000
  Fe  Fe103     1.0  0.6073841166882383  0.6720443014377228  0.10404676421509292  1.0000
  S   S205      1.0  0.6218619399919069  0.6341708663463228  0.09106498018846522  1.0000
  Fe  Fe104     1.0  0.548622698820899  0.6848262392620594  0.09730970610552168  1.0000
  S   S206      1.0  0.49974463353877224  0.6715768050555402  0.0738735179566552  1.0000
  S   S207      1.0  0.633793615367134  0.7122376743537622  0.13736771384504823  1.0000
  S   S208      1.0  0.5703592920251871  0.7256641076064424  0.13065427126658555  1.0000
  Fe  Fe105     1.0  0.8600026597022894  0.671913230201124  0.29288742426108133  1.0000
  S   S209      1.0  0.9059709138102936  0.7250329289775768  0.26400766099600304  1.0000
  S   S210      1.0  0.8090949868817654  0.6692877653034283  0.2961699165576202  1.0000
  Fe  Fe106     1.0  0.9046170161845181  0.6422941875424342  0.3039791796181928  1.0000
  S   S211      1.0  0.9531575062287911  0.6927206187986638  0.27622141927698535  1.0000
  S   S212      1.0  0.9027094060097292  0.5914218412493935  0.3211038737446545  1.0000
  Fe  Fe107     1.0  0.9380365891492447  0.7234017892412449  0.3021772893789969  1.0000
  S   S213      1.0  0.9867603505883366  0.7754630153032225  0.3126852116104209  1.0000
  Fe  Fe108     1.0  0.9182281148631587  0.6915209677016225  0.23992678575425083  1.0000
  S   S214      1.0  0.9439105294670757  0.7104920998564331  0.18789555066660074  1.0000
  S   S215      1.0  0.8913733166537094  0.672545065458833  0.33350016841289065  1.0000
  S   S216      1.0  0.8700573847309178  0.6384580539899695  0.26533593664991345  1.0000
  Fe  Fe109     1.0  0.8806555131341182  0.7079525636749326  0.0214440647590871  1.0000
  S   S217      1.0  0.8597460025542151  0.6657900539922575  0.9900167161385843  1.0000
  S   S218      1.0  0.8516393439010554  0.6869525058984253  0.07243563578847828  1.0000
  Fe  Fe110     1.0  0.9360079195377689  0.7665878368995097  0.9671395916443193  1.0000
  S   S219      1.0  0.91899742615192  0.7281710752383475  0.9312931085400213  1.0000
  S   S220      1.0  0.986438868842822  0.8242513419984103  0.9567691608022089  1.0000
  Fe  Fe111     1.0  0.8632922157140048  0.7070844286035424  0.95168261471783  1.0000
  S   S221      1.0  0.817904345159694  0.68256281525895  0.9209385803199717  1.0000
  Fe  Fe112     1.0  0.9163603785615839  0.6892233054168541  0.9721869710071804  1.0000
  S   S222      1.0  0.9257618733178273  0.6450721066248001  0.9715278763731966  1.0000
  S   S223      1.0  0.8804229529201626  0.7483858658925853  0.984437186709693  1.0000
  S   S224      1.0  0.9370261788731093  0.7285242138274827  0.006852223214263244  1.0000
  Fe  Fe113     1.0  0.5780150750140995  0.6115076150905492  0.6130357582386691  1.0000
  S   S225      1.0  0.5428392737205758  0.564974396774042  0.5880564397690528  1.0000
  S   S226      1.0  0.5790894877773841  0.5852176665077428  0.6623437475300464  1.0000
  Fe  Fe114     1.0  0.5906505934770576  0.6658880268394304  0.5542309749094853  1.0000
  S   S227      1.0  0.5557703007992856  0.6219194069477403  0.5256306434764839  1.0000
  S   S228      1.0  0.611784699190482  0.7219506625751437  0.5256408600672549  1.0000
  Fe  Fe115     1.0  0.5179132585532853  0.5935127426590271  0.5715754961870494  1.0000
  S   S229      1.0  0.9680979783877619  0.5952716292616811  0.5356525923111624  1.0000
  Fe  Fe116     1.0  0.5833562782869056  0.5965211711185565  0.5445156084342527  1.0000
  S   S230      1.0  0.5914556948144657  0.5617030662450797  0.5161285822261114  1.0000
  S   S231      1.0  0.5505598602694205  0.6385609115063688  0.599346879619354  1.0000
  S   S232      1.0  0.6208716512307179  0.6419171585379149  0.5699900525845343  1.0000
  Fe  Fe117     1.0  0.6235782809200059  0.6272450791606914  0.9085741950894161  1.0000
  S   S233      1.0  0.6229233314870548  0.59704423761152  0.8699957720867693  1.0000
  S   S234      1.0  0.6719450581370878  0.6676205418682969  0.931059860591425  1.0000
  Fe  Fe118     1.0  0.5449044575592273  0.5981735416419384  0.9071619100459225  1.0000
  S   S235      1.0  0.03763076921035102  0.5627559765374217  0.8725552743962306  1.0000
  S   S236      1.0  0.05635196503044715  0.655171259895005  0.9007542001077784  1.0000
  Fe  Fe119     1.0  0.5700387309615251  0.5501790170098237  0.8972054326982057  1.0000
  S   S237      1.0  0.9944906917938464  0.9700766983949092  0.9238533757941022  1.0000
  Fe  Fe120     1.0  0.5913497606290737  0.6145802354563698  0.8447609712681448  1.0000
  S   S238      1.0  0.6080716308536362  0.6474978445005533  0.7938003587854953  1.0000
  S   S239      1.0  0.5729730971352847  0.5797004324273534  0.9375319057028351  1.0000
  S   S240      1.0  0.5955453307145572  0.6481888330111898  0.8817470134243284  1.0000
  Fe  Fe121     1.0  0.7107773561007829  0.4835558357707603  0.14986008278370894  1.0000
  S   S241      1.0  0.7563007322142928  0.5395749864273003  0.12479745289853347  1.0000
  S   S242      1.0  0.6598035748083522  0.9273362417820233  0.15090352643352464  1.0000
  Fe  Fe122     1.0  0.7213371445761132  0.5046981857915109  0.21710176195888883  1.0000
  S   S243      1.0  0.7682226756509583  0.5613948005814512  0.197932049578054  1.0000
  S   S244      1.0  0.6908097945485004  0.4806578963240374  0.26763369416263977  1.0000
  Fe  Fe123     1.0  0.7356307016688269  0.5607511054872268  0.15857837691274826  1.0000
  S   S245      1.0  0.735180399471402  0.6113781948808643  0.15026148351543797  1.0000
  Fe  Fe124     1.0  0.7854736836665173  0.5363331810639624  0.16577592216629305  1.0000
  S   S246      1.0  0.8393288413956386  0.5448417903783236  0.1608087964078479  1.0000
  S   S247      1.0  0.6880309609229521  0.5052922687639799  0.17962299569468926  1.0000
  S   S248      1.0  0.7408040077182833  0.47914667231781516  0.18876180122100836  1.0000
  Fe  Fe125     1.0  0.7455777908007868  0.48545687760070344  0.4420859503133753  1.0000
  S   S249      1.0  0.7746400611512035  0.5191119038061818  0.4795097343427899  1.0000
  S   S250      1.0  0.7732090004906584  0.5140401913568352  0.3912774743947484  1.0000
  Fe  Fe126     1.0  0.72479350331237  0.9323540962719107  0.5182523330360855  1.0000
  S   S251      1.0  0.748081446656654  0.9885188326549036  0.5297939935971478  1.0000
  S   S252      1.0  0.7056230079780141  0.8822286467668388  0.5560584085687716  1.0000
  Fe  Fe127     1.0  0.7205478127730568  0.4983081009283735  0.5036295154549835  1.0000
  S   S253      1.0  0.7160390522774541  0.5398762740061263  0.5241585415069666  1.0000
  Fe  Fe128     1.0  0.7671916154894363  0.46917565044483917  0.5064944267930201  1.0000
  S   S254      1.0  0.8086485256335557  0.4636825013668313  0.5289366240342768  1.0000
  S   S255      1.0  0.6934790441611443  0.9374222289020597  0.4805888401796561  1.0000
  S   S256      1.0  0.772023500302238  0.9506334054677499  0.4829049637089016  1.0000
  C   C289      1.0  0.7142007835392868  0.4896095867691079  0.30171909037343125  1.0000
  C   C290      1.0  0.6954011664128004  0.47155788754786393  0.3328361211095164  1.0000
  C   C291      1.0  0.7132066384900443  0.47833861176612114  0.3605010443057617  1.0000
  C   C292      1.0  0.749962821854649  0.5035334058462628  0.3571648442546806  1.0000
  C   C293      1.0  0.7687424253995317  0.5215055929115344  0.3260526918869903  1.0000
  C   C294      1.0  0.7509631488357519  0.5145368486355184  0.2983968277898783  1.0000
  H   H193      1.0  0.6670172854003109  0.4522937134446227  0.33548303968237986  1.0000
  H   H194      1.0  0.6985799891529676  0.46443955640755175  0.3843693956008449  1.0000
  H   H195      1.0  0.797193508907502  0.5410381776304773  0.32330237694630054  1.0000
  H   H196      1.0  0.7657435702886599  0.5285966789519131  0.274576462676483  1.0000
  C   C295      1.0  0.5862744464286511  0.6029377895944001  0.6986314622095479  1.0000
  C   C296      1.0  0.5995112759248101  0.63914765290091  0.6987713687174442  1.0000
  C   C297      1.0  0.6056659902663509  0.6522729477514276  0.7282346551011654  1.0000
  C   C298      1.0  0.5982485008531117  0.6292605645681265  0.7577255774941659  1.0000
  C   C299      1.0  0.5843756050538674  0.5928880712517457  0.7576081107238394  1.0000
  C   C300      1.0  0.5786194564469925  0.5798582673623969  0.7281161081014927  1.0000
  H   H197      1.0  0.605605056994767  0.6571976521533598  0.6762073757029187  1.0000
  H   H198      1.0  0.6164365142777847  0.6804760214232304  0.7281783545225299  1.0000
  H   H199      1.0  0.5786479390183161  0.5749740444940401  0.7801757346885729  1.0000
  H   H200      1.0  0.5683376258321687  0.551777315688242  0.7282229539327563  1.0000
  C   C301      1.0  0.8524457149257284  0.5005683090798667  0.5320692940456853  1.0000
  C   C302      1.0  0.8766080255075156  0.49355739285771033  0.5437579539906302  1.0000
  C   C303      1.0  0.9119696541170595  0.5221356940203394  0.5454989448178853  1.0000
  C   C304      1.0  0.9236031907609139  0.5580838046346372  0.5353148925029705  1.0000
  C   C305      1.0  0.8993810369205505  0.5650212962911701  0.5236321790199623  1.0000
  C   C306      1.0  0.8639521356491401  0.5365047264979803  0.5222888900480157  1.0000
  H   H201      1.0  0.8680427043656488  0.46588641363345756  0.5514179586291471  1.0000
  H   H202      1.0  0.9302952058374359  0.5163740089667991  0.5544866472610497  1.0000
  H   H203      1.0  0.9080630850714815  0.5927313362228253  0.515884058980356  1.0000
  H   H204      1.0  0.8455681954062644  0.5423823523685682  0.513809356230432  1.0000
  C   C307      1.0  0.6270400171879423  0.5570381309361693  0.5173392828749094  1.0000
  C   C308      1.0  0.6249138245072458  0.5292092200266049  0.5038145273775988  1.0000
  C   C309      1.0  0.6519365004261867  0.5235644323337386  0.5055999676459311  1.0000
  C   C310      1.0  0.6813667062754066  0.5457877388892693  0.5209547148355202  1.0000
  C   C311      1.0  0.6837678306506187  0.5739976246937577  0.5339986393680208  1.0000
  C   C312      1.0  0.6567983130462554  0.5796939321404636  0.5321286545826149  1.0000
  H   H205      1.0  0.6021014469483905  0.5117357260733342  0.4920766870129481  1.0000
  H   H206      1.0  0.6498744590577507  0.5019296584629737  0.49526097182119644  1.0000
  H   H207      1.0  0.7066791825119849  0.5915949375651199  0.5455745550598082  1.0000
  H   H208      1.0  0.65902576398021  0.6016028292701392  0.5420862150803598  1.0000
  C   C313      1.0  0.6344329398517492  0.7650299671040259  0.537566280305249  1.0000
  C   C314      1.0  0.654379274966419  0.7730238887696714  0.5635791021646188  1.0000
  C   C315      1.0  0.6752484398607503  0.808858784909214  0.5695758057905721  1.0000
  C   C316      1.0  0.6765404212315814  0.837019851731016  0.5495810637579472  1.0000
  C   C317      1.0  0.655642491370792  0.8287391692039805  0.52430074936256  1.0000
  C   C318      1.0  0.6347236592971031  0.7929467564625151  0.5183903682787232  1.0000
  H   H209      1.0  0.6544587665119058  0.7518563487681448  0.5785462435012294  1.0000
  H   H210      1.0  0.6910901982039476  0.8149446065925665  0.5893854612816577  1.0000
  H   H211      1.0  0.6557528350875251  0.8499567744735046  0.5092071571885562  1.0000
  H   H212      1.0  0.618888450474432  0.786860019328087  0.4985783306639727  1.0000
  C   C319      1.0  0.988123250737667  0.8645278739046018  0.9480198931081598  1.0000
  C   C320      1.0  0.9576254531160407  0.8637009627625234  0.9446197940218464  1.0000
  C   C321      1.0  0.9601325300827489  0.896279917516697  0.9374166240705742  1.0000
  C   C322      1.0  0.9930655842212286  0.9300421713191389  0.9335195910740571  1.0000
  C   C323      1.0  0.023593164063630878  0.9309260555608355  0.9370485619125667  1.0000
  C   C324      1.0  0.021108592721505115  0.8983180733399352  0.9441036919282084  1.0000
  H   H213      1.0  0.9320821278977869  0.8379577858009926  0.9476021682205701  1.0000
  H   H214      1.0  0.5330201553885243  0.9201361295523058  0.9556198278732653  1.0000
  H   H215      1.0  0.049053928163654836  0.9566786447075322  0.9345667136240671  1.0000
  H   H216      1.0  0.04484570220289119  0.8992610655520872  0.9468330441645226  1.0000
  C   C325      1.0  0.9617912559411748  0.6484392850423196  0.950554105719677  1.0000
  C   C326      1.0  0.9922827219841723  0.6817431641125471  0.935813417254926  1.0000
  C   C327      1.0  0.020725201177649755  0.6831566092994019  0.9202811956464816  1.0000
  C   C328      1.0  0.018904255066492626  0.6513697942905324  0.9191097430066528  1.0000
  C   C329      1.0  0.9882377405519122  0.618020150643088  0.9335714273612481  1.0000
  C   C330      1.0  0.9599738812139007  0.6166350714803561  0.9494745152708219  1.0000
  H   H217      1.0  0.9939994001595016  0.7063888776806806  0.9364544167397817  1.0000
  H   H218      1.0  0.04432722812457257  0.7090713039484093  0.9090842668483636  1.0000
  H   H219      1.0  0.5503809975341842  0.6729161873590067  0.906492724712084  1.0000
  H   H220      1.0  0.936403122844311  0.5907291444567943  0.9606666903106659  1.0000
  C   C331      1.0  0.7116941059744207  0.6701089773295082  0.930009744603646  1.0000
  C   C332      1.0  0.7145819904700321  0.6444777753375116  0.9179279273055623  1.0000
  C   C333      1.0  0.7472569257739801  0.6485833939855936  0.9155857364623119  1.0000
  C   C334      1.0  0.7771162134577306  0.6777811313592472  0.9260423493662698  1.0000
  C   C335      1.0  0.7740791562563281  0.7030741770299478  0.9386922633914996  1.0000
  C   C336      1.0  0.741477992202073  0.6992033972721167  0.9406831891083864  1.0000
  H   H221      1.0  0.6917733493312201  0.6217406405162373  0.9099576296297033  1.0000
  H   H222      1.0  0.749416185967094  0.628964956811946  0.9056313942233416  1.0000
  H   H223      1.0  0.7970961636204054  0.7261439619215869  0.9460608439111923  1.0000
  H   H224      1.0  0.7394933933595341  0.7192369049195857  0.9499677543905504  1.0000
  C   C337      1.0  0.9178856977092839  0.7027766674210697  0.15597593855023578  1.0000
  C   C338      1.0  0.8818075380248869  0.6747467914278802  0.16024721709376533  1.0000
  C   C339      1.0  0.8616487531594297  0.669935066284128  0.13439324870901362  1.0000
  C   C340      1.0  0.8776331848687898  0.6927522670367238  0.10409645472739783  1.0000
  C   C341      1.0  0.9138041113199719  0.7204896694475599  0.09978271426998077  1.0000
  C   C342      1.0  0.9338345088078924  0.7254199020467043  0.12565653043632488  1.0000
  H   H225      1.0  0.8696311781062848  0.6564465482542139  0.18325404537155668  1.0000
  H   H226      1.0  0.8337536604424245  0.6480987590037736  0.13767838463342558  1.0000
  H   H227      1.0  0.9262289810398322  0.7384480955016435  0.07664578900854088  1.0000
  H   H228      1.0  0.9617090996375076  0.7471156343566331  0.12233832611455121  1.0000
  C   C343      1.0  0.9480218522833694  0.6385689128588043  0.10603924881328285  1.0000
  C   C344      1.0  0.9434304760163569  0.6077489089719466  0.12387083545517533  1.0000
  C   C345      1.0  0.9099005472064037  0.5792861449318679  0.14033382897406316  1.0000
  C   C346      1.0  0.88082844505427  0.5816600410966662  0.13975538321167064  1.0000
  C   C347      1.0  0.8854034906443329  0.6124180435736134  0.1218577119011752  1.0000
  C   C348      1.0  0.9187634112960742  0.6405578531723172  0.10476391490513157  1.0000
  H   H229      1.0  0.9654973167934204  0.6054150905135265  0.12422466169439829  1.0000
  H   H230      1.0  0.9064135789958666  0.5552208130442754  0.15356099099993661  1.0000
  H   H231      1.0  0.8630634026840514  0.6141659962294901  0.120670891299528  1.0000
  H   H232      1.0  0.9218590659611937  0.6638984598314779  0.09040043326453723  1.0000
  C   C349      1.0  0.6512739245164569  0.6265865977873519  0.11076793762271138  1.0000
  C   C350      1.0  0.6791628288853626  0.6532204446099044  0.12504587975066142  1.0000
  C   C351      1.0  0.704325974875357  0.6479103976434584  0.13722998426125205  1.0000
  C   C352      1.0  0.7015601663062474  0.6156307480673698  0.13600624353957463  1.0000
  C   C353      1.0  0.6730722792425724  0.5884909903967591  0.12268233607122105  1.0000
  C   C354      1.0  0.6483244681546092  0.5941497569008051  0.10982368508200886  1.0000
  H   H233      1.0  0.6819940335739242  0.6784269958484381  0.1256780642306955  1.0000
  H   H234      1.0  0.7262761092485619  0.6692055352612813  0.14729089459079864  1.0000
  H   H235      1.0  0.6704837060717977  0.5634767371285103  0.1215616117747614  1.0000
  H   H236      1.0  0.6269079374309291  0.5733802345709393  0.09878035610037075  1.0000
  C   C355      1.0  0.665115268784467  0.8410980305029527  0.1098064010708243  1.0000
  C   C356      1.0  0.6325526410191188  0.8347203801326571  0.12002380662187873  1.0000
  C   C357      1.0  0.6314752737373303  0.8614679036246291  0.13248176309260573  1.0000
  C   C358      1.0  0.6628563661146475  0.8947863089935525  0.13497929323410499  1.0000
  C   C359      1.0  0.695438638964796  0.9011441542745557  0.12489062798053474  1.0000
  C   C360      1.0  0.6965094347818012  0.8744820344289409  0.11213891607265794  1.0000
  H   H237      1.0  0.608186751699259  0.8093998195485853  0.11794532786267743  1.0000
  H   H238      1.0  0.6061685558682552  0.85644730023078  0.14004139155396436  1.0000
  H   H239      1.0  0.719772370034598  0.9267514582975152  0.12653022024751284  1.0000
  H   H240      1.0  0.7218206887880843  0.8797691001350014  0.10405873093296955  1.0000
  C   C361      1.0  0.5692410702024996  0.5731977198223042  0.23560084211585142  1.0000
  C   C362      1.0  0.5542761035510985  0.5812404435968844  0.25972456533615373  1.0000
  C   C363      1.0  0.553403297133485  0.6117818061960703  0.2534775916534336  1.0000
  C   C364      1.0  0.5674310582269355  0.634177383202092  0.2230820609129727  1.0000
  C   C365      1.0  0.5829487483473769  0.6263662870524843  0.19928720652061258  1.0000
  C   C366      1.0  0.5836228833615081  0.5958277530978913  0.20539999090818672  1.0000
  H   H241      1.0  0.5428293434955545  0.563669628246325  0.2830630158499256  1.0000
  H   H242      1.0  0.5414855509685818  0.6177129986815264  0.27201006308580683  1.0000
  H   H243      1.0  0.5945909626677156  0.6436818543895985  0.17601781586561382  1.0000
  H   H244      1.0  0.595446326583603  0.5898998683682108  0.18673540536199085  1.0000
  C   C367      1.0  0.9878459475470724  0.8675498285719626  0.3489649137559712  1.0000
  C   C368      1.0  0.0176319854750302  0.8744984332922342  0.33055340339089473  1.0000
  C   C369      1.0  0.016698410239839312  0.8461267733447337  0.3192453770726466  1.0000
  C   C370      1.0  0.9857140110184153  0.8106842348223918  0.3253730104533374  1.0000
  C   C371      1.0  0.9556001526195458  0.8038554597958768  0.3430329721076013  1.0000
  C   C372      1.0  0.9568750710884243  0.8320701924653432  0.35519008751579023  1.0000
  H   H245      1.0  0.041721076118772515  0.9014980073835642  0.32578556085940075  1.0000
  H   H246      1.0  0.040160611718488504  0.8516527518963469  0.3057631343527692  1.0000
  H   H247      1.0  0.9316985619358649  0.776644063996569  0.34821138004276514  1.0000
  H   H248      1.0  0.9337960587371044  0.8263601498682014  0.3695892008448679  1.0000
  C   C373      1.0  0.9916173526297174  0.5804925177707932  0.3517809355618607  1.0000
  C   C374      1.0  0.994040550799688  0.6125018769074533  0.35357578547661483  1.0000
  C   C375      1.0  0.9681669125660762  0.6172543815409007  0.3424223355107944  1.0000
  C   C376      1.0  0.9388863631656195  0.5894043989454203  0.33044082780351713  1.0000
  C   C377      1.0  0.9368300595292677  0.5577310769074518  0.3280325143522627  1.0000
  C   C378      1.0  0.9632760361906392  0.5534740131140664  0.3382058309515061  1.0000
  H   H249      1.0  0.01572708773884779  0.6334605332179429  0.36422706771869984  1.0000
  H   H250      1.0  0.9699988114044624  0.6416898041214947  0.34462291636662873  1.0000
  H   H251      1.0  0.9142857124830703  0.535996652994644  0.31883147366153913  1.0000
  H   H252      1.0  0.960941400691407  0.5286141105740317  0.3368567066852757  1.0000
  C   C379      1.0  0.6978910052567066  0.5763035209092141  0.34616899535079865  1.0000
  C   C380      1.0  0.724217108259066  0.5701574288265483  0.3414416474446584  1.0000
  C   C381      1.0  0.7582375020365838  0.5980072624358707  0.32543124660121475  1.0000
  C   C382      1.0  0.766348605969683  0.6325227549288398  0.3145459359514669  1.0000
  C   C383      1.0  0.7398613186390333  0.6385535269437886  0.3188258143245405  1.0000
  C   C384      1.0  0.7058885001191454  0.6106952454330649  0.3347660471449484  1.0000
  H   H253      1.0  0.6702749686477399  0.059492790069383794  0.2984818779075279  1.0000
  H   H254      1.0  0.7783067630598507  0.5928920172572767  0.3221538694752254  1.0000
  H   H255      1.0  0.7459295695824973  0.6652135706208386  0.3105826646807785  1.0000
  H   H256      1.0  0.6860517474981762  0.6159864870533975  0.3388016631406795  1.0000
  N   N1        1.0  0.43090780890103114  0.8461244417423999  0.03727011002129932  1.0000
  C   C385      1.0  0.4633986565800187  0.8483092126239151  0.028217722788723254  1.0000
  C   C386      1.0  0.4397006895307557  0.8757409435718954  0.054943808447212916  1.0000
  C   C387      1.0  0.40476917230587517  0.8108250952569946  0.05825573639950088  1.0000
  C   C388      1.0  0.41587526703419075  0.8496771492353894  0.007596287919276357  1.0000
  H   H257      1.0  0.45772875369334326  0.8266868710040772  0.014398126518029963  1.0000
  H   H258      1.0  0.47499281155904066  0.844770172464452  0.05003164087389389  1.0000
  H   H259      1.0  0.48395062450822884  0.8748004231010682  0.012757228341625071  1.0000
  H   H260      1.0  0.4157865491589779  0.8749691124115683  0.06212308923478038  1.0000
  H   H261      1.0  0.4512048273108786  0.8739192258778785  0.0774347292908284  1.0000
  H   H262      1.0  0.4594000669352936  0.9027458935813927  0.0396995820013899  1.0000
  H   H263      1.0  0.37990730473324286  0.8081502476473311  0.06578604082045114  1.0000
  H   H264      1.0  0.4154528421725508  0.8068993621637357  0.08063926444264946  1.0000
  H   H265      1.0  0.39754651657779144  0.7879030143852845  0.045607825845352945  1.0000
  H   H266      1.0  0.3911448330443117  0.8478710322448743  0.013389238199908782  1.0000
  H   H267      1.0  0.4093397191062431  0.8280005774715712  0.9934381449736517  1.0000
  H   H268      1.0  0.4348780792160794  0.8760974956142097  0.9912363092670923  1.0000
  N   N2        1.0  0.33735361311467643  0.5375297694075367  0.24336067127841704  1.0000
  C   C389      1.0  0.3371508398317534  0.514539246882237  0.2212763032295608  1.0000
  C   C390      1.0  0.37066899031193196  0.5549210133766409  0.25802003989874  1.0000
  C   C391      1.0  0.3069126027306975  0.514939214068576  0.26912796458041316  1.0000
  C   C392      1.0  0.3345371866080637  0.5656740414478796  0.22506149621653268  1.0000
  H   H269      1.0  0.31299524658892597  0.5020237080113451  0.20876256289810818  1.0000
  H   H270      1.0  0.3380007512631196  0.49225218718695585  0.23445052777935327  1.0000
  H   H271      1.0  0.3602101726476347  0.5305570419590026  0.20189225340623693  1.0000
  H   H272      1.0  0.3718225382128588  0.5727023558263961  0.27455504531553837  1.0000
  H   H273      1.0  0.3736126978720617  0.5345625226612345  0.2722790577329047  1.0000
  H   H274      1.0  0.3941195470761628  0.5720077793261549  0.23916315117104958  1.0000
  H   H275      1.0  0.30812177739767826  0.49366051819740286  0.2839980662136418  1.0000
  H   H276      1.0  0.2814877117201187  0.5009988293524814  0.25854270640122406  1.0000
  H   H277      1.0  0.3056165092276366  0.5316377513764869  0.28559679634082547  1.0000
  H   H278      1.0  0.3552046787459509  0.5816375574796632  0.20375488793924676  1.0000
  H   H279      1.0  0.33625519608946036  0.5847222390135455  0.24038571373552417  1.0000
  H   H280      1.0  0.30880360266346046  0.5535591509621096  0.21551200770302936  1.0000
  N   N3        1.0  0.09149188596853278  0.18460403982713025  0.7920258380091603  1.0000
  C   C393      1.0  0.08645736752592667  0.2070109615378458  0.7672284113091417  1.0000
  C   C394      1.0  0.1090613952885425  0.20519333604375148  0.8180500916189642  1.0000
  C   C395      1.0  0.11372846072082296  0.17491233379039064  0.7768469616222191  1.0000
  C   C396      1.0  0.056619640173578865  0.151297724776896  0.805984987169316  1.0000
  H   H281      1.0  0.0732577903061212  0.19220501671004675  0.7472131725961019  1.0000
  H   H282      1.0  0.1122369854520404  0.23240264047750364  0.7561663717897624  1.0000
  H   H283      1.0  0.06967865123304724  0.21467369735595543  0.7778912141377965  1.0000
  H   H284      1.0  0.11335949219201905  0.1890799115717244  0.8370801329109363  1.0000
  H   H285      1.0  0.13531276561712385  0.2307323159551412  0.8085073441625461  1.0000
  H   H286      1.0  0.09261553187822374  0.21225915838013398  0.8305105042120011  1.0000
  H   H287      1.0  0.11675095614213457  0.1565444967307682  0.7944668175237327  1.0000
  H   H288      1.0  0.14076034197283466  0.19926981528931798  0.7672568702034724  1.0000
  H   H289      1.0  0.10201642929060133  0.16072869165154688  0.7561687640891366  1.0000
  H   H290      1.0  0.05947930826154655  0.13315889354365085  0.8240141550732235  1.0000
  H   H291      1.0  0.04192890198221008  0.1357696693865783  0.7869439685971303  1.0000
  H   H292      1.0  0.03970581627513037  0.1575135753857813  0.8189278199769575  1.0000
  N   N4        1.0  0.9315692758810139  0.05515628845468523  0.6433876889899698  1.0000
  C   C397      1.0  0.9514528978529024  0.08771404632409685  0.6585879874683834  1.0000
  C   C398      1.0  0.9535011235388021  0.04147117611591655  0.6383377960519815  1.0000
  C   C399      1.0  0.922846087838631  0.06457047948770289  0.6117826437731072  1.0000
  C   C400      1.0  0.8985353508219243  0.02685036049036671  0.6647924389184786  1.0000
  H   H293      1.0  0.9358830052351267  0.09898589746354869  0.6626690163283862  1.0000
  H   H294      1.0  0.9767302704205142  0.10948217710527386  0.6431582847005761  1.0000
  H   H295      1.0  0.9587049468197507  0.08164303295701925  0.6824127646727832  1.0000
  H   H296      1.0  0.9612967258685471  0.03473825802660224  0.6615422770593972  1.0000
  H   H297      1.0  0.939520223417794  0.01696545182521514  0.6267542826067044  1.0000
  H   H298      1.0  0.9783886476492301  0.06206172760014139  0.6220654112916992  1.0000
  H   H299      1.0  0.9472509687740319  0.08533495704340255  0.5947949684792565  1.0000
  H   H300      1.0  0.906747427875256  0.07553165837958531  0.6144237159048959  1.0000
  H   H301      1.0  0.907477946008692  0.040486075969567326  0.5998355551534558  1.0000
  H   H302      1.0  0.8829660177838629  0.0019226174532345208  0.6539497607612469  1.0000
  H   H303      1.0  0.8812948747200059  0.03624323735775259  0.6690657843637554  1.0000
  H   H304      1.0  0.9042237817049422  0.019097737623392064  0.6888370439310422  1.0000
  N   N5        1.0  0.18747297052097833  0.5957211045661385  0.23243089088885605  1.0000
  C   C401      1.0  0.17970185702457986  0.6172289065653879  0.2499491429663813  1.0000
  C   C402      1.0  0.22605555294659174  0.6127205443912107  0.22826317958833314  1.0000
  C   C403      1.0  0.17515448169277947  0.5943737827962428  0.20021263930969316  1.0000
  C   C404      1.0  0.16894347691751843  0.5585975175233379  0.2511876422145223  1.0000
  H   H305      1.0  0.15073435955359793  0.6049830211828409  0.25335280996139875  1.0000
  H   H306      1.0  0.19299980990911414  0.6452898148798815  0.23631240126579106  1.0000
  H   H307      1.0  0.18861893778982597  0.6189199292047703  0.2743747245759723  1.0000
  H   H308      1.0  0.2363486605336378  0.6136648835894774  0.25204493768010594  1.0000
  H   H309      1.0  0.23269935810772147  0.5972610582733449  0.21477911468147035  1.0000
  H   H310      1.0  0.2409743649034488  0.6407797886636117  0.2142122278416002  1.0000
  H   H311      1.0  0.14610583243774178  0.5813357059626144  0.2021737796267237  1.0000
  H   H312      1.0  0.18090043477276452  0.5787659195269504  0.18606672702853178  1.0000
  H   H313      1.0  0.18832226024369225  0.6219811315207647  0.18560920763140235  1.0000
  H   H314      1.0  0.1775794180423349  0.5586511134945654  0.275662781631689  1.0000
  H   H315      1.0  0.17447496470466772  0.5417203354397211  0.2388462640961231  1.0000
  H   H316      1.0  0.13971885858362842  0.5447751075132963  0.2543407106395458  1.0000
  N   N6        1.0  0.48886444490910314  0.5332437924652826  0.4745469590226534  1.0000
  C   C405      1.0  0.5266359508018106  0.5475347534363646  0.46736350317097897  1.0000
  C   C406      1.0  0.4671191841410803  0.5012338386076178  0.4590183439060122  1.0000
  C   C407      1.0  0.48350616804476587  0.5614285202878789  0.46170362647039476  1.0000
  C   C408      1.0  0.47818036776499645  0.5228018236689811  0.5100330466090477  1.0000
  H   H317      1.0  0.5439699018031764  0.5720160274281793  0.47825569779090715  1.0000
  H   H318      1.0  0.5355534172775096  0.5553835299001938  0.440799629516221  1.0000
  H   H319      1.0  0.5318563681483557  0.5271922129553096  0.4769780679423667  1.0000
  H   H320      1.0  0.4384383919991628  0.48971514047792347  0.4638973942576287  1.0000
  H   H321      1.0  0.47446310982213236  0.5083054499623966  0.43218412859693806  1.0000
  H   H322      1.0  0.470785285498509  0.4795486448439395  0.46791197835544074  1.0000
  H   H323      1.0  0.49171419476222444  0.5702557791068995  0.43509033962080756  1.0000
  H   H324      1.0  0.49933068414954307  0.58589310688782  0.47305836235673376  1.0000
  H   H325      1.0  0.4551930604588418  0.5513525716018683  0.4661842976121557  1.0000
  H   H326      1.0  0.49383532869472774  0.5463903642825595  0.5224768197977209  1.0000
  H   H327      1.0  0.48223374125717555  0.5018698052253056  0.520666636258878  1.0000
  H   H328      1.0  0.4497804293176494  0.5118848668738646  0.5163296186936406  1.0000
  N   N7        1.0  0.468687972412911  0.6647961021752169  0.19074300722308463  1.0000
  C   C409      1.0  0.4337005162236644  0.6524833274215072  0.2065597659950229  1.0000
  C   C410      1.0  0.47116433227712884  0.6336137722406595  0.19248356534793382  1.0000
  C   C411      1.0  0.4968243337916075  0.6921206161322475  0.20748559882761186  1.0000
  C   C412      1.0  0.47262620638218694  0.6809080481858113  0.15657194290554097  1.0000
  H   H329      1.0  0.41200659660938543  0.6316827178814949  0.19459541887791504  1.0000
  H   H330      1.0  0.43075442452002083  0.6751994371201911  0.20445199718268028  1.0000
  H   H331      1.0  0.4295006261435746  0.6410589138547418  0.23264884277914022  1.0000
  H   H332      1.0  0.49693178875760063  0.6417102274484661  0.1799423831594832  1.0000
  H   H333      1.0  0.46929265063638936  0.6218232977904182  0.21812849313214167  1.0000
  H   H334      1.0  0.4497114372287371  0.6118467318726827  0.18113459855592043  1.0000
  H   H335      1.0  0.5235123191861721  0.7016603415400225  0.19611329927987234  1.0000
  H   H336      1.0  0.4942164377668754  0.6806868530381819  0.23345511551862855  1.0000
  H   H337      1.0  0.495910042736477  0.7161153267405818  0.20681858083025734  1.0000
  H   H338      1.0  0.49583660442921085  0.6856946523372541  0.14197935404691486  1.0000
  H   H339      1.0  0.4753231538582995  0.707025641622106  0.1545107116480909  1.0000
  H   H340      1.0  0.44888786234138583  0.6629444363976066  0.14489569055156418  1.0000
  N   N8        1.0  0.5903169395172768  0.41262595471507957  0.4060992715520454  1.0000
  C   C413      1.0  0.6148704834601184  0.4520484688156369  0.40515322447059876  1.0000
  C   C414      1.0  0.558065235666743  0.3980119177936358  0.42877090466776113  1.0000
  C   C415      1.0  0.607790451300732  0.394780924155182  0.41712384183992085  1.0000
  C   C416      1.0  0.5804252745729058  0.40575962637266455  0.3732986443398421  1.0000
  H   H341      1.0  0.6022764949310792  0.4662383340833022  0.397417942979579  1.0000
  H   H342      1.0  0.6392262412794895  0.46433527220290866  0.38769839642388376  1.0000
  H   H343      1.0  0.6233546418695627  0.4584059000371161  0.42934236103784057  1.0000
  H   H344      1.0  0.5444547370698549  0.41120680253678377  0.4212388989135966  1.0000
  H   H345      1.0  0.5385643561572944  0.36843283499551593  0.4295635175000963  1.0000
  H   H346      1.0  0.5643646279734501  0.40232177549781334  0.45387489029047234  1.0000
  H   H347      1.0  0.6153851257911382  0.39917684032138817  0.4419555087775772  1.0000
  H   H348      1.0  0.6323799795259971  0.40540083775041386  0.40066025628761487  1.0000
  H   H349      1.0  0.5900473784747222  0.3649929314907007  0.418007841867628  1.0000
  H   H350      1.0  0.5611582994246892  0.37633383025577327  0.37312815133299887  1.0000
  H   H351      1.0  0.6039303266033925  0.4161009180139668  0.35546840269595165  1.0000
  H   H352      1.0  0.5676274935558678  0.4193229165645409  0.3642580058942033  1.0000
  N   N9        1.0  0.6754591746215366  0.5715411217091146  0.2428393070116631  1.0000
  C   C417      1.0  0.7118846294618856  0.5817390470810958  0.24483486726311587  1.0000
  C   C418      1.0  0.6763856235999605  0.6037821259424399  0.22940465276378055  1.0000
  C   C419      1.0  0.6552843806860934  0.5561509796544231  0.2755494252628547  1.0000
  C   C420      1.0  0.6579090144993432  0.5441809665429671  0.2217288916924587  1.0000
  H   H353      1.0  0.7119070012834978  0.5578157287418012  0.254861667196955  1.0000
  H   H354      1.0  0.7256002897990055  0.6019567656949015  0.2610068263744767  1.0000
  H   H355      1.0  0.7279216773721304  0.5934271714598457  0.22053151679720076  1.0000
  H   H356      1.0  0.6491240922018776  0.5966464249391017  0.2275262668860345  1.0000
  H   H357      1.0  0.689008731964717  0.6248434018025357  0.24495598082753242  1.0000
  H   H358      1.0  0.6913473336836271  0.6159540842447246  0.2046411338917086  1.0000
  H   H359      1.0  0.6272862904264549  0.5461979089236046  0.2745155614781111  1.0000
  H   H360      1.0  0.665698634228479  0.5767104697008174  0.29142455895690406  1.0000
  H   H361      1.0  0.6559455310887446  0.5331948549715114  0.28745557530792004  1.0000
  H   H362      1.0  0.6562788626135305  0.5192821016286069  0.23153147501736906  1.0000
  H   H363      1.0  0.6722799892800261  0.5549201677242713  0.19671102780258695  1.0000
  H   H364      1.0  0.6303789077225797  0.535981494842295  0.21965713271568282  1.0000
  N   N10       1.0  0.3800056006653142  0.13540894565302553  0.8952208869188701  1.0000
  C   C421      1.0  0.3600886615833929  0.14944513378595703  0.8814566833383829  1.0000
  C   C422      1.0  0.36920358271311426  0.1019640875451811  0.8829706314801911  1.0000
  C   C423      1.0  0.37220501060526506  0.12722330364139092  0.9309943207402418  1.0000
  C   C424      1.0  0.41841677486602213  0.16286930267072716  0.8854759641794189  1.0000
  H   H365      1.0  0.3676219034312469  0.17468418045518572  0.890187950911962  1.0000
  H   H366      1.0  0.3310162643122233  0.12965847927648133  0.8887670834168796  1.0000
  H   H367      1.0  0.3649932854707629  0.15570857176516414  0.8544989443898062  1.0000
  H   H368      1.0  0.3837695885888152  0.09065852857748437  0.8929509188838859  1.0000
  H   H369      1.0  0.340378232144946  0.08064482575751959  0.8899633596116754  1.0000
  H   H370      1.0  0.37473537160927145  0.1071082732925228  0.8560489478800584  1.0000
  H   H371      1.0  0.385439499815847  0.11500160168258014  0.9422022352433879  1.0000
  H   H372      1.0  0.3432435884455375  0.10788957642223772  0.9391332972866938  1.0000
  H   H373      1.0  0.3812302229969561  0.15209632472927367  0.9411990286718318  1.0000
  H   H374      1.0  0.43412292398138036  0.15229815150900256  0.8935647702868599  1.0000
  H   H375      1.0  0.4281654518612684  0.18764814698517082  0.8961605017754779  1.0000
  H   H376      1.0  0.4249668297639171  0.17136052076505906  0.8586713419379634  1.0000
  N   N11       1.0  0.8265410304992713  0.13097050210413097  0.4263314970619731  1.0000
  C   C425      1.0  0.8502590284278223  0.11876822747782742  0.4269312316972726  1.0000
  C   C426      1.0  0.8067373443744242  0.12025531702060444  0.45898732606446857  1.0000
  C   C427      1.0  0.8012326048641638  0.11407062999645264  0.4027653098290018  1.0000
  C   C428      1.0  0.8479568844703761  0.1708156317322  0.41660535103828367  1.0000
  H   H377      1.0  0.8692387339732665  0.13045402986588017  0.444954767584721  1.0000
  H   H378      1.0  0.8660756529931273  0.12687420749716385  0.40284721190351414  1.0000
  H   H379      1.0  0.8351399792994479  0.08883123367012936  0.4338340288441063  1.0000
  H   H380      1.0  0.7903653390655242  0.09032730144127656  0.4670951458440495  1.0000
  H   H381      1.0  0.8249285490155827  0.13246676066277713  0.4774583003905142  1.0000
  H   H382      1.0  0.7883176269819133  0.12872779012991342  0.4594568855731787  1.0000
  H   H383      1.0  0.7831822403493978  0.12301454349214555  0.4015322156528747  1.0000
  H   H384      1.0  0.7842881600025462  0.0840483029100323  0.40953142355595296  1.0000
  H   H385      1.0  0.815189610653765  0.1211840068949236  0.37791621163683664  1.0000
  H   H386      1.0  0.8630767570301919  0.17980417395722773  0.3919508064855388  1.0000
  H   H387      1.0  0.8677107087517044  0.1845915938044949  0.43355019389794996  1.0000
  H   H388      1.0  0.8311070145125292  0.18118887382726515  0.41601905839843384  1.0000
  N   N12       1.0  0.332570677166238  0.7516476978507352  0.8807239959503468  1.0000
  C   C429      1.0  0.319669213538235  0.7136256125416518  0.8804920708840188  1.0000
  C   C430      1.0  0.31014768305445006  0.7598751659369111  0.8628878354229158  1.0000
  C   C431      1.0  0.3696453057673899  0.7760648758551318  0.8649977101240774  1.0000
  C   C432      1.0  0.3307433387804678  0.757041670455299  0.914577516117627  1.0000
  H   H389      1.0  0.33495805652629906  0.7058836623534607  0.8949803670988726  1.0000
  H   H390      1.0  0.3218843511926171  0.7087825390675412  0.8554584455253705  1.0000
  H   H391      1.0  0.2913415690157702  0.6946215075891317  0.8910423357561255  1.0000
  H   H392      1.0  0.3108360962860648  0.7560355918689536  0.8372391591906768  1.0000
  H   H393      1.0  0.2819596452877011  0.7418776213327657  0.874192767151233  1.0000
  H   H394      1.0  0.3191164599056744  0.7883497226664652  0.8627119443404627  1.0000
  H   H395      1.0  0.3873200792047428  0.7707729257410088  0.878014338707573  1.0000
  H   H396      1.0  0.3803512916803526  0.8050032216831899  0.865020568718221  1.0000
  H   H397      1.0  0.3721980503899375  0.7727922879646101  0.8394247003423706  1.0000
  H   H398      1.0  0.346372863829217  0.749842730993619  0.9290461026105772  1.0000
  H   H399      1.0  0.3030079496673002  0.7400865738000549  0.9268288351616958  1.0000
  H   H400      1.0  0.3416600206927228  0.7857954551478643  0.9157632813987059  1.0000
  N   N13       1.0  0.3497035466238863  0.5540260545506103  0.38398162361617394  1.0000
  C   C433      1.0  0.3846698469896374  0.5632818822815053  0.3917284244381845  1.0000
  C   C434      1.0  0.32203585995267286  0.5157355434318417  0.39794663697866456  1.0000
  C   C435      1.0  0.3502318691140328  0.5595095265359133  0.348447741637284  1.0000
  C   C436      1.0  0.3419717030843148  0.57771371864278  0.39758177873286976  1.0000
  H   H401      1.0  0.40599801764017196  0.5921564341456703  0.3819098214660772  1.0000
  H   H402      1.0  0.3917718194203774  0.5464827508095499  0.3813099512366155  1.0000
  H   H403      1.0  0.3851323718114814  0.5590288410125919  0.4183978514329676  1.0000
  H   H404      1.0  0.2953234217486575  0.5078832152295332  0.3925994615227211  1.0000
  H   H405      1.0  0.32699010100336534  0.4970835612912652  0.3882600219791376  1.0000
  H   H406      1.0  0.3208579107054173  0.5105497238127673  0.4247511781225757  1.0000
  H   H407      1.0  0.32478681047833324  0.5543959256721721  0.3416955056984699  1.0000
  H   H408      1.0  0.3548995842365266  0.541279959602125  0.33747932248468554  1.0000
  H   H409      1.0  0.37190065425719865  0.5877215082837669  0.3372415071170978  1.0000
  H   H410      1.0  0.3156710080012162  0.5714145875894292  0.3924037052642724  1.0000
  H   H411      1.0  0.3619998705356029  0.6067746547312735  0.38717691955850075  1.0000
  H   H412      1.0  0.3417962044830463  0.5746592279277174  0.42439603637811774  1.0000
  N   N14       1.0  0.5264098922376277  0.6096467563928033  0.021458549876202288  1.0000
  C   C437      1.0  0.5364440644871271  0.614726063597827  0.054407395002276836  1.0000
  C   C438      1.0  0.5265625953193137  0.5792674982625111  0.012675717328412857  1.0000
  C   C439      1.0  0.5521834016142689  0.6431293671648539  0.998133981895354  1.0000
  C   C440      1.0  0.4905704999929384  0.6015536175574452  0.020750176086834195  1.0000
  H   H413      1.0  0.5358724644472773  0.6369944824436817  0.06182281256725995  1.0000
  H   H414      1.0  0.5636226728695264  0.6215480425717564  0.05577468547188789  1.0000
  H   H415      1.0  0.5180148759060977  0.5898875820336751  0.07269894096203562  1.0000
  H   H416      1.0  0.5188176860808705  0.574536458277705  0.987977407556942  1.0000
  H   H417      1.0  0.5533612635414231  0.5847647141557786  0.012666044560299258  1.0000
  H   H418      1.0  0.5076331841131683  0.5536411394115651  0.029889900652681333  1.0000
  H   H419      1.0  0.5460225169794878  0.6399231501899443  0.9728721007979718  1.0000
  H   H420      1.0  0.5796347168265602  0.6504752083018727  0.9986117513700474  1.0000
  H   H421      1.0  0.5520508818620949  0.6664166358127681  0.0034725773487111877  1.0000
  H   H422      1.0  0.48147829647400525  0.5960171970371771  0.9966383064742593  1.0000
  H   H423      1.0  0.48985723025896066  0.624620264865202  0.02580768170666656  1.0000
  H   H424      1.0  0.47070797999076597  0.5773944388098766  0.03905266678972878  1.0000
  N   N15       1.0  0.728021263709252  0.8464884565131119  0.45184673002094256  1.0000
  C   C441      1.0  0.7323722909869939  0.8435079970228263  0.48666247121919515  1.0000
  C   C442      1.0  0.7180265365355307  0.8126636854194684  0.44083728650907594  1.0000
  C   C443      1.0  0.7616782027504206  0.8773895137859435  0.43291329445202337  1.0000
  C   C444      1.0  0.6999233833433315  0.8523353717821645  0.44693023330218923  1.0000
  H   H425      1.0  0.7081256051379594  0.8192112042101547  0.5013935693408573  1.0000
  H   H426      1.0  0.7376580002086751  0.8675038634434  0.4965379574088489  1.0000
  H   H427      1.0  0.7546389802722867  0.8410877282196138  0.49108660802624055  1.0000
  H   H428      1.0  0.6926919898183598  0.788833155607817  0.4548346441809885  1.0000
  H   H429      1.0  0.7142723660848235  0.8138260535074024  0.4147277934503577  1.0000
  H   H430      1.0  0.7386295232915581  0.8073717330935244  0.44417696531568407  1.0000
  H   H431      1.0  0.7697114138934866  0.9032672575681632  0.44058875339790365  1.0000
  H   H432      1.0  0.759218894967163  0.8806945252353601  0.4065646041303351  1.0000
  H   H433      1.0  0.7836178552740939  0.8740877841822267  0.43590814708754344  1.0000
  H   H434      1.0  0.6975704000243248  0.8571574311629063  0.4207297214957868  1.0000
  H   H435      1.0  0.7053866962855069  0.8763192182976756  0.45692221041416325  1.0000
  H   H436      1.0  0.6736690556691715  0.828551522397069  0.45892207962604636  1.0000
  N   N16       1.0  0.28932745650199604  0.15991175927218682  0.22343749746807542  1.0000
  C   C445      1.0  0.2980224766666105  0.17305411474154403  0.18802340600206421  1.0000
  C   C446      1.0  0.2957976515759219  0.18946681139987873  0.24013341807683028  1.0000
  C   C447      1.0  0.3119519555245319  0.1481880362170172  0.23430234333448074  1.0000
  C   C448      1.0  0.2517329026565657  0.12898689285954196  0.23137785512813794  1.0000
  H   H437      1.0  0.3260356568243027  0.19687143242810284  0.18139662242993107  1.0000
  H   H438      1.0  0.2805660099380514  0.18089817166536276  0.17864673910685544  1.0000
  H   H439      1.0  0.29459620401500863  0.15178697372285177  0.17485761075249318  1.0000
  H   H440      1.0  0.2893698745659393  0.1804297789536153  0.26693493481846287  1.0000
  H   H441      1.0  0.32407867931761963  0.21297698059977518  0.23520737007224746  1.0000
  H   H442      1.0  0.27925248761953236  0.1991023236037858  0.23234548918811898  1.0000
  H   H443      1.0  0.3077014175355447  0.14018685645105614  0.26106370492028014  1.0000
  H   H444      1.0  0.3404221835044608  0.17012059731187365  0.2269584907505481  1.0000
  H   H445      1.0  0.30645538842738923  0.12447563201959543  0.22383032081549828  1.0000
  H   H446      1.0  0.23378676672172088  0.13619831012057976  0.2221091311544735  1.0000
  H   H447      1.0  0.24406443187076834  0.11960850908938424  0.2580117764127277  1.0000
  H   H448      1.0  0.2463602906971542  0.10545624956162085  0.2206580247936077  1.0000
  N   N17       1.0  0.11924201426961341  0.9591941651227089  0.39840293845565583  1.0000
  C   C449      1.0  0.1523706902867067  0.9652406206060424  0.38421897196893007  1.0000
  C   C450      1.0  0.10519427287226572  0.9328175782265955  0.429047439796638  1.0000
  C   C451      1.0  0.09269446963470271  0.9448221531683832  0.3754648131055829  1.0000
  C   C452      1.0  0.1267106946929541  0.9938632914343776  0.4050367297454047  1.0000
  H   H449      1.0  0.14790293170904906  0.9399041541362729  0.37840889752571016  1.0000
  H   H450      1.0  0.17283992985799293  0.9756548292153304  0.40108619250386773  1.0000
  H   H451      1.0  0.16403367865477728  0.9854763033888712  0.36129547678163443  1.0000
  H   H452      1.0  0.12422245208912275  0.9430629424329313  0.4471186126160844  1.0000
  H   H453      1.0  0.08011925407965938  0.9275789031168046  0.44027746596499734  1.0000
  H   H454      1.0  0.0998102076035392  0.9065243367415914  0.42514759983585093  1.0000
  H   H455      1.0  0.08637280163689057  0.9186088257779543  0.3700772371248119  1.0000
  H   H456      1.0  0.10241890840897407  0.9638545247496593  0.35197233484308893  1.0000
  H   H457      1.0  0.06736651044531217  0.9400900979915497  0.3852820098576478  1.0000
  H   H458      1.0  0.10270673979122394  0.9902550509449976  0.41688064182143364  1.0000
  H   H459      1.0  0.13647086421020807  0.014187674034034758  0.3823778366456086  1.0000
  H   H460      1.0  0.14749526899908846  0.005906440361272081  0.4214442221143573  1.0000
  N   N18       1.0  0.03821135944594147  0.28467730522496437  0.0841577814207537  1.0000
  C   C453      1.0  0.07505398394777439  0.3113179601956724  0.08967505431944378  1.0000
  C   C454      1.0  0.016880234012081594  0.26143608153091613  0.1153968199191513  1.0000
  C   C455      1.0  0.037899454745625  0.26202416583090893  0.061621253292740485  1.0000
  C   C456      1.0  0.023063264061461225  0.3038379213761242  0.06995778800729036  1.0000
  H   H461      1.0  0.09208168108479454  0.32967632917977285  0.06678598340523134  1.0000
  H   H462      1.0  0.08733531383918555  0.2975638936176365  0.09967056687756881  1.0000
  H   H463      1.0  0.07649395223004755  0.32846873538292515  0.10718042513849912  1.0000
  H   H464      1.0  0.9892807554822441  0.2399542982826495  0.11203145371106538  1.0000
  H   H465      1.0  0.02806854301326389  0.2473371562040266  0.12716127077200023  1.0000
  H   H466      1.0  0.015614496008784118  0.2773390690347451  0.1328562006043974  1.0000
  H   H467      1.0  0.010426440657586494  0.24111277230320022  0.05732865901708539  1.0000
  H   H468      1.0  0.04942726638291134  0.24742482976096214  0.07155948194266526  1.0000
  H   H469      1.0  0.05357317798819156  0.27861421026180616  0.037720450160779295  1.0000
  H   H470      1.0  0.9953045896088812  0.2844057266044828  0.0653742030256621  1.0000
  H   H471      1.0  0.0385900056159484  0.32171240461904577  0.04639172880348985  1.0000
  H   H472      1.0  0.02280939343039004  0.32109864593512455  0.086428001808319  1.0000
  N   N19       1.0  0.8762241413061344  0.5273274553167915  0.421837437115571  1.0000
  C   C457      1.0  0.8660886803917708  0.5102180245401587  0.3926990952650155  1.0000
  C   C458      1.0  0.8489152787133897  0.532258328586435  0.4334905808241624  1.0000
  C   C459      1.0  0.9106593490281416  0.5629592734783632  0.4136176413417357  1.0000
  C   C460      1.0  0.8791998626932229  0.50397852983255  0.44750760780696974  1.0000
  H   H473      1.0  0.8861248304880576  0.5061679761242525  0.38302417100542074  1.0000
  H   H474      1.0  0.8635944829207179  0.5272401832888599  0.37289799490058007  1.0000
  H   H475      1.0  0.8400647446198802  0.4833941606745591  0.39804123682373876  1.0000
  H   H476      1.0  0.8558431193984734  0.5455865253569656  0.455144752465672  1.0000
  H   H477      1.0  0.8456168415191784  0.5492400045451137  0.4143892095212462  1.0000
  H   H478      1.0  0.822649852099559  0.5058414578757908  0.4402294685693365  1.0000
  H   H479      1.0  0.9091795297950542  0.5814693656843868  0.39469464027548495  1.0000
  H   H480      1.0  0.9318106306663445  0.5603255365524701  0.4041717453031693  1.0000
  H   H481      1.0  0.9193391353318474  0.5763976721652512  0.4352005151617256  1.0000
  H   H482      1.0  0.8884002523880553  0.5169489057697203  0.46925221376035664  1.0000
  H   H483      1.0  0.898620664593288  0.49857137636395005  0.4389857106500662  1.0000
  H   H484      1.0  0.8532667750259528  0.4774789649314757  0.4556452710029312  1.0000
  N   N20       1.0  0.5776869246429873  0.15535484045481748  0.2786798920253748  1.0000
  C   C461      1.0  0.5801633205304678  0.1326227011657742  0.25804509896321887  1.0000
  C   C462      1.0  0.6044115467323448  0.19397656972108493  0.26496644659606267  1.0000
  C   C463      1.0  0.5841877225971777  0.14700428462951592  0.3118044029460783  1.0000
  C   C464      1.0  0.5419123864743406  0.14767830702476098  0.2798654894926476  1.0000
  H   H485      1.0  0.6068896567725459  0.13791866834701597  0.2561232922232299  1.0000
  H   H486      1.0  0.5745874689452048  0.13757306553366702  0.23309517059247886  1.0000
  H   H487      1.0  0.5606215411429614  0.10328818970661356  0.26785427198843176  1.0000
  H   H488      1.0  0.6317438538277913  0.2007964684179138  0.26388697780042675  1.0000
  H   H489      1.0  0.6004248941035752  0.2009600851897749  0.2397477913027593  1.0000
  H   H490      1.0  0.6029751795241055  0.21190556211316205  0.27972539904319355  1.0000
  H   H491      1.0  0.5821575862268501  0.163247597106381  0.32833163994967457  1.0000
  H   H492      1.0  0.6108641672963075  0.15228075427233081  0.31191486671519086  1.0000
  H   H493      1.0  0.564448012580569  0.11801450053086146  0.3225415346278043  1.0000
  H   H494      1.0  0.5371918013687442  0.15643917048114925  0.25575655720817086  1.0000
  H   H495      1.0  0.5378920058562312  0.16188020802441727  0.2973786144523318  1.0000
  H   H496      1.0  0.5208983952490054  0.11818714506873143  0.28716812089280397  1.0000
  N   N21       1.0  0.9900293135971582  0.05726366764245413  0.4472550325830109  1.0000
  C   C465      1.0  0.011753414230578185  0.07644716583885051  0.4722910519969673  1.0000
  C   C466      1.0  0.9923052468345057  0.08378724035172716  0.42106296162906404  1.0000
  C   C467      1.0  0.9527036393961148  0.031004990300521815  0.4617480370218864  1.0000
  C   C468      1.0  0.003378253847916124  0.03788123395286174  0.43386037472049926  1.0000
  H   H497      1.0  0.011341204653906312  0.05734985760481765  0.4921030566161432  1.0000
  H   H498      1.0  0.001845353072365441  0.09054640777039652  0.4836131250018153  1.0000
  H   H499      1.0  0.039881432130136174  0.09713183214141667  0.4618784930494194  1.0000
  H   H500      1.0  0.9757700671621524  0.07015918522952662  0.4019752763293677  1.0000
  H   H501      1.0  0.9830801313027064  0.09941447141584174  0.4303747370149682  1.0000
  H   H502      1.0  0.02000807625139389  0.10354769025035675  0.40900787661751353  1.0000
  H   H503      1.0  0.9360819781370119  0.014523604372665375  0.44394599351891406  1.0000
  H   H504      1.0  0.9410833088125368  0.04498612320655407  0.46997070865754687  1.0000
  H   H505      1.0  0.9501792763915421  0.012153712878235646  0.48321645963126886  1.0000
  H   H506      1.0  0.9887211816228602  0.024478405456622547  0.4137594362491916  1.0000
  H   H507      1.0  0.0008653346370994797  0.01674597395467266  0.4527551105717427  1.0000
  H   H508      1.0  0.031824760451822476  0.056792850985054176  0.4235766266913426  1.0000
  N   N22       1.0  0.7987713617639817  0.18811166951731267  0.19531209044153516  1.0000
  C   C469      1.0  0.7975268378532088  0.2193254234363873  0.19879646074536408  1.0000
  C   C470      1.0  0.8049626143036678  0.1879191729512503  0.1605515943904754  1.0000
  C   C471      1.0  0.7648365971816663  0.1541423100012445  0.21029064770847572  1.0000
  C   C472      1.0  0.8278906960240233  0.19103194095277823  0.21173383807008217  1.0000
  H   H509      1.0  0.8227567933483937  0.24535507050229322  0.18769563056938918  1.0000
  H   H510      1.0  0.7931670609857502  0.2203561433108336  0.22481491986207602  1.0000
  H   H511      1.0  0.7756342421272957  0.21778892457100418  0.18681459634145076  1.0000
  H   H512      1.0  0.8041531607663753  0.16361042061786654  0.15717385271013976  1.0000
  H   H513      1.0  0.7843277388571025  0.18716619581989316  0.14699612226923325  1.0000
  H   H514      1.0  0.8312011662053074  0.21222974227748767  0.14882204126120954  1.0000
  H   H515      1.0  0.7421515138085002  0.15048678458948833  0.19826007814056193  1.0000
  H   H516      1.0  0.7593705367425087  0.1533934923809623  0.236563874776549  1.0000
  H   H517      1.0  0.7650747580308683  0.13005985346044463  0.20845851070791474  1.0000
  H   H518      1.0  0.8292075158429608  0.1675840216536046  0.20989406342119502  1.0000
  H   H519      1.0  0.8239899801246232  0.19124648539843345  0.23802085232757753  1.0000
  H   H520      1.0  0.8541107487734917  0.21612737473338328  0.20105656580086034  1.0000
  N   N23       1.0  0.43065788206962796  0.37555935321355727  0.007574324144312694  1.0000
  C   C473      1.0  0.4088377838961141  0.38888467541526905  0.014758343824442743  1.0000
  C   C474      1.0  0.43484910173923924  0.3588741288575727  0.038117435333815175  1.0000
  C   C475      1.0  0.4658691966591506  0.4061365473486575  0.9909154246329109  1.0000
  C   C476      1.0  0.4130201058454629  0.34823434811278214  0.9863994611132739  1.0000
  H   H521      1.0  0.4053759122744131  0.4017511581429593  0.9921079627214328  1.0000
  H   H522      1.0  0.4212320304388833  0.4094517299615265  0.03084249556049312  1.0000
  H   H523      1.0  0.3819480607175265  0.36641720356095187  0.027057677656120438  1.0000
  H   H524      1.0  0.44838084661645805  0.3787054466125081  0.05467381301530394  1.0000
  H   H525      1.0  0.4087486047192157  0.33568818460932054  0.051347430747088696  1.0000
  H   H526      1.0  0.45069551675110775  0.3479918136567917  0.03338396487469253  1.0000
  H   H527      1.0  0.46378198397373255  0.41870942460044325  0.9672712291298357  1.0000
  H   H528      1.0  0.48324248133349557  0.3971496899019656  0.98564283999039  1.0000
  H   H529      1.0  0.47978532814250574  0.42778068667792946  0.0057559763328283164  1.0000
  H   H530      1.0  0.429203884764372  0.3382795110378098  0.9797466236901763  1.0000
  H   H531      1.0  0.4087734442794055  0.3595917217390533  0.9632954277563991  1.0000
  H   H532      1.0  0.38673168273337305  0.3242928381887887  0.9983956866678427  1.0000
  N   N24       1.0  0.353769120813851  0.09735192869695612  0.40325499120638053  1.0000
  C   C477      1.0  0.3392584021959098  0.10046386761298151  0.37305093703054387  1.0000
  C   C478      1.0  0.3371118850243986  0.1033100613752917  0.43010282788380755  1.0000
  C   C479      1.0  0.3924701355686023  0.12480383867305  0.39914396128178214  1.0000
  C   C480      1.0  0.3463847491444609  0.06089215929543247  0.4107967635198923  1.0000
  H   H533      1.0  0.3435036775825712  0.1272859073318486  0.3669206238598499  1.0000
  H   H534      1.0  0.31017737210745594  0.07963443094848376  0.37526997204858764  1.0000
  H   H535      1.0  0.35184388911970116  0.09696763387445255  0.3520760636851305  1.0000
  H   H536      1.0  0.3081174344872008  0.08225162017890199  0.4349965704298833  1.0000
  H   H537      1.0  0.34838040370251755  0.10253416623509964  0.4530083192096704  1.0000
  H   H538      1.0  0.34110310388358717  0.1300519258870565  0.4245246888146063  1.0000
  H   H539      1.0  0.40421920799335354  0.12201918526202446  0.42114273798847657  1.0000
  H   H540      1.0  0.3991020630588462  0.1526987691495817  0.3948332826287415  1.0000
  H   H541      1.0  0.40592731217753875  0.12210580319874587  0.3783362972310132  1.0000
  H   H542      1.0  0.3174459363712293  0.03938539741562815  0.4149306104958485  1.0000
  H   H543      1.0  0.35742243353032327  0.05772912203411022  0.4331873212692021  1.0000
  H   H544      1.0  0.3582793212396875  0.05557829366053413  0.390646377326252  1.0000
  N   N25       1.0  0.050607597521107106  0.6304972426885768  0.010997823270923865  1.0000
  C   C481      1.0  0.037887065452537394  0.6200979521927122  0.046109777928918634  1.0000
  C   C482      1.0  0.02663819828955738  0.6000263924817625  0.9945848247459682  1.0000
  C   C483      1.0  0.0868245846863398  0.6394358391087204  0.005884711505290686  1.0000
  C   C484      1.0  0.051020407197091  0.6623687289018422  0.9972748708772071  1.0000
  H   H545      1.0  0.056028852625495285  0.6419253281290493  0.05941384418147147  1.0000
  H   H546      1.0  0.03666906468400222  0.5957093646923498  0.05703300245471283  1.0000
  H   H547      1.0  0.011130005548608102  0.6143730176716696  0.05101846956042694  1.0000
  H   H548      1.0  0.03491496485226486  0.6075014428701769  0.9679306264193194  1.0000
  H   H549      1.0  0.026486732645076172  0.575776922530219  0.0034179599172170726  1.0000
  H   H550      1.0  0.9989550700053464  0.5920839567563432  0.9985187160539978  1.0000
  H   H551      1.0  0.10567339560915379  0.6624695050719628  0.017877798353209632  1.0000
  H   H552      1.0  0.09715933921796838  0.6470520426019479  0.9795886459220249  1.0000
  H   H553      1.0  0.08765513991410834  0.6161522953466019  0.01624450737110587  1.0000
  H   H554      1.0  0.06119298561237985  0.6711981538663672  0.9709044138017506  1.0000
  H   H555      1.0  0.06839253574657067  0.6857645656888307  0.009358602199520078  1.0000
  H   H556      1.0  0.02398311413648191  0.6564037934115765  0.9999187539417012  1.0000
  N   N26       1.0  0.876223746244838  0.10009041073373534  0.050899120392012165  1.0000
  C   C485      1.0  0.8811496054858206  0.0744649278633126  0.07101423808727758  1.0000
  C   C486      1.0  0.9106394263932636  0.13579552473036938  0.04259814259643724  1.0000
  C   C487      1.0  0.8507882209835679  0.10390292358852629  0.06902596362406355  1.0000
  C   C488      1.0  0.8623939110077687  0.08612533815481577  0.02095817170095393  1.0000
  H   H557      1.0  0.8555223966537011  0.04778450087951989  0.07951271619015499  1.0000
  H   H558      1.0  0.8934382507846615  0.08508983561204961  0.09275544359769805  1.0000
  H   H559      1.0  0.8990126622687771  0.06986821322191523  0.0574412381347853  1.0000
  H   H560      1.0  0.9079925278921386  0.15587022719922877  0.027391643361302398  1.0000
  H   H561      1.0  0.9218741781484187  0.1470308603046065  0.06465897965583434  1.0000
  H   H562      1.0  0.9305301669079015  0.13409773904521807  0.02875218765732024  1.0000
  H   H563      1.0  0.8457984873998546  0.12228418997830652  0.05403868349402119  1.0000
  H   H564      1.0  0.8610287212124359  0.11580853172900328  0.0910206765742847  1.0000
  H   H565      1.0  0.8249135846037265  0.07735380643920195  0.07696202095678562  1.0000
  H   H566      1.0  0.8364957290245323  0.059228841850907404  0.026420377336060286  1.0000
  H   H567      1.0  0.8811334101078122  0.08328407143815776  0.006509836958711546  1.0000
  H   H568      1.0  0.8586066462431792  0.10480208408948594  0.00487104818846551  1.0000
  N   N27       1.0  0.005155825506814482  0.4699159751125382  0.8275379864148994  1.0000
  C   C489      1.0  0.9915137175615255  0.438279524525737  0.8113222383111364  1.0000
  C   C490      1.0  0.00773975605603594  0.49952556573133505  0.8052871684452306  1.0000
  C   C491      1.0  0.04062527417471573  0.48229792884897965  0.8363314553920289  1.0000
  C   C492      1.0  0.9808562296010485  0.45954064780941634  0.8572261121947473  1.0000
  H   H569      1.0  0.9892280538852711  0.4154512615041844  0.8275649255687607  1.0000
  H   H570      1.0  0.009378549357414334  0.4451695670315324  0.7889261305057418  1.0000
  H   H571      1.0  0.96479307102328  0.4282679822146213  0.8042776599510294  1.0000
  H   H572      1.0  0.018586654112421996  0.5240566072953683  0.8165689336619975  1.0000
  H   H573      1.0  0.02586832803688721  0.5079740170539716  0.7826064199128223  1.0000
  H   H574      1.0  0.9814952686947803  0.4915018403527476  0.7982968246168199  1.0000
  H   H575      1.0  0.05126673429374451  0.5055966520586771  0.8492692610039001  1.0000
  H   H576      1.0  0.06006871852941087  0.4916157084702271  0.8144626730560409  1.0000
  H   H577      1.0  0.039968369717606755  0.4604649961792621  0.8524822632981758  1.0000
  H   H578      1.0  0.9907922196976708  0.4824571211353651  0.870647684831331  1.0000
  H   H579      1.0  0.9778575301543061  0.4368385553879194  0.874301058872343  1.0000
  H   H580      1.0  0.9539967553344446  0.450791347441734  0.8515853949405198  1.0000
  N   N28       1.0  0.09966347175254398  0.5811220174740016  0.44742983462657376  1.0000
  C   C493      1.0  0.10127453716741042  0.5494104842220641  0.45435625628595006  1.0000
  C   C494      1.0  0.11914778424949102  0.6058724435103225  0.4703044691706727  1.0000
  C   C495      1.0  0.062268473679012004  0.5689495360675003  0.45135829268143846  1.0000
  C   C496      1.0  0.11599905498477603  0.600194912182638  0.4138209787667909  1.0000
  H   H581      1.0  0.08925672401249307  0.5313896678264677  0.43625877214708253  1.0000
  H   H582      1.0  0.08659376328935187  0.5328435963238587  0.4784794856959992  1.0000
  H   H583      1.0  0.12908246248041522  0.5576090283160863  0.453962855303594  1.0000
  H   H584      1.0  0.11809063707264955  0.6299078503166817  0.4662993573865469  1.0000
  H   H585      1.0  0.1077726095825211  0.5920306134735945  0.4958823385895128  1.0000
  H   H586      1.0  0.14747965543310482  0.6156691457255637  0.46788197610946625  1.0000
  H   H587      1.0  0.05996680089759443  0.5921372993381282  0.4461260597081966  1.0000
  H   H588      1.0  0.04916296354813943  0.5545716531779092  0.47656006081996377  1.0000
  H   H589      1.0  0.04676161916044963  0.5500979709022699  0.4345037344296084  1.0000
  H   H590      1.0  0.10154062135533715  0.5824059161721707  0.3959712880877251  1.0000
  H   H591      1.0  0.143947333895853  0.6088684425229174  0.40976332746503463  1.0000
  H   H592      1.0  0.11559740770119853  0.624510283402848  0.4078939140008506  1.0000
  N   N29       1.0  0.06325951160739551  0.7683339330220522  0.23271508177928393  1.0000
  C   C497      1.0  0.06279000412712943  0.7993807544319705  0.238922182481674  1.0000
  C   C498      1.0  0.05488088128939639  0.7439846114489986  0.2637810980016391  1.0000
  C   C499      1.0  0.09875561432785718  0.7815138521959337  0.21714817555269977  1.0000
  C   C500      1.0  0.03662140851748852  0.7483903198153038  0.21101835988926684  1.0000
  H   H593      1.0  0.08262145405236931  0.8151657915737803  0.25513191933776835  1.0000
  H   H594      1.0  0.03634579282096473  0.790265646911639  0.25088685182432396  1.0000
  H   H595      1.0  0.06886055656787216  0.8182685214097226  0.21599307136867582  1.0000
  H   H596      1.0  0.07506387480918453  0.7579159267929287  0.28030732819922294  1.0000
  H   H597      1.0  0.028857373174872913  0.7345035140020786  0.27679959040889524  1.0000
  H   H598      1.0  0.053972916433168816  0.7196791919819936  0.25992734081618024  1.0000
  H   H599      1.0  0.11961349183369774  0.796722271752312  0.23274694005676355  1.0000
  H   H600      1.0  0.10608179190248368  0.7999858653092877  0.19368423867173667  1.0000
  H   H601      1.0  0.09990986295466997  0.7586937140707724  0.21205549693745226  1.0000
  H   H602      1.0  0.03562311699358678  0.7242674271260063  0.20643037055081223  1.0000
  H   H603      1.0  0.04258003350116879  0.7657375475240312  0.18708005790701737  1.0000
  H   H604      1.0  0.009627728085907394  0.7388465245782058  0.22151894770461597  1.0000
  N   N30       1.0  0.18586889158282793  0.18887073644742086  0.4916287344467678  1.0000
  C   C501      1.0  0.1732527447620292  0.15142841671897975  0.48881992671651436  1.0000
  C   C502      1.0  0.18040894388931586  0.19079801186122658  0.526031702122438  1.0000
  C   C503      1.0  0.16582567258563327  0.1995261898121334  0.4725074428286219  1.0000
  C   C504      1.0  0.22398006000105805  0.21375711536584174  0.47928603009300497  1.0000
  H   H605      1.0  0.14468131837877254  0.13182541985577137  0.4984031559333376  1.0000
  H   H606      1.0  0.18777298779024368  0.14250044317366295  0.503098927464244  1.0000
  H   H607      1.0  0.1767253833922067  0.1487361454478844  0.4632024271090844  1.0000
  H   H608      1.0  0.15197615860094169  0.17234121366465657  0.5359225006368444  1.0000
  H   H609      1.0  0.1947164463528471  0.18250573616579682  0.5414331952836575  1.0000
  H   H610      1.0  0.18920054008419956  0.21852841808875711  0.529203854246673  1.0000
  H   H611      1.0  0.17425576682093707  0.22743970637988134  0.47460203979765675  1.0000
  H   H612      1.0  0.1369489517418462  0.1813288235635501  0.48126791703815425  1.0000
  H   H613      1.0  0.16941043614578155  0.19868797539068248  0.44633630305838773  1.0000
  H   H614      1.0  0.23428444831566994  0.24223585158647487  0.4810756539856569  1.0000
  H   H615      1.0  0.2291008107532057  0.2129261537885368  0.45337460455675554  1.0000
  H   H616      1.0  0.239806722247586  0.2064862416025009  0.49335226074433025  1.0000
  N   N31       1.0  0.7533596126733345  0.6475796490522737  0.0356052764746555  1.0000
  C   C505      1.0  0.7861292540965789  0.6841207085026971  0.02454172679470923  1.0000
  C   C506      1.0  0.7596815815955532  0.6283976397889766  0.06263649058426624  1.0000
  C   C507      1.0  0.7430920031982119  0.6271550501414266  0.008496480361543046  1.0000
  C   C508      1.0  0.7246264326553893  0.6507456934147173  0.046721137349713615  1.0000
  H   H617      1.0  0.7822314654451601  0.6998631143534565  0.004789577618239171  1.0000
  H   H618      1.0  0.8080468285024383  0.6826455065547536  0.015185867406136033  1.0000
  H   H619      1.0  0.7953594732419957  0.6998328220301844  0.04470006696061213  1.0000
  H   H620      1.0  0.7687079549746542  0.6437846388284321  0.08303174595794904  1.0000
  H   H621      1.0  0.7352770225791484  0.6011599850573524  0.07258470277690932  1.0000
  H   H622      1.0  0.7807744305831732  0.6249751264700077  0.05484525516199512  1.0000
  H   H623      1.0  0.7196133203636765  0.5987771997939381  0.016463830655155887  1.0000
  H   H624      1.0  0.7650606323607267  0.62633234798887  0.9978966440356262  1.0000
  H   H625      1.0  0.7360169123143974  0.639715536447844  0.9885681907644503  1.0000
  H   H626      1.0  0.6992843228537791  0.6236619467305907  0.05450567733502254  1.0000
  H   H627      1.0  0.7196450557408203  0.6657481771525331  0.027079531531154277  1.0000
  H   H628      1.0  0.7310666284359266  0.6652795394196231  0.06764962674902297  1.0000
  N   N32       1.0  0.5874808292289297  0.940466910989192  0.24199090869988052  1.0000
  C   C509      1.0  0.5837978949458419  0.9219104760997996  0.2750606741951264  1.0000
  C   C510      1.0  0.6030432086600368  0.9298197927306402  0.21848114081284536  1.0000
  C   C511      1.0  0.6108027315905801  0.9800889467745088  0.24052227832965814  1.0000
  C   C512      1.0  0.5522680129520929  0.9300518801606313  0.23394427879427748  1.0000
  H   H629      1.0  0.6100271170599384  0.929584531170108  0.2819979766213226  1.0000
  H   H630      1.0  0.566337812594986  0.8919315720201912  0.2770799172018808  1.0000
  H   H631      1.0  0.571922702534326  0.9291448781989606  0.293375773230835  1.0000
  H   H632      1.0  0.6069107855302279  0.9438239350335134  0.19326730921358054  1.0000
  H   H633      1.0  0.6293720131283689  0.9366930665564256  0.224205486134005  1.0000
  H   H634      1.0  0.5858566281670162  0.9001915799670398  0.21849634354806854  1.0000
  H   H635      1.0  0.6147054153418314  0.9950760970189957  0.2157893984574558  1.0000
  H   H636      1.0  0.6373294105256135  0.9889695929089594  0.24737502552899843  1.0000
  H   H637      1.0  0.5993845547887262  0.9891341719855223  0.2572834217277695  1.0000
  H   H638      1.0  0.5543131408779594  0.9450636766555484  0.20983449073981092  1.0000
  H   H639      1.0  0.5391918966914309  0.936385939362183  0.25201646087702123  1.0000
  H   H640      1.0  0.5343408853542223  0.9005697854750363  0.23347647791832601  1.0000
  N   N33       1.0  0.5047321936205876  0.26538963730948606  0.06356457367362726  1.0000
  C   C513      1.0  0.49053987206610344  0.24289686849968253  0.09635188717213003  1.0000
  C   C514      1.0  0.504926162505648  0.2980375175865283  0.06325739684897866  1.0000
  C   C515      1.0  0.4822109087946661  0.24448568712517352  0.03964533119749065  1.0000
  C   C516      1.0  0.5412447181545668  0.2762289640337125  0.05493603474527675  1.0000
  H   H641      1.0  0.463306599480426  0.23475742063195285  0.10391329740472022  1.0000
  H   H642      1.0  0.5073065930466446  0.2574944875652724  0.11492356392639383  1.0000
  H   H643      1.0  0.4890800657406247  0.21753096364482366  0.09736260136551642  1.0000
  H   H644      1.0  0.47772372009744807  0.290671459029544  0.06980614079072246  1.0000
  H   H645      1.0  0.5217834545224362  0.3145854998957119  0.08091418872222376  1.0000
  H   H646      1.0  0.5151751868508454  0.3154477963271213  0.03879207115939171  1.0000
  H   H647      1.0  0.4817790019256213  0.21993521572033417  0.03886556882769611  1.0000
  H   H648      1.0  0.49220084587334323  0.2605634692531557  0.014614198963796243  1.0000
  H   H649      1.0  0.4543650658415223  0.23546515567202395  0.04553998064200929  1.0000
  H   H650      1.0  0.5526201837056645  0.29289115803451954  0.0301879100422174  1.0000
  H   H651      1.0  0.5419512618944196  0.2521382697897138  0.05505002605770803  1.0000
  H   H652      1.0  0.559100188920494  0.2921578490736079  0.07237119827637312  1.0000
  N   N34       1.0  0.12460003344173307  0.44837675024291074  0.38143557777674636  1.0000
  C   C517      1.0  0.08893466306611936  0.44039868991907694  0.3881646460691803  1.0000
  C   C518      1.0  0.145690233491686  0.4652751093417019  0.4076467134513269  1.0000
  C   C519      1.0  0.14243344663833968  0.4734627765132204  0.3501467636966728  1.0000
  C   C520      1.0  0.12135384941959515  0.41437531675875977  0.3797087301223641  1.0000
  H   H653      1.0  0.07233763729994656  0.427877693031871  0.36871931683272774  1.0000
  H   H654      1.0  0.09037506859866869  0.4654245596138028  0.3898638242522972  1.0000
  H   H655      1.0  0.07438951785202307  0.4212004300360018  0.4113827255597196  1.0000
  H   H656      1.0  0.13335010919550078  0.44689747080572817  0.4315325465773982  1.0000
  H   H657      1.0  0.1729605592062116  0.472259982553181  0.4030133990640894  1.0000
  H   H658      1.0  0.1483781478624066  0.49081457429930775  0.40985277959605165  1.0000
  H   H659      1.0  0.12739916658229866  0.4615587523695455  0.32975003991387297  1.0000
  H   H660      1.0  0.1694437867724317  0.48028959908265556  0.34442603790716614  1.0000
  H   H661      1.0  0.14546071833979624  0.4994462524220063  0.35057079549064574  1.0000
  H   H662      1.0  0.10550028881593908  0.40087742667357845  0.36021186029682156  1.0000
  H   H663      1.0  0.10819156936893798  0.3948398303347283  0.4029610032316784  1.0000
  H   H664      1.0  0.14779617558546748  0.41943009493688493  0.37456122183126805  1.0000
  N   N35       1.0  0.6404246899974112  0.9826192247614731  0.40850448118140464  1.0000
  C   C521      1.0  0.6034099543394608  0.9508067003674802  0.4106764851002997  1.0000
  C   C522      1.0  0.6614576545861344  0.971717063320762  0.4252366441634839  1.0000
  C   C523      1.0  0.641230464483171  0.010438415617123997  0.42407928408707424  1.0000
  C   C524      1.0  0.6557409293954389  0.9975736423751014  0.37409456345698594  1.0000
  H   H665      1.0  0.6016722089223392  0.9292580926660277  0.3990730212102162  1.0000
  H   H666      1.0  0.5868601863646882  0.9582215020798894  0.3982828394741874  1.0000
  H   H667      1.0  0.5910170487715921  0.9388217216644716  0.4363457873971306  1.0000
  H   H668      1.0  0.6614541579150421  0.9506325254648195  0.41432989549994836  1.0000
  H   H669      1.0  0.6895352454830203  0.995222118190284  0.423891230370857  1.0000
  H   H670      1.0  0.6509450572951437  0.9608789045328748  0.451425016346079  1.0000
  H   H671      1.0  0.6685976368052212  0.03554194265587651  0.4216019442577259  1.0000
  H   H672      1.0  0.6315078792301047  0.0007090705909720274  0.450478777957767  1.0000
  H   H673      1.0  0.6246019872628317  0.018428452537407658  0.4129664518487842  1.0000
  H   H674      1.0  0.6558728086076379  0.977482590059465  0.3615796542030263  1.0000
  H   H675      1.0  0.6834519554869226  0.022019826768227002  0.37163234898112535  1.0000
  H   H676      1.0  0.6406259135019436  0.006069941191420458  0.3606312694546853  1.0000
  N   N36       1.0  0.714964204110075  0.7056831298638443  0.8234829915499696  1.0000
  C   C525      1.0  0.7315006711549208  0.6898047164210757  0.8413409259430078  1.0000
  C   C526      1.0  0.6885082548714258  0.7038848927227199  0.8460848521910344  1.0000
  C   C527      1.0  0.6973064262608136  0.6850954794665481  0.7974831791155581  1.0000
  C   C528      1.0  0.742422642002268  0.7438749861198798  0.8091173292315333  1.0000
  H   H677      1.0  0.7521118180108429  0.6911967030694026  0.8253130866928737  1.0000
  H   H678      1.0  0.7114436868453181  0.6607874372781251  0.8519746255518907  1.0000
  H   H679      1.0  0.7443043606793713  0.7040668365214228  0.8617265643365042  1.0000
  H   H680      1.0  0.6741626620695907  0.7140197093442309  0.8333188773783717  1.0000
  H   H681      1.0  0.6682691288603395  0.6756206706395751  0.8582391005277821  1.0000
  H   H682      1.0  0.7008412234218218  0.7197570112986357  0.8657208677947029  1.0000
  H   H683      1.0  0.6848109689338422  0.6965542413807834  0.7832521667553768  1.0000
  H   H684      1.0  0.6757288206247911  0.6563282736028636  0.8076231855125338  1.0000
  H   H685      1.0  0.7162047566379298  0.6851333365813113  0.780269490790001  1.0000
  H   H686      1.0  0.7627123323721956  0.7462378698861575  0.7917389865559721  1.0000
  H   H687      1.0  0.7563382947445566  0.760002137674593  0.8281878617132095  1.0000
  H   H688      1.0  0.7306254959479341  0.756652840056976  0.7957623088380531  1.0000
  N   N37       1.0  0.1508965699735847  0.4443636003191222  0.5935758278105018  1.0000
  C   C529      1.0  0.18679362278368578  0.4565528572869121  0.6009237033923063  1.0000
  C   C530      1.0  0.12437652642064587  0.4092568916161841  0.6145487180314075  1.0000
  C   C531      1.0  0.14823237466502778  0.43993750611411  0.5592908854849028  1.0000
  C   C532      1.0  0.14432411570000964  0.4716929669976027  0.5992706935680432  1.0000
  H   H689      1.0  0.20732100517088514  0.48353544797114956  0.58611391025883  1.0000
  H   H690      1.0  0.19317882905749306  0.43723854458036254  0.5955492128634903  1.0000
  H   H691      1.0  0.18955436086812807  0.45909769187427896  0.6268661603859663  1.0000
  H   H692      1.0  0.12557046953147358  0.4114351455894521  0.6406794974281136  1.0000
  H   H693      1.0  0.09701703014261555  0.3991951302329289  0.6094103463142241  1.0000
  H   H694      1.0  0.12886209092345846  0.3882328085746048  0.6105430055518697  1.0000
  H   H695      1.0  0.12179468468435198  0.4315145162438764  0.5525288399426895  1.0000
  H   H696      1.0  0.15244782680958838  0.4190732611417845  0.5542039978152496  1.0000
  H   H697      1.0  0.1685013535556328  0.46569987084831477  0.542884874638614  1.0000
  H   H698      1.0  0.16435549366421948  0.498582333663593  0.584002755876732  1.0000
  H   H699      1.0  0.14562425284653344  0.4754708736746803  0.6250127817680421  1.0000
  H   H700      1.0  0.11784768661603741  0.4639487293857357  0.5930931340909884  1.0000
  N   N38       1.0  0.9535527511591434  0.6101954957138329  0.22510243972248029  1.0000
  C   C533      1.0  0.9743541721839735  0.6022313946495509  0.204917796244634  1.0000
  C   C534      1.0  0.9188417400347793  0.5762478541474725  0.2383022350298203  1.0000
  C   C535      1.0  0.9479760662800366  0.6355435912583574  0.20533076591127133  1.0000
  C   C536      1.0  0.9731436186242578  0.626883701875246  0.25203726762366147  1.0000
  H   H701      1.0  0.9802672918646376  0.584375220914929  0.2195114496507805  1.0000
  H   H702      1.0  0.00020974693078334994  0.6274272204335599  0.19384775065427515  1.0000
  H   H703      1.0  0.9600401081927455  0.5884849519136593  0.1849607177326615  1.0000
  H   H704      1.0  0.9024281808493038  0.5813619066661629  0.2535735595140085  1.0000
  H   H705      1.0  0.9033448283170175  0.5628994248533241  0.21855429126923415  1.0000
  H   H706      1.0  0.9219914167630089  0.5566710031083675  0.2537710580967152  1.0000
  H   H707      1.0  0.9331161964506748  0.6426902852160934  0.2201838673883408  1.0000
  H   H708      1.0  0.9323040346080242  0.623668540923949  0.18534212894096083  1.0000
  H   H709      1.0  0.9734827255167285  0.6611710490030012  0.19414192562838564  1.0000
  H   H710      1.0  0.9578663511690273  0.6322726461799584  0.26833645716761373  1.0000
  H   H711      1.0  0.9988180829304344  0.6531208724536488  0.24296989785203038  1.0000
  H   H712      1.0  0.9789335774040688  0.6091125587927049  0.26693490004921955  1.0000
  N   N39       1.0  0.5190650099431012  0.02792360699916485  0.4730324327919044  1.0000
  C   C537      1.0  0.5014159618869894  0.046769174154262405  0.4688990914606601  1.0000
  C   C538      1.0  0.5170470072026103  0.015633310362177077  0.507971620235599  1.0000
  C   C539      1.0  0.5565952010249973  0.052915952705614  0.45864145376188675  1.0000
  C   C540      1.0  0.5010378799605306  0.9962847996381664  0.4564998223803114  1.0000
  H   H713      1.0  0.5030323806281765  0.05708780138956038  0.4429442345338354  1.0000
  H   H714      1.0  0.5136609634272034  0.07039384445073305  0.4815260466719124  1.0000
  H   H715      1.0  0.4728514312452244  0.028498200980023425  0.47877900172193266  1.0000
  H   H716      1.0  0.530029792386615  0.0011945163022000216  0.5120629120011949  1.0000
  H   H717      1.0  0.5306673537631227  0.03876812360567583  0.5211965847978407  1.0000
  H   H718      1.0  0.4891324278566573  0.9973313373548155  0.5197825260234857  1.0000
  H   H719      1.0  0.5707720809387179  0.03961876058058422  0.4613266590443016  1.0000
  H   H720      1.0  0.570987623362659  0.07707998382442827  0.4705737962584426  1.0000
  H   H721      1.0  0.5590345497552656  0.06283914283298331  0.4323003126366856  1.0000
  H   H722      1.0  0.5013087994087244  0.004632824350622178  0.4302474759753465  1.0000
  H   H723      1.0  0.4728185781598285  0.9766519038645967  0.46713524084855934  1.0000
  H   H724      1.0  0.5140353916186923  0.9817560929647495  0.4583980929609775  1.0000
  N   N40       1.0  0.7519149955390394  0.14982988422355  0.03580229082289299  1.0000
  C   C541      1.0  0.7852919516033173  0.1832104958006868  0.019114405859071315  1.0000
  C   C542      1.0  0.7301061664312074  0.1289801834722826  0.011498755130286087  1.0000
  C   C543      1.0  0.7321546592307964  0.15944528254675516  0.05535657135453986  1.0000
  C   C544      1.0  0.7601457786266557  0.12771101213487196  0.05724088424976692  1.0000
  H   H725      1.0  0.7802748731057407  0.20125563916816033  0.0036385137232686215  1.0000
  H   H726      1.0  0.8000622620896722  0.17691510465695678  0.003036342190791075  1.0000
  H   H727      1.0  0.8031076871799246  0.19882490905460304  0.03675201046124554  1.0000
  H   H728      1.0  0.7222789927549164  0.1443791894560036  0.995752982146313  1.0000
  H   H729      1.0  0.7447389901795018  0.12258459748621067  0.9952904878786638  1.0000
  H   H730      1.0  0.7052697353127008  0.10297221780719824  0.023279269420658277  1.0000
  H   H731      1.0  0.7061554694225496  0.13491518499962007  0.06715157732688315  1.0000
  H   H732      1.0  0.7265693100719314  0.17722125200842925  0.040163585726242346  1.0000
  H   H733      1.0  0.7471069548241699  0.17377636532596952  0.07491694340426536  1.0000
  H   H734      1.0  0.7769668006716735  0.14285238034591485  0.07564765520188543  1.0000
  H   H735      1.0  0.7748441278652585  0.11979858605087848  0.043200304907760056  1.0000
  H   H736      1.0  0.7356210288527678  0.10259557788642347  0.070817350011948  1.0000
  N   N41       1.0  0.18820706426340653  0.569730471720449  0.03493068824124793  1.0000
  C   C545      1.0  0.14922775904386484  0.5464951271288054  0.04282713659096845  1.0000
  C   C546      1.0  0.20430548408857774  0.5611434844373911  0.06115650538009728  1.0000
  C   C547      1.0  0.20102985023697353  0.6081420034830582  0.03145633791653359  1.0000
  C   C548      1.0  0.19830826861493409  0.5631928687849759  0.004163426670556188  1.0000
  H   H737      1.0  0.1407394880566543  0.5511317696053294  0.0657488031854261  1.0000
  H   H738      1.0  0.13861554069554205  0.5172773013008385  0.045943390897583085  1.0000
  H   H739      1.0  0.13633108889148263  0.5521989152985913  0.023318306894811732  1.0000
  H   H740      1.0  0.23378584299500624  0.5794010708437981  0.05671603762377545  1.0000
  H   H741      1.0  0.1961380590995582  0.564344331864008  0.08497114330675298  1.0000
  H   H742      1.0  0.19634114597074317  0.5327608296609455  0.0636540674344556  1.0000
  H   H743      1.0  0.23036500798151172  0.6265100390862421  0.025538392126031314  1.0000
  H   H744      1.0  0.19403138774375078  0.6141899840797113  0.054174558491569554  1.0000
  H   H745      1.0  0.1892144876576885  0.6154464703843895  0.011949522919742862  1.0000
  H   H746      1.0  0.22760065222007236  0.5806269727248953  0.9973792480926739  1.0000
  H   H747      1.0  0.18635506808007654  0.5691227035971664  0.9838984630623283  1.0000
  H   H748      1.0  0.1893544477531999  0.5345587965320983  0.005897595980934932  1.0000
  N   N42       1.0  0.10753066413040956  0.157287357626568  0.990305499462571  1.0000
  C   C549      1.0  0.09595040382318963  0.11977011065965115  0.0024707620775323846  1.0000
  C   C550      1.0  0.10069703117751168  0.16064424851615436  0.9562898995427384  1.0000
  C   C551      1.0  0.1458502314309612  0.1825140846045657  0.9920198595724093  1.0000
  C   C552      1.0  0.08756044921616069  0.16618375208554725  0.010481376570082857  1.0000
  H   H749      1.0  0.06716900661384842  0.09997786770106268  0.0016090653426255042  1.0000
  H   H750      1.0  0.10086689336869903  0.11636159196098557  0.0280446129120282  1.0000
  H   H751      1.0  0.11052100116344625  0.11206442002800385  0.9879846693443294  1.0000
  H   H752      1.0  0.10871296730098089  0.18847980221129124  0.9464347878894502  1.0000
  H   H753      1.0  0.11562248024553066  0.15440685715102714  0.9403142825888624  1.0000
  H   H754      1.0  0.07206269398258702  0.14181601590491194  0.9540153184070107  1.0000
  H   H755      1.0  0.15553273572238108  0.2110750024768494  0.9830946205046249  1.0000
  H   H756      1.0  0.16160037196987312  0.17630374965012632  0.9771900963188181  1.0000
  H   H757      1.0  0.15201963236621888  0.18070976023370858  0.017329176505251676  1.0000
  H   H758      1.0  0.09626010936185012  0.1946306494723164  0.0027123432734916797  1.0000
  H   H759      1.0  0.09138262724586624  0.16285009282996124  0.03643388436746786  1.0000
  H   H760      1.0  0.058620290765658264  0.1481666095174073  0.009110620755740095  1.0000
  N   N43       1.0  0.6089484363119252  0.5234384664272541  0.625683286313385  1.0000
  C   C553      1.0  0.6295588972928168  0.5632514353064009  0.6163779281201227  1.0000
  C   C554      1.0  0.5994196161453637  0.5067982427239832  0.596249414086689  1.0000
  C   C555      1.0  0.5763228867405694  0.5101969378778161  0.6471491146784337  1.0000
  C   C556      1.0  0.630514668588847  0.5135615877428397  0.642978692983082  1.0000
  H   H761      1.0  0.6359634833850184  0.5766357997581213  0.6380889586780001  1.0000
  H   H762      1.0  0.6145130045499128  0.571626564360521  0.602362854489997  1.0000
  H   H763      1.0  0.6549682400355357  0.5743780910771085  0.6011113241535225  1.0000
  H   H764      1.0  0.582838609405074  0.4767295613777938  0.6023655067026011  1.0000
  H   H765      1.0  0.5843343195451925  0.5148938271456625  0.5818608853614974  1.0000
  H   H766      1.0  0.6234105433846683  0.5151493184415016  0.5800614326754275  1.0000
  H   H767      1.0  0.5598533982824198  0.48023536849103843  0.6544935764921573  1.0000
  H   H768      1.0  0.5597951855636246  0.5178217286265829  0.6349718110812874  1.0000
  H   H769      1.0  0.5825598507828945  0.5221170302105361  0.6696968271516506  1.0000
  H   H770      1.0  0.6553047306521939  0.5230751873260513  0.6273449159195126  1.0000
  H   H771      1.0  0.6157550397384758  0.4837019789760308  0.6504891093701892  1.0000
  H   H772      1.0  0.6383190255243744  0.5258830322991912  0.6652294757358516  1.0000
  N   N44       1.0  0.8514443553760539  0.5616750373621802  0.0425111687283406  1.0000
  C   C557      1.0  0.8302536533690741  0.5677759338014459  0.06440725180529827  1.0000
  C   C558      1.0  0.8894178248931048  0.5866754185138174  0.04572594710656608  1.0000
  C   C559      1.0  0.8456344616970244  0.5683148431544894  0.008647338752106881  1.0000
  C   C560      1.0  0.8404487695894227  0.5239053615577176  0.05130421663924767  1.0000
  H   H773      1.0  0.8016948962894108  0.5507293281858058  0.06133424510798102  1.0000
  H   H774      1.0  0.8393165276014041  0.5966233419277077  0.059875506904233156  1.0000
  H   H775      1.0  0.8322911234622439  0.5608400809440801  0.0902897922292063  1.0000
  H   H776      1.0  0.9064274824303139  0.5845119819642365  0.02808515908955278  1.0000
  H   H777      1.0  0.8982653207749588  0.6154453260319461  0.04105199255560077  1.0000
  H   H778      1.0  0.8951359861601678  0.5810564007474024  0.07043524921243582  1.0000
  H   H779      1.0  0.85306926971181  0.5963884433576188  0.0015752919921836472  1.0000
  H   H780      1.0  0.8174591407804691  0.5494547438056446  0.005005164828354891  1.0000
  H   H781      1.0  0.8621646127641456  0.5652389898013679  0.9912549681744508  1.0000
  H   H782      1.0  0.8559586069950967  0.5183966722273832  0.035265674184047135  1.0000
  H   H783      1.0  0.811877790950359  0.5042657012640893  0.04929324613830799  1.0000
  H   H784      1.0  0.8444710573940288  0.5180842478511327  0.07682096739697442  1.0000
  N   N45       1.0  0.7612802704702359  0.6032140574555277  0.43007337611347624  1.0000
  C   C561      1.0  0.7779255151173651  0.625490515558832  0.3974790338312535  1.0000
  C   C562      1.0  0.7883131996693632  0.6031331347246158  0.4479499978301122  1.0000
  C   C563      1.0  0.7328811307893777  0.5657276140754677  0.42697123181907926  1.0000
  C   C564      1.0  0.7459906076417042  0.6184831846606157  0.447867751610838  1.0000
  H   H785      1.0  0.7583845618808169  0.6267323849845834  0.38364018469394756  1.0000
  H   H786      1.0  0.789033016657844  0.6142079209782111  0.3831184987908841  1.0000
  H   H787      1.0  0.799985573670124  0.6537985912779211  0.39873524321358444  1.0000
  H   H788      1.0  0.8104070457811643  0.6310140168385765  0.45036702350673186  1.0000
  H   H789      1.0  0.7767676304897807  0.5870590072529438  0.47291440284626907  1.0000
  H   H790      1.0  0.7998625795565052  0.5911516160837843  0.4353331133090571  1.0000
  H   H791      1.0  0.7199416408084404  0.5482057230051488  0.4511900020612925  1.0000
  H   H792      1.0  0.7433065438716081  0.5533880425977687  0.4132925897418608  1.0000
  H   H793      1.0  0.7118352111042275  0.5647129995833674  0.41383546052225656  1.0000
  H   H794      1.0  0.7664862568789186  0.6469942167529305  0.45011071372453215  1.0000
  H   H795      1.0  0.7339605778259819  0.6027395394610673  0.4728377295154459  1.0000
  H   H796      1.0  0.7247426105943385  0.6179351602029747  0.43545434912742287  1.0000
  N   N46       1.0  0.04188187711416845  0.7830697706244228  0.03771497286628915  1.0000
  C   C565      1.0  0.01575149353843065  0.7661102904198988  0.06723347462699501  1.0000
  C   C566      1.0  0.036678956326541855  0.8078842802830992  0.01645528885307596  1.0000
  C   C567      1.0  0.036973054913163356  0.7546085531723022  0.02020414440191854  1.0000
  C   C568      1.0  0.07807415560130922  0.8035874971266384  0.04703211947124927  1.0000
  H   H797      1.0  0.01969290621284176  0.7481971566701365  0.08436950288911224  1.0000
  H   H798      1.0  0.9881461606922467  0.7489435691791709  0.06131650633860922  1.0000
  H   H799      1.0  0.017728092787934694  0.7867845155194315  0.08043091388522292  1.0000
  H   H800      1.0  0.040268418443023854  0.8298320453590741  0.02873602490423571  1.0000
  H   H801      1.0  0.055628233309100814  0.8209239741883957  0.9937203202470304  1.0000
  H   H802      1.0  0.009568467250374212  0.7933403219495094  0.009140292999812361  1.0000
  H   H803      1.0  0.055668366529374  0.7664053057241613  0.9973878613392361  1.0000
  H   H804      1.0  0.009575191551235878  0.7378309085460331  0.01367167032728925  1.0000
  H   H805      1.0  0.04137439978536601  0.7358450463794267  0.035347856769122006  1.0000
  H   H806      1.0  0.09864149294026497  0.8167765363480202  0.025465681085312192  1.0000
  H   H807      1.0  0.08289693792843376  0.7856344309756529  0.06302508563338621  1.0000
  H   H808      1.0  0.08279174178403234  0.8251895269155756  0.060512407044014734  1.0000
  N   N47       1.0  0.8255072071752749  0.0349202882164521  0.2779851694416252  1.0000
  C   C569      1.0  0.8051186647185916  0.9951936748634386  0.2872475000896576  1.0000
  C   C570      1.0  0.805552999335882  0.04460319154587822  0.25767920947705447  1.0000
  C   C571      1.0  0.8598099373464708  0.04855113914251441  0.25937791035181407  1.0000
  C   C572      1.0  0.8314051085644037  0.05120542206826517  0.3075258401701192  1.0000
  H   H809      1.0  0.79928650025742  0.9819688023712954  0.2654775160638213  1.0000
  H   H810      1.0  0.7795200552714997  0.984222223049237  0.3018457760755652  1.0000
  H   H811      1.0  0.819773872204103  0.9870116445815481  0.30216203437922357  1.0000
  H   H812      1.0  0.7797651635035887  0.03553146242625238  0.27099883774050315  1.0000
  H   H813      1.0  0.8205284911046117  0.0744189287955388  0.24972310101730005  1.0000
  H   H814      1.0  0.8001229304618199  0.032289367535143  0.23546751721177647  1.0000
  H   H815      1.0  0.8756398965078763  0.0783357967856293  0.2515032856156633  1.0000
  H   H816      1.0  0.8560871129501786  0.0364426216340723  0.23708864987347664  1.0000
  H   H817      1.0  0.8759463005661846  0.04235040627973863  0.2741346333741216  1.0000
  H   H818      1.0  0.8467223238068924  0.08118867813044162  0.3013478166096666  1.0000
  H   H819      1.0  0.8465207527120061  0.04463007007676745  0.32350899949416057  1.0000
  H   H820      1.0  0.8058973198260717  0.0414939334392721  0.32188329210828204  1.0000
  N   N48       1.0  0.8236625379860396  0.7073811763618744  0.19766304812046168  1.0000
  C   C573      1.0  0.8586817925238005  0.7321014941744636  0.17778150138493456  1.0000
  C   C574      1.0  0.8184125646822699  0.672672399844239  0.21069351078958576  1.0000
  C   C575      1.0  0.7955313405944106  0.7004245923507806  0.17737606571147424  1.0000
  C   C576      1.0  0.8219744414786592  0.7243212426351331  0.22486597767358374  1.0000
  H   H821      1.0  0.8646585252566454  0.7594713343776512  0.16978957257633004  1.0000
  H   H822      1.0  0.8599645334568085  0.7219430532312483  0.15542738768299608  1.0000
  H   H823      1.0  0.8804255877317576  0.7354051590403171  0.19138695182068619  1.0000
  H   H824      1.0  0.7934095880140923  0.6544769368231764  0.22764046675699812  1.0000
  H   H825      1.0  0.8169218376073794  0.6577959278498569  0.19102100721380896  1.0000
  H   H826      1.0  0.8403051665804901  0.6769175817775388  0.2244952914584323  1.0000
  H   H827      1.0  0.7687601312256725  0.6815017231055951  0.1915188018400773  1.0000
  H   H828      1.0  0.7962951835377575  0.6877137516184206  0.15655066508480062  1.0000
  H   H829      1.0  0.7984250820051557  0.7258891303958498  0.167147746356046  1.0000
  H   H830      1.0  0.7961576516984505  0.7063258395728652  0.2407638974949034  1.0000
  H   H831      1.0  0.8255492103204449  0.7504463323770005  0.2161095654443042  1.0000
  H   H832      1.0  0.8430200684905809  0.7299140911369252  0.2405091115028625  1.0000
  N   N49       1.0  0.3941337029022614  0.07565076554321826  0.2264534087261105  1.0000
  C   C577      1.0  0.374334194540034  0.08555971542540218  0.2061611241141888  1.0000
  C   C578      1.0  0.37100316518655313  0.051192768296790384  0.2566069004480422  1.0000
  C   C579      1.0  0.42553042708407585  0.10876283863671261  0.23455055441676048  1.0000
  C   C580      1.0  0.40569398305459403  0.057301299194950334  0.208473833378388  1.0000
  H   H833      1.0  0.39162430454835745  0.1060349802780032  0.18437333604618586  1.0000
  H   H834      1.0  0.3636572249602921  0.09768673804796278  0.21974220950054177  1.0000
  H   H835      1.0  0.35135138548841743  0.061610609113055353  0.19813555441557992  1.0000
  H   H836      1.0  0.3463901292234196  0.026507919990210623  0.2513564874470291  1.0000
  H   H837      1.0  0.3847805788168879  0.04265372733294717  0.2723912552384825  1.0000
  H   H838      1.0  0.3626278438703143  0.06473735559325987  0.2710355455131407  1.0000
  H   H839      1.0  0.4404985666244879  0.10226151113578925  0.2508256016377145  1.0000
  H   H840      1.0  0.4178068761711561  0.12384558962766266  0.24714350504578084  1.0000
  H   H841      1.0  0.4440806024549983  0.1274229706315328  0.2124163166649381  1.0000
  H   H842      1.0  0.42110110951168883  0.04987218432808677  0.2230877210601253  1.0000
  H   H843      1.0  0.4232563805512481  0.07522687942206689  0.18562015973783969  1.0000
  H   H844      1.0  0.38271200062261324  0.03216297312237774  0.2019383514353928  1.0000
  N   N50       1.0  0.15011755377891478  0.8310510467159015  0.4356275610031965  1.0000
  C   C581      1.0  0.18386525992605937  0.8551384044543621  0.4482719566602564  1.0000
  C   C582      1.0  0.15768895689901252  0.8275708591472926  0.40229717024407624  1.0000
  C   C583      1.0  0.12936407408596082  0.8466687128748561  0.43520587258012017  1.0000
  C   C584      1.0  0.12966244155564385  0.7950223908060335  0.45676244654899945  1.0000
  H   H845      1.0  0.17923917341469442  0.8603420046417779  0.4724807357194339  1.0000
  H   H846      1.0  0.20084310120985585  0.8818958025922958  0.4320208871852996  1.0000
  H   H847      1.0  0.1993954593621424  0.8433191469593223  0.45075874037497776  1.0000
  H   H848      1.0  0.13285390851603746  0.8096098963170297  0.3918750961770343  1.0000
  H   H849      1.0  0.173117696738116  0.8544691176343506  0.3858628028485619  1.0000
  H   H850      1.0  0.17352316800177953  0.8160796065922842  0.4017622904162291  1.0000
  H   H851      1.0  0.14427735520448745  0.8740895534211474  0.4198040053903861  1.0000
  H   H852      1.0  0.12311929183169866  0.849509141407752  0.46008643959724993  1.0000
  H   H853      1.0  0.1038197830508845  0.8293667135296423  0.425540313084381  1.0000
  H   H854      1.0  0.10429589987818572  0.7758363783106647  0.44766028918327  1.0000
  H   H855      1.0  0.12295877664044108  0.7968065667105054  0.48188964001824003  1.0000
  H   H856      1.0  0.1448502975282841  0.7827513604509666  0.45855594434499236  1.0000
  N   N51       1.0  0.7259807804925142  0.3485560313143007  0.5674328663072017  1.0000
  C   C585      1.0  0.7636995346163653  0.3619129331014454  0.5630994628690322  1.0000
  C   C586      1.0  0.7036655406684328  0.31064112631459345  0.5622256079289898  1.0000
  C   C587      1.0  0.7204891231038962  0.37140925530917057  0.5437338120236133  1.0000
  C   C588      1.0  0.7160945112410243  0.3504845990974908  0.6006215683755962  1.0000
  H   H857      1.0  0.7812279420720962  0.3904936717882314  0.5669371249289991  1.0000
  H   H858      1.0  0.7721229682862479  0.3613781082800411  0.5380868919251175  1.0000
  H   H859      1.0  0.7689294512082725  0.34522487243727984  0.5804026467057339  1.0000
  H   H860      1.0  0.6750780153308538  0.3000409665119932  0.5644467775130018  1.0000
  H   H861      1.0  0.7108232215435912  0.30805151597018837  0.5376056180885865  1.0000
  H   H862      1.0  0.7064518795675587  0.29234249327918427  0.5800998425246288  1.0000
  H   H863      1.0  0.692438993498018  0.3625716207849028  0.5464616923490989  1.0000
  H   H864      1.0  0.7274772580753671  0.3705241667685243  0.5183776116898382  1.0000
  H   H865      1.0  0.7372283125217074  0.40019322289924886  0.5468426600053007  1.0000
  H   H866      1.0  0.6877554619762918  0.3406155749168512  0.6045621333521954  1.0000
  H   H867      1.0  0.7323387591075486  0.3788356370040739  0.605194751532752  1.0000
  H   H868      1.0  0.7200020634438375  0.3336628472452013  0.6192343038515961  1.0000
  N   N52       1.0  0.7012548941667338  0.16606419958108098  0.8190012411819261  1.0000
  C   C589      1.0  0.6862182086899036  0.12697460361605173  0.8247816600455221  1.0000
  C   C590      1.0  0.6782211276331975  0.17236389614781364  0.8378998951223939  1.0000
  C   C591      1.0  0.703450119736315  0.1785303227860721  0.7840948146474833  1.0000
  C   C592      1.0  0.7369868020174848  0.18631202681621345  0.829305873344714  1.0000
  H   H869      1.0  0.7028049552238987  0.12115001798214761  0.8108054131372165  1.0000
  H   H870      1.0  0.6591500686112413  0.11086649631087801  0.8173735149355627  1.0000
  H   H871      1.0  0.6840455878309202  0.1165677431951189  0.8509098733515504  1.0000
  H   H872      1.0  0.689133072469821  0.201620054299021  0.8349815731894155  1.0000
  H   H873      1.0  0.651284952886239  0.15824841380947008  0.8302736206833038  1.0000
  H   H874      1.0  0.6750130923498411  0.16218390286420997  0.864193045779215  1.0000
  H   H875      1.0  0.7142330103808554  0.20779582638725314  0.7788676663277954  1.0000
  H   H876      1.0  0.6767664788322552  0.16347742798945675  0.7757224630128082  1.0000
  H   H877      1.0  0.7206113826177483  0.1742222596745187  0.7690125466133388  1.0000
  H   H878      1.0  0.749190480009012  0.215923035001836  0.8252246721235078  1.0000
  H   H879      1.0  0.755061902329764  0.18189165932783372  0.8158868563668057  1.0000
  H   H880      1.0  0.7360165087773864  0.17770613459406326  0.8556636419876955  1.0000
  N   N53       1.0  0.1156164398713211  0.7153869887804305  0.6482736548885926  1.0000
  C   C593      1.0  0.08013742036515413  0.7063363706132895  0.6428762147379505  1.0000
  C   C594      1.0  0.12442841959846007  0.6958778801425494  0.6288408407199945  1.0000
  C   C595      1.0  0.11558355975820578  0.7044121853524546  0.6830533856926213  1.0000
  C   C596      1.0  0.14225504311543652  0.7548069103912926  0.6383113983598555  1.0000
  H   H881      1.0  0.07244758874275582  0.7203217911465849  0.657360873271493  1.0000
  H   H882      1.0  0.05941340809956531  0.6767095969353796  0.6499298186097878  1.0000
  H   H883      1.0  0.07910049491796162  0.7141880152181111  0.6169174527290847  1.0000
  H   H884      1.0  0.12393723559590523  0.7028030755659697  0.6025046468768752  1.0000
  H   H885      1.0  0.1512335966873607  0.7024329578022431  0.6318240711972689  1.0000
  H   H886      1.0  0.10523299545953704  0.6660715273936308  0.6362006691113518  1.0000
  H   H887      1.0  0.14167892961377265  0.7101007043133929  0.688023342439919  1.0000
  H   H888      1.0  0.09539567164416426  0.6748326255886072  0.6913097082747249  1.0000
  H   H889      1.0  0.10926637931368546  0.7187257637444827  0.6985262555531475  1.0000
  H   H890      1.0  0.1692871901397621  0.7626194808854619  0.6423208931302079  1.0000
  H   H891      1.0  0.1361763663798373  0.7704774454539187  0.6520827599777229  1.0000
  H   H892      1.0  0.143258844581848  0.7637872095922442  0.6120517605981063  1.0000
  N   N54       1.0  0.5373781594585809  0.7693705400008339  0.017730254824503744  1.0000
  C   C597      1.0  0.5335348162005201  0.795603065475748  0.03135204780867196  1.0000
  C   C598      1.0  0.5594707240243194  0.7619441741539769  0.03709035438480046  1.0000
  C   C599      1.0  0.5543821367917707  0.7844925964302603  0.9837303045375084  1.0000
  C   C600      1.0  0.5020257617887672  0.7353479282686062  0.018803921698027803  1.0000
  H   H893      1.0  0.5202612981906688  0.7846917250098467  0.05685913277745569  1.0000
  H   H894      1.0  0.5169345759283825  0.8017312481550475  0.01735532354723568  1.0000
  H   H895      1.0  0.5596793078863392  0.8215709116262866  0.03111383834422421  1.0000
  H   H896      1.0  0.5622694335459308  0.7416679528722377  0.027813703118689803  1.0000
  H   H897      1.0  0.5865410908082286  0.786894614887482  0.03657298326482361  1.0000
  H   H898      1.0  0.5474128802787526  0.7507575727756558  0.06290238828467132  1.0000
  H   H899      1.0  0.5815093538620578  0.8096612016161476  0.9819093749623986  1.0000
  H   H900      1.0  0.5387461882061986  0.7911491355841601  0.9685979954686506  1.0000
  H   H901      1.0  0.5563424715537592  0.7647052762346884  0.9723636677599133  1.0000
  H   H902      1.0  0.5037954545990708  0.7142449478478916  0.0099756126515953  1.0000
  H   H903      1.0  0.4852940995395586  0.7395301461082728  0.00321220363109731  1.0000
  H   H904      1.0  0.4875612005831467  0.7241162848976996  0.043827420178104814  1.0000
  N   N55       1.0  0.6105356604025124  0.3825716879304422  0.22649024661765632  1.0000
  C   C601      1.0  0.6050905235998801  0.41161140094472054  0.22685606234868722  1.0000
  C   C602      1.0  0.5936612811861648  0.35653738807760477  0.25737719953737176  1.0000
  C   C603      1.0  0.6489007226730975  0.3986325803714718  0.2224749304856429  1.0000
  C   C604      1.0  0.5945682922654846  0.36360892093300085  0.1991876348806637  1.0000
  H   H905      1.0  0.6173940219105992  0.43158199640892403  0.20377882361935168  1.0000
  H   H906      1.0  0.6171863811862054  0.42674167511621314  0.24698809905746663  1.0000
  H   H907      1.0  0.5764231168020972  0.400505710885986  0.22993583726019048  1.0000
  H   H908      1.0  0.5972689469270993  0.33425932376604833  0.25788826948837884  1.0000
  H   H909      1.0  0.6049806588857453  0.36999882715588017  0.2784981061001326  1.0000
  H   H910      1.0  0.5646186026841301  0.3437868231482526  0.2611216075730928  1.0000
  H   H911      1.0  0.6541502460212332  0.37762456362430297  0.22179307258969602  1.0000
  H   H912      1.0  0.6619077521337592  0.4131621498441725  0.24264925512493565  1.0000
  H   H913      1.0  0.6623304598238413  0.41851878394935643  0.19944303515160006  1.0000
  H   H914      1.0  0.605920369292544  0.38277095911049286  0.1756002806876167  1.0000
  H   H915      1.0  0.5653861405991522  0.35007559814983186  0.20202438816721363  1.0000
  H   H916      1.0  0.5994733184751013  0.3424862218560632  0.1973356689714626  1.0000
  N   N56       1.0  0.287532518046222  0.1419026102610497  0.05367209865733713  1.0000
  C   C605      1.0  0.30291818739628645  0.12290810121856226  0.043768415704038555  1.0000
  C   C606      1.0  0.3087838069090699  0.17958924131053938  0.03599708093395848  1.0000
  C   C607      1.0  0.28778430458811266  0.14198019916312096  0.08890334196024097  1.0000
  C   C608      1.0  0.25074370018597575  0.12323293605538249  0.04592208318321367  1.0000
  H   H917      1.0  0.28736027092881855  0.09421977937520502  0.056432338067004206  1.0000
  H   H918      1.0  0.3305286280418233  0.13588827648267784  0.04964959020694781  1.0000
  H   H919      1.0  0.3035661498016893  0.12268554740844449  0.017224190524503635  1.0000
  H   H920      1.0  0.29752137385093735  0.19455297436585395  0.04233350127765978  1.0000
  H   H921      1.0  0.33651718233155237  0.19466962895806514  0.04183213147117737  1.0000
  H   H922      1.0  0.309678182486273  0.1803715579944839  0.009329285014188393  1.0000
  H   H923      1.0  0.3150805383172789  0.1553025523052776  0.09567041814142052  1.0000
  H   H924      1.0  0.2717145805980246  0.1140163931516335  0.10299384814955492  1.0000
  H   H925      1.0  0.2765986573914688  0.15634639540318357  0.09720722100745327  1.0000
  H   H926      1.0  0.23819708567646317  0.13673465221338885  0.053183434396138596  1.0000
  H   H927      1.0  0.23400672324013877  0.09460706623276753  0.058773895972619394  1.0000
  H   H928      1.0  0.24974032636438068  0.1229292133514284  0.01940640014581896  1.0000
  N   N57       1.0  0.4248244859887531  0.03269335044276094  0.6370091163078648  1.0000
  C   C609      1.0  0.4442017512571687  0.02907905218748121  0.6628903779613924  1.0000
  C   C610      1.0  0.4473077474981924  0.06942352033845622  0.6173204724845474  1.0000
  C   C611      1.0  0.3919621626503009  0.02677329718648441  0.6516783628898115  1.0000
  C   C612      1.0  0.4159389547408603  0.005629658076498518  0.6160347233405283  1.0000
  H   H929      1.0  0.4283074579526951  0.0016539922735440652  0.6781678729775111  1.0000
  H   H930      1.0  0.45150711969713203  0.04920940430106698  0.6791502619772369  1.0000
  H   H931      1.0  0.4694721311327944  0.03398035874064232  0.6525864693377076  1.0000
  H   H932      1.0  0.433543424302659  0.07340781574322487  0.5976728205917036  1.0000
  H   H933      1.0  0.45571923727304314  0.09075103910292823  0.6324445047677999  1.0000
  H   H934      1.0  0.47180994472046595  0.07429507092345643  0.6053980321159541  1.0000
  H   H935      1.0  0.37675695415488425  0.029252856501731265  0.6326775837630029  1.0000
  H   H936      1.0  0.3979057070452489  0.04700906434561898  0.6674424876941704  1.0000
  H   H937      1.0  0.374376732772734  0.9993609921013231  0.6668520314620522  1.0000
  H   H938      1.0  0.39873374631488145  0.9775297659712121  0.6299159948379015  1.0000
  H   H939      1.0  0.44027086631776907  0.009362587863941004  0.6047052906562046  1.0000
  H   H940      1.0  0.4019329476794231  0.008080760942123287  0.5958126243285213  1.0000
  N   N58       1.0  0.36679194704460244  0.7513066579237425  0.3700911435707658  1.0000
  C   C613      1.0  0.39057067497726033  0.7393945633365224  0.3680628735911934  1.0000
  C   C614      1.0  0.3426974064044748  0.7327481522850586  0.40094244332866025  1.0000
  C   C615      1.0  0.3457193460764751  0.7419251900934313  0.3426044041248616  1.0000
  C   C616      1.0  0.3882361231085706  0.7909578115471088  0.3686792312685547  1.0000
  H   H941      1.0  0.4077416200894702  0.7470446785976667  0.38779188320021907  1.0000
  H   H942      1.0  0.4081316563534792  0.7516604073299978  0.34449282439104145  1.0000
  H   H943      1.0  0.3752706122267124  0.7095023309236012  0.37027112970481896  1.0000
  H   H944      1.0  0.3243473032346586  0.7410950687112756  0.4034616353902379  1.0000
  H   H945      1.0  0.3261308038077341  0.7027348838411024  0.4024588870563383  1.0000
  H   H946      1.0  0.35769972066266725  0.7388176555024965  0.4222302348118492  1.0000
  H   H947      1.0  0.32686088908071426  0.7497702194498093  0.34370416524489966  1.0000
  H   H948      1.0  0.32991764154361763  0.7122268959506829  0.3425177866927953  1.0000
  H   H949      1.0  0.36305077011806547  0.7559430539322274  0.3189245864958316  1.0000
  H   H950      1.0  0.37127025993512136  0.8010843317157486  0.3700477180926883  1.0000
  H   H951      1.0  0.40684145572159947  0.8055782709399635  0.3456899690836785  1.0000
  H   H952      1.0  0.40467649383974474  0.7990469143578726  0.38896891275986384  1.0000
  N   N59       1.0  0.4768403366961385  0.5726642499363089  0.6834877528729245  1.0000
  C   C617      1.0  0.45025301818501245  0.5494794992661998  0.7122320199353863  1.0000
  C   C618      1.0  0.46166607835804485  0.5856981413838013  0.6598316678121876  1.0000
  C   C619      1.0  0.4868453237007894  0.5514677416413976  0.6683214275889784  1.0000
  C   C620      1.0  0.5085751335589032  0.6038919093245662  0.6936036343925089  1.0000
  H   H953      1.0  0.46085244824901894  0.5390867381891477  0.7305044508188279  1.0000
  H   H954      1.0  0.42592050876964965  0.5256663028345196  0.7054804872144969  1.0000
  H   H955      1.0  0.4422450939541134  0.5646944033311873  0.7243930472255241  1.0000
  H   H956      1.0  0.48099259130552213  0.6032879787377389  0.6378130417178787  1.0000
  H   H957      1.0  0.43800325741015045  0.5628101741546344  0.6512724576958572  1.0000
  H   H958      1.0  0.4535808090579875  0.6016667079636561  0.6703750507633351  1.0000
  H   H959      1.0  0.506873409210515  0.5682048053112857  0.6466189693619433  1.0000
  H   H960      1.0  0.46366227749115335  0.5278551254370126  0.6600560414105184  1.0000
  H   H961      1.0  0.4986792700267462  0.5413922332532108  0.6853320294552306  1.0000
  H   H962      1.0  0.5297403107547207  0.6213821084687972  0.6727386483774029  1.0000
  H   H963      1.0  0.520123608157832  0.5949151036012854  0.7120724430680944  1.0000
  H   H964      1.0  0.5023234901156292  0.6211221437286246  0.7044100139469333  1.0000
  N   N60       1.0  0.9905281376751789  0.1578106329039987  0.21877463684417411  1.0000
  C   C621      1.0  0.993440958010578  0.19022865900404437  0.20204732194162628  1.0000
  C   C622      1.0  0.952968412115447  0.127210108367135  0.22620074771263599  1.0000
  C   C623      1.0  0.006997936919073591  0.16552671220275209  0.24902874657320528  1.0000
  C   C624      1.0  0.008818961705398197  0.1480306326977107  0.19769783853395004  1.0000
  H   H965      1.0  0.02152702202203123  0.21401316719411234  0.1965097583170981  1.0000
  H   H966      1.0  0.979273836074148  0.19788311186974447  0.217221940909436  1.0000
  H   H967      1.0  0.9818835767827372  0.1856542552612847  0.178779829922547  1.0000
  H   H968      1.0  0.9400140095547567  0.1206020936088898  0.2038105341238484  1.0000
  H   H969      1.0  0.9498474603535043  0.10251439085557432  0.23938492157513133  1.0000
  H   H970      1.0  0.9383958706131198  0.1338876389691464  0.24166968299300576  1.0000
  H   H971      1.0  0.03533100145232344  0.18904259181178765  0.2441214160476223  1.0000
  H   H972      1.0  0.006678229767933085  0.14216733763691555  0.2614235368340602  1.0000
  H   H973      1.0  0.993061529375267  0.17161306510119537  0.2663369503413437  1.0000
  H   H974      1.0  0.9980156347662295  0.1429085671738629  0.1742855721038032  1.0000
  H   H975      1.0  0.007048037318291738  0.12356618080893604  0.2094705491567374  1.0000
  H   H976      1.0  0.0371439093742693  0.1701940873705861  0.192199861101575  1.0000
  N   N61       1.0  0.03446669702245286  0.9584620851675868  0.8286352597590146  1.0000
  C   C625      1.0  0.040985200812931576  0.9395927311035007  0.8557765981828426  1.0000
  C   C626      1.0  0.06860926703827973  0.9883051436572101  0.8095867357342187  1.0000
  C   C627      1.0  0.01615659771333359  0.9733773522669052  0.8417017720948796  1.0000
  C   C628      1.0  0.012074441179567234  0.9326151226680885  0.8075695815612813  1.0000
  H   H977      1.0  0.05459071231490533  0.9277317561469428  0.8469775072218259  1.0000
  H   H978      1.0  0.015759379304920693  0.9171266930750198  0.8709088743541026  1.0000
  H   H979      1.0  0.05788092900493938  0.9584250923062411  0.8720977886498489  1.0000
  H   H980      1.0  0.06475360182488311  0.0033439988270736157  0.788973756958676  1.0000
  H   H981      1.0  0.08608005064850016  0.008459335648699653  0.8247402515493851  1.0000
  H   H982      1.0  0.0833354165134225  0.9782191836903261  0.799365210408896  1.0000
  H   H983      1.0  0.9902208743321832  0.9516942452066016  0.8562752032369263  1.0000
  H   H984      1.0  0.011323620073935942  0.9884592654715351  0.82205274816892  1.0000
  H   H985      1.0  0.03211433898345602  0.9924673223062931  0.8581125203913511  1.0000
  H   H986      1.0  0.006605274229882104  0.9460244430249153  0.7868837084552691  1.0000
  H   H987      1.0  0.9861262805425709  0.9097715055883234  0.8213236716001558  1.0000
  H   H988      1.0  0.025099231217430917  0.9208120332411109  0.797293789956703  1.0000
  N   N62       1.0  0.658982270651803  0.7922885478207969  0.20434269146134593  1.0000
  C   C629      1.0  0.6256940332334456  0.7702365945945007  0.19037916194659574  1.0000
  C   C630      1.0  0.6659399996098978  0.8279240576148237  0.2064163993264092  1.0000
  C   C631      1.0  0.6884799366724811  0.7974484083256259  0.18334343394089553  1.0000
  C   C632      1.0  0.6556089737420067  0.7733030985802928  0.23710174183266317  1.0000
  H   H989      1.0  0.6196157377811213  0.7431444409153879  0.18883471262785925  1.0000
  H   H990      1.0  0.6274604224177651  0.783180300684969  0.16541151605777785  1.0000
  H   H991      1.0  0.6027512223431865  0.7658973973691303  0.2052964543311188  1.0000
  H   H992      1.0  0.6440895239720826  0.8251045469520705  0.22183262378077168  1.0000
  H   H993      1.0  0.690982785475713  0.8454524863239762  0.21671435198390857  1.0000
  H   H994      1.0  0.6684700744821344  0.8427474572385072  0.18202839434106902  1.0000
  H   H995      1.0  0.714102424620648  0.8138335777828277  0.19313493680758642  1.0000
  H   H996      1.0  0.6917421318645517  0.8117576547277728  0.1584291201108615  1.0000
  H   H997      1.0  0.6837932606205498  0.7710552686139355  0.18075949241227762  1.0000
  H   H998      1.0  0.6803150040406866  0.7888882569344113  0.24844694044743215  1.0000
  H   H999      1.0  0.6497832732849455  0.7460465375573009  0.23625430895256655  1.0000
  H   H1000     1.0  0.6334969381256006  0.7689169605965118  0.2535012759936121  1.0000
  N   N63       1.0  0.5488257473122615  0.13770580444079833  0.0069650745519389545  1.0000
  C   C633      1.0  0.5664312745693395  0.15382969905871308  0.9732159158013608  1.0000
  C   C634      1.0  0.5691555545864024  0.1639304118685118  0.02842305503665221  1.0000
  C   C635      1.0  0.5472486016639695  0.10448075667270465  0.017479901950137045  1.0000
  C   C636      1.0  0.5124874178905874  0.1286210961026323  0.008892875396085964  1.0000
  H   H1001     1.0  0.568931294005664  0.1795079143469478  0.9649521698748251  1.0000
  H   H1002     1.0  0.5510574562137667  0.13528002157616498  0.9562070458543133  1.0000
  H   H1003     1.0  0.5935062145022474  0.15986922820839816  0.9705502180584312  1.0000
  H   H1004     1.0  0.5565298399269394  0.1524658341043884  0.054000163990669314  1.0000
  H   H1005     1.0  0.5967006041363784  0.17130908308777812  0.027733652019522603  1.0000
  H   H1006     1.0  0.570498202876271  0.18919000095061803  0.02155988116808838  1.0000
  H   H1007     1.0  0.5351921738381341  0.09241159066416274  0.0432480986685837  1.0000
  H   H1008     1.0  0.5741820612910551  0.11016407064079013  0.015531795216808586  1.0000
  H   H1009     1.0  0.531100616546894  0.08358764636519948  0.002466737392299523  1.0000
  H   H1010     1.0  0.5125806285013877  0.15297703453456257  0.0006840585847871505  1.0000
  H   H1011     1.0  0.4986910391842  0.11716906977256664  0.03418785608720554  1.0000
  H   H1012     1.0  0.49615657491647464  0.10829908181157673  0.9934593687075839  1.0000
  N   N64       1.0  0.12110185228545502  0.013564741842502798  0.20066148947376894  1.0000
  C   C637      1.0  0.1394959466780141  0.012830756277707172  0.22864491868691508  1.0000
  C   C638      1.0  0.12303721717707279  0.047429376145895444  0.19599596299301889  1.0000
  C   C639      1.0  0.0836594709343279  0.9821272623434283  0.20687630300878265  1.0000
  C   C640      1.0  0.1381635653706528  0.011903995430042003  0.1711121327337313  1.0000
  H   H1013     1.0  0.16762316580571912  0.036641194369340234  0.22498683847045545  1.0000
  H   H1014     1.0  0.13898818100753654  0.9878719283979518  0.23300481207937188  1.0000
  H   H1015     1.0  0.12713948476557563  0.013945541096779262  0.25127232361162766  1.0000
  H   H1016     1.0  0.1508777903462337  0.07165490861443151  0.19158001945134662  1.0000
  H   H1017     1.0  0.10951689943121347  0.049201602982249376  0.17509316969088265  1.0000
  H   H1018     1.0  0.11036430914329497  0.04950826157821766  0.2178579084784192  1.0000
  H   H1019     1.0  0.06998852795553616  0.9820276712311039  0.22921693222515813  1.0000
  H   H1020     1.0  0.0811988392201157  0.956105725420161  0.20994958581339315  1.0000
  H   H1021     1.0  0.06871060752274134  0.9826710096679048  0.18675015809806203  1.0000
  H   H1022     1.0  0.12480561484238388  0.012427114714290779  0.14963249337371978  1.0000
  H   H1023     1.0  0.13755883997716684  0.9868313217731925  0.17392450643962576  1.0000
  H   H1024     1.0  0.1662996348887204  0.035300648502183556  0.16540658269641673  1.0000
