data_image0
_chemical_formula_structural       NSHFeHS2FeSH2C2SH4SCHCH2SHC3H3FeSH6CH2FeHC3NCH3S2HFeHFeCHCHC2HC2H3CH6NCSCSFeS2FeHFeSCH2CH3FeH2NHSCH8C2NH2CH3C3H4C6HC3SHCH2CSHCHCHC4HS2C2H4CH2FeH3CH6C4SCHC3H2SHSC2NHCNCSCHCH4C3H11CSFeH2FeH2FeHSHCSHSHSHFeH3CNC2HCH3CHSHCHCNHNC2HCSCH4CH3CFeCSCHCH3C2H6SH2CH3CHNH2FeHCHNCHCSH2SFeSFeS2FeNCH2CHFeSCHC2HC4H5C2SFeS2FeSFeSHSC2H2C2H4CNC2H6C2H2CH5CH2C2H3SCH2C2SC2H2CH2CH3CSCH3CHFeC4H2C3HFeC3SCH2CSHFeSNFeH8S2H2SFeS6Fe2C4H3CHCH2C3H5SCH2CHFeS2H2S3C6H5FeHCH2NSHNHCFeCS2H2CH4CSH2CH2CHCH2CHFeSCHFeH2SHFeCH6NH2CH2CH3SH2CFeSFeS2FeSFeS3FeCHC5H4NH3C2H2CH2CH4C4H2C5H2NCSC2H2CH2CHCSNH2CH5C3H3CHC2H2C2HSHCH2C2HSFeH2C2H4S3FeSHFeS2FeHFeSHSH2NC2HC2SC2HC2H4CHCH2SH3SCH3C3H3CH2CH2CH6FeN2FeCSC3HCSCHCHFeSHFeSH2CH2C2HCSFeSFeSCFeSHFe2S3CHC6H4C2SNFeHSNH3SCH4CH4CHCSH2SH2CH4CHC2SH2SHFeNC3HCH7FeS2FeSCFeSFeCS2C2H3C2H2C2H2C2HSCHNHC7H7CHCH3SH3N2HCHCH4C2HCH3CH2CH2FeHCH5C2FeHSFeSHFeSCHSHFeSFeS2FeSFeS3C2H4CHC3SH6CHCHCFeCH2C3NHCH2SNHC2NCHSCH3C2HCH3CSH2CHC2HCH3SHCHSHFeSHSC3HFeS3H2CSHC2H2CH3CS2CNH3CH2CH3CH2NH3CH8C2HSHNH2Fe2HCH4C2HSCH2CH2NC6H2CH2FeH4CHS2HCHC2H2CSH4C4NH3CH3SCHSHCH4CHC4FeNHC2HSCH3CSHCH3SH3SHCH5C3HCHS2H2FeSC2HFeH2FeHSCSH3FeC3HC2HSHC2NHCHSHCH5CHC2SCS2HFeHC2SNHCH3CHC2HNCHFeCHFeH2CH3CHCHCH8CFeS2H3S2FeCH2CFeSNCH3CHCH2FeH2CHCH2SCHCH3SCNCHCHCHCH3CHC2HCNHSH5SC2H4SHCHCH4CHCHCHFeCH2CH2CH2NCH2CSC6H4SC3HCH4FeNHCHCH2CHSH2CH3S2H2C2H3CH4C2H4CFeH2CHCH2S3C2HSCHFeH2SC2HC4H2NFeCHC2HCH2FeHCH3CSCH4CH2C2HCH3C2HNHC2H2C2HCH4SCNHCH2SC2HCH2SH2C2H4CHCSHFeCH2SFe2S2FeS2H2C2HCH3SC2HCH4CSCH4CH3C2H2C2HNHFe2H6SH2SHC2HCHCH3NH2CSHFeCSHSFeS2FeHFeSCSCHSC3H2C3H2SH3NC2H5CHFeH3CHCHSC6N2HC3HCH5SH3SCH3CH5CH3SFeH3C3HCHCFeHNCS2HCH2C2H4C2H5CSH5C3H3FeSH3SHSNSFeH2SH2CH3CH3CH2CH2CSNC4HC2SNH9CFeCHFeH3CHCHCH2C2FeCH5CHC3SFeSFeH2FeH4CHNCS2H3C3H4C2H2SFeS2FeNFeS3C6HCH2C2FeHC2H2CHNHCHSHCH2CH4C2H3CH2CH3SCHCS2H6CHCH4C3HC2HNCNHCHCSHFe4SC3H5C2SH4FeH3CH2S2FeS3CS2CSC5H5CSH5SCNCHCHCHFeH2CHSFeCH3SHFeS2FeHS3C6H6C2SH3CFeH4CH3CSH2CFeCSNSHCH3FeNCSHCH3CHFeH2CH3CHSFeS2FeSFeS3FeHC5HCH2SH2CNHSHCH2C3H2SC4H2C7H2CHCH2SHC4H3NH3CHC4H3C2H8Fe2H3C2H3CH3NFeHCH2C2H2CHSFeSHFeS2FeSFeSHS2NH3NSFeC3HCHC5HCH2FeH5C3H2S2H2CHCH3CHS2HCS2H2C2H3CH6FeHSHC2FeH2FeS2FeS2Fe2S4HC6H7C2HNHCHFeHCH3NC4HSH2SH6NHCHCHCH3C2HS2HSHC2H2CH3CH2CH3CH2CHFeH3CHFeS2FeSHFeSFeS2C2H3SCH4NH2CH3C2H3C6H5CHCHCHCSCSHCSC2H2CHCH2C2HCFeSHFeSHFeSCHSCFeSFeS2FeSFeS3C3FeCFeSC2H6C2HCH3CHCH2CSCHSCHC2H2NCHCH5C2H2SCNH6NH2C2HSH2CH4C3HCHCH3NCHCH3CH3CFeCHSFe2SHC3H4FeCH2CSH3S2CSHSCHCSH6NSCHSH2NH4C3HC4H4FeC2H4SHCHSHC2HCHCHC4H4FeSFeH2SCHCSC2HC4SHNH2CH2C2H4SFeCHC2H5C2H2CSHCH2SH2CNHSH2CH3CHCNH5CHCHC2SH2FeHCH2CH2C2SC2H3FeHSCSH7FeHCHSCH2C6HCH4SHFeH4C2HCSC2SH4C3NH2CNHCSHCHNHCFeSHFeH2CH4NSHFeSHSFeHSH3S2FeH2NCH2CH2NCH3SCH4FeSNHC2HCSCH2SHC2HSHCHCH2CH3CH2CHCH2SH2FeSC5HSCH2C2HCH2CFeSC5H5C2H4CH2CHCNHCH2CH5CHCFeC2HSH3NS2H2CH2C3HC2H2C4H2CH3SH2FeC3H3NCH7CHSCHCH2CSCH3FeSFeCHC2SCHCH2CH2CNC2H5CFeSHCHC3HC
_chemical_formula_sum              "N96 S384 H1536 Fe192 C960"
_cell_length_a       45.9738
_cell_length_b       44.0154
_cell_length_c       38.5892
_cell_angle_alpha    91.1839
_cell_angle_beta     90.1777
_cell_angle_gamma    119.963

_space_group_name_H-M_alt    "P 1"
_space_group_IT_number       1

loop_
  _space_group_symop_operation_xyz
  'x, y, z'

loop_
  _atom_site_type_symbol
  _atom_site_label
  _atom_site_symmetry_multiplicity
  _atom_site_fract_x
  _atom_site_fract_y
  _atom_site_fract_z
  _atom_site_occupancy
  N   N1        1.0  0.14492  0.16029  0.25205  1.0000
  S   S1        1.0  0.05922  0.04856  0.27020  1.0000
  H   H1        1.0  0.01108  0.28759  0.20600  1.0000
  Fe  Fe1       1.0  0.13024  0.29605  0.22662  1.0000
  H   H2        1.0  0.03655  0.31939  0.17458  1.0000
  S   S2        1.0  0.11248  0.27731  0.17218  1.0000
  S   S3        1.0  0.03422  0.04807  0.17615  1.0000
  Fe  Fe2       1.0  0.03137  0.06969  0.30130  1.0000
  S   S4        1.0  0.11500  0.25506  0.26639  1.0000
  H   H3        1.0  0.03778  0.21518  0.26739  1.0000
  H   H4        1.0  0.01116  0.22338  0.23983  1.0000
  C   C1        1.0  0.11071  0.30965  0.14825  1.0000
  C   C2        1.0  0.09818  0.30196  0.11421  1.0000
  S   S5        1.0  0.18333  0.32767  0.24504  1.0000
  H   H5        1.0  0.09150  0.12597  0.24997  1.0000
  H   H6        1.0  0.16108  0.03936  0.27626  1.0000
  H   H7        1.0  0.16557  0.21476  0.24079  1.0000
  H   H8        1.0  0.08914  0.27596  0.10301  1.0000
  S   S6        1.0  0.07689  0.25902  0.98340  1.0000
  C   C3        1.0  0.25073  0.13149  0.29325  1.0000
  H   H9        1.0  0.08850  0.32203  0.06788  1.0000
  C   C4        1.0  0.15076  0.13102  0.24282  1.0000
  H   H10       1.0  0.21312  0.03999  0.25994  1.0000
  H   H11       1.0  0.04560  0.16519  0.25640  1.0000
  S   S7        1.0  0.04707  0.27631  0.31054  1.0000
  H   H12       1.0  0.03717  0.21726  0.18675  1.0000
  C   C5        1.0  0.09782  0.32804  0.09433  1.0000
  C   C6        1.0  0.04099  0.19723  0.19995  1.0000
  C   C7        1.0  0.15041  0.01187  0.28474  1.0000
  H   H13       1.0  0.13329  0.10682  0.25678  1.0000
  H   H14       1.0  0.12838  0.14227  0.30360  1.0000
  H   H15       1.0  0.14361  0.18818  0.29799  1.0000
  Fe  Fe3       1.0  0.08804  0.31526  0.97893  1.0000
  S   S8        1.0  0.05926  0.13094  0.30917  1.0000
  H   H16       1.0  0.10479  0.17178  0.24866  1.0000
  H   H17       1.0  0.10888  0.14924  0.21103  1.0000
  H   H18       1.0  0.22515  0.16035  0.28445  1.0000
  H   H19       1.0  0.17027  0.18904  0.20686  1.0000
  H   H20       1.0  0.14696  0.12458  0.21455  1.0000
  H   H21       1.0  0.05384  0.18787  0.00048  1.0000
  C   C8        1.0  0.03461  0.18798  0.98433  1.0000
  H   H22       1.0  0.17674  0.13752  0.24969  1.0000
  H   H23       1.0  0.04184  0.17949  0.17950  1.0000
  Fe  Fe4       1.0  0.16773  0.28875  0.28796  1.0000
  H   H24       1.0  0.17265  0.17242  0.30027  1.0000
  C   C9        1.0  0.02096  0.15190  0.24244  1.0000
  C   C10       1.0  0.11107  0.15153  0.23980  1.0000
  C   C11       1.0  0.14748  0.16596  0.29010  1.0000
  N   N2        1.0  0.01436  0.17761  0.22528  1.0000
  C   C12       1.0  0.17032  0.19265  0.23546  1.0000
  H   H25       1.0  0.05578  0.31284  0.21201  1.0000
  H   H26       1.0  0.02836  0.07089  0.10885  1.0000
  H   H27       1.0  0.20914  0.01642  0.29837  1.0000
  S   S9        1.0  0.11414  0.32885  0.25627  1.0000
  S   S10       1.0  0.20647  0.26998  0.28909  1.0000
  H   H28       1.0  0.19607  0.20113  0.24552  1.0000
  Fe  Fe5       1.0  0.01842  0.03215  0.23074  1.0000
  H   H29       1.0  0.06622  0.21140  0.21266  1.0000
  Fe  Fe6       1.0  0.10066  0.28923  0.29785  1.0000
  C   C13       1.0  0.01408  0.20225  0.25173  1.0000
  H   H30       1.0  0.16608  0.01669  0.21742  1.0000
  C   C14       1.0  0.22393  0.13815  0.29722  1.0000
  H   H31       1.0  0.03123  0.00017  0.03007  1.0000
  C   C15       1.0  0.03343  0.31408  0.20283  1.0000
  C   C16       1.0  0.20200  0.01315  0.27048  1.0000
  H   H32       1.0  0.02302  0.01713  0.06936  1.0000
  C   C17       1.0  0.24852  0.10243  0.30969  1.0000
  C   C18       1.0  0.24229  0.23778  0.30802  1.0000
  H   H33       1.0  0.02133  0.13262  0.22359  1.0000
  H   H34       1.0  0.00270  0.13169  0.98475  1.0000
  H   H35       1.0  0.00410  0.30705  0.26429  1.0000
  C   C19       1.0  0.00338  0.05307  0.11794  1.0000
  H   H36       1.0  0.21407  0.99948  0.25769  1.0000
  H   H37       1.0  0.13739  0.18923  0.40958  1.0000
  H   H38       1.0  0.08889  0.16386  0.45733  1.0000
  H   H39       1.0  0.23688  0.02163  0.37205  1.0000
  H   H40       1.0  0.08052  0.21391  0.44274  1.0000
  H   H41       1.0  0.10239  0.13864  0.36956  1.0000
  N   N3        1.0  0.04168  0.16304  0.45826  1.0000
  C   C20       1.0  0.23652  0.20789  0.36223  1.0000
  S   S11       1.0  0.14935  0.25998  0.41631  1.0000
  C   C21       1.0  0.22908  0.14265  0.48051  1.0000
  S   S12       1.0  0.06220  0.02345  0.35182  1.0000
  Fe  Fe7       1.0  0.06784  0.03640  0.44945  1.0000
  S   S13       1.0  0.09173  0.08147  0.41373  1.0000
  S   S14       1.0  0.07676  0.04865  0.50652  1.0000
  Fe  Fe8       1.0  0.04187  0.05290  0.38432  1.0000
  H   H42       1.0  0.10534  0.25213  0.35604  1.0000
  Fe  Fe9       1.0  0.10898  0.04872  0.38411  1.0000
  S   S15       1.0  0.16141  0.06191  0.36434  1.0000
  C   C22       1.0  0.01076  0.30073  0.40560  1.0000
  H   H43       1.0  0.01539  0.15043  0.36210  1.0000
  H   H44       1.0  0.03027  0.18627  0.50184  1.0000
  C   C23       1.0  0.23861  0.00424  0.35301  1.0000
  H   H45       1.0  0.03877  0.20769  0.44105  1.0000
  H   H46       1.0  0.16223  0.32344  0.56077  1.0000
  H   H47       1.0  0.19471  0.16410  0.44062  1.0000
  Fe  Fe10      1.0  0.17463  0.32067  0.42405  1.0000
  H   H48       1.0  0.09033  0.03799  0.57647  1.0000
  H   H49       1.0  0.03661  0.15034  0.51215  1.0000
  N   N4        1.0  0.19287  0.12318  0.47160  1.0000
  H   H50       1.0  0.18215  0.08285  0.50815  1.0000
  S   S16       1.0  0.01783  0.00913  0.42234  1.0000
  C   C24       1.0  0.01229  0.24732  0.33575  1.0000
  H   H51       1.0  0.19606  0.08109  0.44574  1.0000
  H   H52       1.0  0.07198  0.19237  0.50245  1.0000
  H   H53       1.0  0.15026  0.29560  0.61827  1.0000
  H   H54       1.0  0.17713  0.11848  0.52459  1.0000
  H   H55       1.0  0.05381  0.29715  0.45063  1.0000
  H   H56       1.0  0.14651  0.08637  0.49501  1.0000
  H   H57       1.0  0.23852  0.12448  0.48663  1.0000
  H   H58       1.0  0.00765  0.27413  0.40760  1.0000
  C   C25       1.0  0.22106  0.08169  0.33112  1.0000
  C   C26       1.0  0.19629  0.11729  0.31860  1.0000
  N   N5        1.0  0.04551  0.32835  0.41416  1.0000
  H   H59       1.0  0.22025  0.05986  0.34424  1.0000
  H   H60       1.0  0.15402  0.13418  0.45676  1.0000
  C   C27       1.0  0.01463  0.22676  0.36159  1.0000
  H   H61       1.0  0.20041  0.11516  0.41794  1.0000
  H   H62       1.0  0.17654  0.12348  0.32228  1.0000
  H   H63       1.0  0.24416  0.15876  0.45858  1.0000
  C   C28       1.0  0.20379  0.23690  0.35080  1.0000
  C   C29       1.0  0.21281  0.21748  0.37258  1.0000
  C   C30       1.0  0.18709  0.09992  0.44112  1.0000
  H   H64       1.0  0.06030  0.13865  0.42300  1.0000
  H   H65       1.0  0.18585  0.24440  0.35924  1.0000
  H   H66       1.0  0.06625  0.30020  0.38735  1.0000
  H   H67       1.0  0.15996  0.08439  0.43399  1.0000
  C   C31       1.0  0.08338  0.16595  0.34021  1.0000
  C   C32       1.0  0.08481  0.19852  0.33671  1.0000
  C   C33       1.0  0.10504  0.22763  0.35913  1.0000
  C   C34       1.0  0.12430  0.22475  0.38572  1.0000
  C   C35       1.0  0.12260  0.19206  0.38940  1.0000
  C   C36       1.0  0.10261  0.16310  0.36678  1.0000
  H   H68       1.0  0.18574  0.16661  0.48550  1.0000
  C   C37       1.0  0.05476  0.32287  0.44923  1.0000
  C   C38       1.0  0.06621  0.01039  0.52878  1.0000
  C   C39       1.0  0.07579  0.01259  0.56361  1.0000
  S   S17       1.0  0.08689  0.00477  0.42235  1.0000
  H   H69       1.0  0.20131  0.21002  0.39767  1.0000
  C   C40       1.0  0.21817  0.24690  0.31826  1.0000
  H   H70       1.0  0.05197  0.18740  0.40871  1.0000
  H   H71       1.0  0.03805  0.22708  0.36583  1.0000
  C   C41       1.0  0.16817  0.32330  0.61645  1.0000
  S   S18       1.0  0.24698  0.18369  0.39127  1.0000
  H   H72       1.0  0.03751  0.32348  0.46906  1.0000
  C   C42       1.0  0.06184  0.14604  0.45094  1.0000
  H   H73       1.0  0.23452  0.16060  0.50334  1.0000
  C   C43       1.0  0.17387  0.10181  0.50120  1.0000
  H   H74       1.0  0.06983  0.20118  0.31667  1.0000
  C   C44       1.0  0.18131  0.14814  0.46338  1.0000
  C   C45       1.0  0.19493  0.08913  0.33617  1.0000
  C   C46       1.0  0.04529  0.17349  0.49535  1.0000
  C   C47       1.0  0.05371  0.19444  0.43684  1.0000
  H   H75       1.0  0.05294  0.12152  0.46563  1.0000
  S   S19       1.0  0.15238  0.32076  0.32257  1.0000
  S   S20       1.0  0.01516  0.08633  0.37893  1.0000
  C   C48       1.0  0.06854  0.32660  0.38858  1.0000
  C   C49       1.0  0.00594  0.13825  0.44986  1.0000
  H   H76       1.0  0.00375  0.30313  0.37860  1.0000
  H   H77       1.0  0.06324  0.33222  0.36201  1.0000
  H   H78       1.0  0.00571  0.01309  0.64110  1.0000
  H   H79       1.0  0.15536  0.01297  0.31310  1.0000
  C   C50       1.0  0.25151  0.21851  0.32989  1.0000
  H   H80       1.0  0.00231  0.13058  0.42190  1.0000
  H   H81       1.0  0.08481  0.32333  0.76216  1.0000
  Fe  Fe11      1.0  0.14309  0.31488  0.80685  1.0000
  H   H82       1.0  0.12237  0.29349  0.88089  1.0000
  H   H83       1.0  0.15819  0.31059  0.90986  1.0000
  H   H84       1.0  0.07948  0.31957  0.85704  1.0000
  C   C51       1.0  0.09704  0.22565  0.89639  1.0000
  H   H85       1.0  0.10711  0.28667  0.73794  1.0000
  H   H86       1.0  0.06557  0.24946  0.73913  1.0000
  H   H87       1.0  0.20239  0.04134  0.68124  1.0000
  H   H88       1.0  0.04201  0.26267  0.66891  1.0000
  H   H89       1.0  0.02063  0.21629  0.81193  1.0000
  H   H90       1.0  0.08064  0.22441  0.91808  1.0000
  C   C52       1.0  0.03760  0.27341  0.69344  1.0000
  C   C53       1.0  0.06189  0.30824  0.74569  1.0000
  C   C54       1.0  0.03889  0.21996  0.97269  1.0000
  C   C55       1.0  0.19956  0.01920  0.69561  1.0000
  S   S21       1.0  0.17308  0.29518  0.77824  1.0000
  C   C56       1.0  0.02643  0.29256  0.86869  1.0000
  H   H91       1.0  0.14549  0.22349  0.93346  1.0000
  C   C57       1.0  0.24876  0.00302  0.85903  1.0000
  C   C58       1.0  0.09371  0.32360  0.69284  1.0000
  C   C59       1.0  0.00558  0.15601  0.97542  1.0000
  H   H92       1.0  0.17925  0.27710  0.87599  1.0000
  H   H93       1.0  0.11649  0.28836  0.92648  1.0000
  S   S22       1.0  0.17311  0.32190  0.68719  1.0000
  H   H94       1.0  0.15348  0.23049  0.86997  1.0000
  S   S23       1.0  0.08945  0.27002  0.81367  1.0000
  C   C60       1.0  0.05556  0.29589  0.85306  1.0000
  C   C61       1.0  0.05366  0.26820  0.83293  1.0000
  N   N6        1.0  0.13194  0.25450  0.90214  1.0000
  H   H95       1.0  0.08590  0.22922  0.87226  1.0000
  C   C62       1.0  0.08315  0.27166  0.72290  1.0000
  N   N7        1.0  0.06910  0.29424  0.71372  1.0000
  C   C63       1.0  0.02239  0.23752  0.82806  1.0000
  S   S24       1.0  0.00542  0.00553  0.95812  1.0000
  C   C64       1.0  0.22829  0.01786  0.70579  1.0000
  H   H96       1.0  0.08891  0.26062  0.69941  1.0000
  C   C65       1.0  0.14556  0.24881  0.93457  1.0000
  H   H97       1.0  0.21796  0.10126  0.78936  1.0000
  H   H98       1.0  0.17189  0.27010  0.93963  1.0000
  H   H99       1.0  0.02812  0.31393  0.88464  1.0000
  H   H100      1.0  0.01738  0.24404  0.94156  1.0000
  C   C66       1.0  0.01400  0.21968  0.95149  1.0000
  C   C67       1.0  0.13235  0.28825  0.90493  1.0000
  C   C68       1.0  0.15281  0.25535  0.87270  1.0000
  H   H101      1.0  0.14299  0.25926  0.84779  1.0000
  H   H102      1.0  0.09571  0.19975  0.89422  1.0000
  H   H103      1.0  0.13038  0.24815  0.95731  1.0000
  H   H104      1.0  0.10023  0.31392  0.66886  1.0000
  H   H105      1.0  0.04301  0.28674  0.76175  1.0000
  H   H106      1.0  0.05212  0.32617  0.73972  1.0000
  H   H107      1.0  0.22969  0.05397  0.76903  1.0000
  H   H108      1.0  0.02598  0.28949  0.68654  1.0000
  H   H109      1.0  0.23572  0.10206  0.83124  1.0000
  H   H110      1.0  0.01864  0.25078  0.70835  1.0000
  H   H111      1.0  0.24647  0.05494  0.81135  1.0000
  C   C69       1.0  0.24180  0.11292  0.80474  1.0000
  S   S25       1.0  0.24759  0.31590  0.84828  1.0000
  Fe  Fe12      1.0  0.21691  0.33085  0.81244  1.0000
  H   H112      1.0  0.25132  0.10749  0.73584  1.0000
  H   H113      1.0  0.25164  0.14173  0.80751  1.0000
  Fe  Fe13      1.0  0.02206  0.47534  0.29325  1.0000
  H   H114      1.0  0.19617  0.33563  0.08811  1.0000
  H   H115      1.0  0.18769  0.53935  0.22912  1.0000
  Fe  Fe14      1.0  0.10487  0.37720  0.02743  1.0000
  H   H116      1.0  0.13123  0.39543  0.15383  1.0000
  S   S26       1.0  0.05175  0.53005  0.27306  1.0000
  H   H117      1.0  0.20467  0.55827  0.27108  1.0000
  C   C70       1.0  0.21594  0.45361  0.30307  1.0000
  S   S27       1.0  0.13599  0.35544  0.00588  1.0000
  H   H118      1.0  0.05692  0.48807  0.98820  1.0000
  S   S28       1.0  0.02995  0.53612  0.18237  1.0000
  H   H119      1.0  0.07494  0.60593  0.24683  1.0000
  S   S29       1.0  0.19542  0.41826  0.27226  1.0000
  H   H120      1.0  0.20814  0.52191  0.25507  1.0000
  Fe  Fe15      1.0  0.16643  0.35823  0.27850  1.0000
  H   H121      1.0  0.17530  0.35209  0.11527  1.0000
  H   H122      1.0  0.13644  0.59842  0.24347  1.0000
  H   H123      1.0  0.17745  0.40522  0.06275  1.0000
  C   C71       1.0  0.02613  0.33337  0.25957  1.0000
  N   N8        1.0  0.21245  0.39039  0.08204  1.0000
  C   C72       1.0  0.23922  0.40256  0.10889  1.0000
  C   C73       1.0  0.22681  0.39158  0.04750  1.0000
  H   H124      1.0  0.08294  0.37673  0.22694  1.0000
  C   C74       1.0  0.19761  0.41344  0.08282  1.0000
  H   H125      1.0  0.08111  0.61192  0.18310  1.0000
  H   H126      1.0  0.20727  0.38257  0.02665  1.0000
  H   H127      1.0  0.01915  0.60834  0.23551  1.0000
  C   C75       1.0  0.22111  0.62821  0.28701  1.0000
  H   H128      1.0  0.17857  0.48782  0.30949  1.0000
  S   S30       1.0  0.11194  0.39507  0.08310  1.0000
  H   H129      1.0  0.23830  0.37454  0.04589  1.0000
  C   C76       1.0  0.12256  0.34334  0.16255  1.0000
  H   H130      1.0  0.11127  0.62867  0.27461  1.0000
  C   C77       1.0  0.10657  0.63531  0.18747  1.0000
  N   N9        1.0  0.12195  0.63293  0.22025  1.0000
  H   H131      1.0  0.06348  0.38260  0.18922  1.0000
  N   N10       1.0  0.15890  0.50878  0.27205  1.0000
  C   C78       1.0  0.13676  0.52420  0.27191  1.0000
  C   C79       1.0  0.14269  0.47520  0.25203  1.0000
  H   H132      1.0  0.08222  0.39924  0.28841  1.0000
  C   C80       1.0  0.12165  0.36926  0.14289  1.0000
  S   S31       1.0  0.05172  0.44418  0.29180  1.0000
  C   C81       1.0  0.10967  0.36170  0.10864  1.0000
  H   H133      1.0  0.13115  0.52883  0.24513  1.0000
  H   H134      1.0  0.11724  0.45719  0.26186  1.0000
  H   H135      1.0  0.05743  0.39711  0.23113  1.0000
  H   H136      1.0  0.14812  0.54938  0.28693  1.0000
  C   C82       1.0  0.05977  0.37600  0.21717  1.0000
  H   H137      1.0  0.02241  0.35287  0.27493  1.0000
  H   H138      1.0  0.04862  0.33346  0.27043  1.0000
  H   H139      1.0  0.03710  0.64064  0.27047  1.0000
  C   C83       1.0  0.23617  0.48796  0.29115  1.0000
  Fe  Fe16      1.0  0.02335  0.54682  0.30901  1.0000
  C   C84       1.0  0.16493  0.50260  0.30820  1.0000
  S   S32       1.0  0.11537  0.41438  0.98448  1.0000
  C   C85       1.0  0.00412  0.54123  0.12036  1.0000
  H   H140      1.0  0.21923  0.64157  0.26465  1.0000
  C   C86       1.0  0.18615  0.35400  0.08911  1.0000
  H   H141      1.0  0.11233  0.50667  0.28429  1.0000
  H   H142      1.0  0.16498  0.34414  0.07003  1.0000
  H   H143      1.0  0.13337  0.34983  0.18834  1.0000
  C   C87       1.0  0.10011  0.63002  0.24941  1.0000
  C   C88       1.0  0.19123  0.53314  0.25605  1.0000
  H   H144      1.0  0.10100  0.57717  0.21416  1.0000
  H   H145      1.0  0.24664  0.41869  0.04120  1.0000
  H   H146      1.0  0.02426  0.53883  0.10862  1.0000
  H   H147      1.0  0.13966  0.47921  0.22419  1.0000
  H   H148      1.0  0.18598  0.41276  0.10828  1.0000
  H   H149      1.0  0.24026  0.49195  0.26364  1.0000
  S   S33       1.0  0.05654  0.33479  0.00438  1.0000
  H   H150      1.0  0.09633  0.65304  0.25143  1.0000
  H   H151      1.0  0.14251  0.60293  0.19734  1.0000
  C   C89       1.0  0.12575  0.60150  0.21874  1.0000
  H   H152      1.0  0.15756  0.46153  0.25370  1.0000
  H   H153      1.0  0.10395  0.65911  0.18745  1.0000
  H   H154      1.0  0.21668  0.44118  0.07793  1.0000
  C   C90       1.0  0.15517  0.66476  0.22567  1.0000
  H   H155      1.0  0.16741  0.66359  0.25014  1.0000
  N   N11       1.0  0.01137  0.65248  0.23074  1.0000
  H   H156      1.0  0.17212  0.61577  0.30682  1.0000
  H   H157      1.0  0.12199  0.63661  0.16476  1.0000
  Fe  Fe17      1.0  0.01045  0.51554  0.23508  1.0000
  H   H158      1.0  0.22917  0.40207  0.13526  1.0000
  C   C91       1.0  0.01547  0.62720  0.25192  1.0000
  H   H159      1.0  0.04339  0.65256  0.19031  1.0000
  N   N12       1.0  0.02977  0.34128  0.22224  1.0000
  C   C92       1.0  0.25066  0.62632  0.29224  1.0000
  H   H160      1.0  0.25083  0.38561  0.10920  1.0000
  C   C93       1.0  0.19430  0.61365  0.31100  1.0000
  S   S34       1.0  0.04368  0.40533  0.58673  1.0000
  H   H161      1.0  0.22283  0.47343  0.38954  1.0000
  H   H162      1.0  0.17969  0.52752  0.32332  1.0000
  S   S35       1.0  0.21723  0.41933  0.44915  1.0000
  Fe  Fe18      1.0  0.17160  0.38819  0.41491  1.0000
  S   S36       1.0  0.14241  0.41680  0.40154  1.0000
  Fe  Fe19      1.0  0.19507  0.37426  0.48548  1.0000
  S   S37       1.0  0.20452  0.39666  0.54118  1.0000
  S   S38       1.0  0.19800  0.36430  0.38504  1.0000
  Fe  Fe20      1.0  0.04115  0.47941  0.39108  1.0000
  N   N13       1.0  0.14463  0.43063  0.60837  1.0000
  C   C94       1.0  0.21428  0.39453  0.61131  1.0000
  H   H163      1.0  0.09518  0.34592  0.39489  1.0000
  H   H164      1.0  0.13589  0.38645  0.57583  1.0000
  C   C95       1.0  0.17940  0.51452  0.41121  1.0000
  H   H165      1.0  0.12278  0.46164  0.59269  1.0000
  Fe  Fe21      1.0  0.24178  0.39224  0.42230  1.0000
  S   S39       1.0  0.14770  0.34445  0.45310  1.0000
  C   C96       1.0  0.18389  0.55519  0.45657  1.0000
  H   H166      1.0  0.19420  0.47589  0.61175  1.0000
  C   C97       1.0  0.22647  0.47783  0.36203  1.0000
  C   C98       1.0  0.15878  0.49334  0.46811  1.0000
  H   H167      1.0  0.13812  0.64729  0.38640  1.0000
  C   C99       1.0  0.08399  0.45065  0.35541  1.0000
  C   C100      1.0  0.10373  0.44418  0.37890  1.0000
  C   C101      1.0  0.11694  0.42251  0.36979  1.0000
  C   C102      1.0  0.06937  0.64594  0.38527  1.0000
  H   H168      1.0  0.15903  0.46854  0.46232  1.0000
  H   H169      1.0  0.07524  0.46825  0.36249  1.0000
  H   H170      1.0  0.10847  0.45585  0.40461  1.0000
  H   H171      1.0  0.04374  0.36948  0.38651  1.0000
  H   H172      1.0  0.11908  0.41242  0.55902  1.0000
  C   C103      1.0  0.17800  0.64503  0.43808  1.0000
  C   C104      1.0  0.12793  0.45111  0.61648  1.0000
  S   S40       1.0  0.06358  0.52410  0.35314  1.0000
  Fe  Fe22      1.0  0.06400  0.53376  0.45121  1.0000
  S   S41       1.0  0.08417  0.58021  0.41707  1.0000
  S   S42       1.0  0.06870  0.54108  0.50911  1.0000
  Fe  Fe23      1.0  0.03682  0.54791  0.38445  1.0000
  S   S43       1.0  0.00985  0.41781  0.38841  1.0000
  Fe  Fe24      1.0  0.10831  0.55360  0.38771  1.0000
  S   S44       1.0  0.16441  0.57755  0.37270  1.0000
  H   H173      1.0  0.15425  0.61969  0.43433  1.0000
  S   S45       1.0  0.08881  0.50794  0.42398  1.0000
  C   C105      1.0  0.06269  0.50345  0.53006  1.0000
  C   C106      1.0  0.05272  0.47205  0.51150  1.0000
  H   H174      1.0  0.20275  0.57749  0.44123  1.0000
  H   H175      1.0  0.07314  0.38431  0.42208  1.0000
  C   C107      1.0  0.06079  0.47453  0.58358  1.0000
  C   C108      1.0  0.06710  0.50473  0.56604  1.0000
  H   H176      1.0  0.04866  0.47066  0.48377  1.0000
  H   H177      1.0  0.19951  0.53521  0.39593  1.0000
  H   H178      1.0  0.06380  0.47575  0.61133  1.0000
  H   H179      1.0  0.07519  0.52909  0.58039  1.0000
  C   C109      1.0  0.19793  0.37476  0.58104  1.0000
  N   N14       1.0  0.18511  0.52282  0.44874  1.0000
  C   C110      1.0  0.19684  0.59731  0.34084  1.0000
  C   C111      1.0  0.22614  0.59529  0.34543  1.0000
  H   H180      1.0  0.02033  0.50148  0.62771  1.0000
  H   H181      1.0  0.18900  0.56291  0.48451  1.0000
  H   H182      1.0  0.22896  0.58314  0.36803  1.0000
  H   H183      1.0  0.13333  0.48847  0.46095  1.0000
  H   H184      1.0  0.22111  0.50527  0.45093  1.0000
  H   H185      1.0  0.18591  0.64748  0.46573  1.0000
  C   C112      1.0  0.17781  0.45398  0.59334  1.0000
  C   C113      1.0  0.05097  0.44315  0.56511  1.0000
  H   H186      1.0  0.03566  0.54419  0.60986  1.0000
  H   H187      1.0  0.19562  0.42268  0.34827  1.0000
  C   C114      1.0  0.04730  0.44204  0.52898  1.0000
  H   H188      1.0  0.05205  0.62167  0.39720  1.0000
  H   H189      1.0  0.10338  0.43452  0.62894  1.0000
  H   H190      1.0  0.23893  0.55157  0.44609  1.0000
  H   H191      1.0  0.19728  0.64331  0.42200  1.0000
  H   H192      1.0  0.22304  0.53281  0.48726  1.0000
  C   C115      1.0  0.07699  0.64589  0.35007  1.0000
  H   H193      1.0  0.16212  0.49863  0.49655  1.0000
  H   H194      1.0  0.15542  0.51221  0.40213  1.0000
  C   C116      1.0  0.24596  0.51223  0.35017  1.0000
  C   C117      1.0  0.21846  0.52824  0.45884  1.0000
  H   H195      1.0  0.15893  0.55189  0.44975  1.0000
  H   H196      1.0  0.02931  0.36472  0.43030  1.0000
  H   H197      1.0  0.19119  0.43946  0.58714  1.0000
  S   S46       1.0  0.01583  0.50317  0.42173  1.0000
  C   C118      1.0  0.17504  0.33897  0.58375  1.0000
  H   H198      1.0  0.23215  0.42224  0.60964  1.0000
  H   H199      1.0  0.12289  0.65269  0.44502  1.0000
  C   C119      1.0  0.12368  0.40203  0.58322  1.0000
  C   C120      1.0  0.25079  0.51719  0.31447  1.0000
  S   S47       1.0  0.22061  0.34780  0.45979  1.0000
  C   C121      1.0  0.21132  0.44879  0.33869  1.0000
  C   C122      1.0  0.10882  0.40617  0.33679  1.0000
  H   H200      1.0  0.09860  0.38377  0.59409  1.0000
  H   H201      1.0  0.14112  0.48708  0.32195  1.0000
  C   C123      1.0  0.04797  0.36313  0.41322  1.0000
  H   H202      1.0  0.11864  0.38930  0.32900  1.0000
  H   H203      1.0  0.03951  0.41777  0.51457  1.0000
  C   C124      1.0  0.07540  0.43446  0.32270  1.0000
  H   H204      1.0  0.00696  0.63254  0.36388  1.0000
  H   H205      1.0  0.17907  0.48976  0.40427  1.0000
  H   H206      1.0  0.17538  0.46559  0.56895  1.0000
  C   C125      1.0  0.08795  0.41186  0.31367  1.0000
  S   S48       1.0  0.05931  0.60652  0.32290  1.0000
  C   C126      1.0  0.01392  0.52234  0.62285  1.0000
  H   H207      1.0  0.08074  0.34367  0.45657  1.0000
  H   H208      1.0  0.14342  0.47362  0.63444  1.0000
  H   H209      1.0  0.15766  0.39641  0.63479  1.0000
  C   C127      1.0  0.14902  0.41545  0.64046  1.0000
  H   H210      1.0  0.00854  0.51789  0.55333  1.0000
  Fe  Fe25      1.0  0.03525  0.40791  0.64392  1.0000
  C   C128      1.0  0.20745  0.37882  0.64403  1.0000
  C   C129      1.0  0.25189  0.60809  0.32079  1.0000
  C   C130      1.0  0.21871  0.50489  0.69922  1.0000
  C   C131      1.0  0.21618  0.47772  0.71952  1.0000
  H   H211      1.0  0.12521  0.40141  0.65503  1.0000
  H   H212      1.0  0.12374  0.47862  0.88109  1.0000
  C   C132      1.0  0.02044  0.40911  0.94494  1.0000
  C   C133      1.0  0.10332  0.45175  0.87363  1.0000
  C   C134      1.0  0.23310  0.43246  0.94506  1.0000
  H   H213      1.0  0.22337  0.50619  0.86474  1.0000
  Fe  Fe26      1.0  0.20224  0.39120  0.80584  1.0000
  C   C135      1.0  0.00794  0.46407  0.96384  1.0000
  C   C136      1.0  0.14121  0.42908  0.87920  1.0000
  C   C137      1.0  0.13372  0.44876  0.82383  1.0000
  S   S49       1.0  0.15681  0.35928  0.77120  1.0000
  C   C138      1.0  0.04415  0.43804  0.96455  1.0000
  H   H214      1.0  0.16380  0.45524  0.88439  1.0000
  H   H215      1.0  0.09823  0.37959  0.83394  1.0000
  C   C139      1.0  0.23524  0.40285  0.95336  1.0000
  S   S50       1.0  0.09834  0.34788  0.93141  1.0000
  H   H216      1.0  0.15043  0.41205  0.86780  1.0000
  Fe  Fe27      1.0  0.02059  0.44479  0.70311  1.0000
  S   S51       1.0  0.18581  0.34771  0.84384  1.0000
  N   N15       1.0  0.11678  0.43133  0.85600  1.0000
  Fe  Fe28      1.0  0.18839  0.34110  0.74342  1.0000
  H   H217      1.0  0.21255  0.37817  0.95745  1.0000
  H   H218      1.0  0.07004  0.39644  0.82989  1.0000
  H   H219      1.0  0.23830  0.47584  0.72513  1.0000
  H   H220      1.0  0.08992  0.43888  0.89778  1.0000
  H   H221      1.0  0.13014  0.41840  0.90468  1.0000
  H   H222      1.0  0.14368  0.43358  0.80973  1.0000
  H   H223      1.0  0.15553  0.47536  0.82933  1.0000
  H   H224      1.0  0.00234  0.55011  0.71219  1.0000
  S   S52       1.0  0.21089  0.44437  0.82609  1.0000
  S   S53       1.0  0.23546  0.37622  0.77560  1.0000
  H   H225      1.0  0.22002  0.39437  0.66711  1.0000
  H   H226      1.0  0.08502  0.45432  0.85675  1.0000
  S   S54       1.0  0.19409  0.43095  0.94061  1.0000
  Fe  Fe29      1.0  0.06855  0.41603  0.71404  1.0000
  S   S55       1.0  0.03834  0.36936  0.67853  1.0000
  S   S56       1.0  0.11569  0.41992  0.73746  1.0000
  S   S57       1.0  0.01635  0.49368  0.71142  1.0000
  S   S58       1.0  0.02870  0.37550  0.93108  1.0000
  S   S59       1.0  0.06843  0.45475  0.67760  1.0000
  S   S60       1.0  0.02351  0.40980  0.74335  1.0000
  Fe  Fe30      1.0  0.06955  0.37021  0.95889  1.0000
  Fe  Fe31      1.0  0.14365  0.38979  0.96103  1.0000
  C   C140      1.0  0.18981  0.50713  0.69266  1.0000
  C   C141      1.0  0.15845  0.48194  0.70532  1.0000
  C   C142      1.0  0.15553  0.45398  0.72448  1.0000
  C   C143      1.0  0.18467  0.45243  0.73216  1.0000
  H   H227      1.0  0.07562  0.38167  0.87113  1.0000
  H   H228      1.0  0.13653  0.48414  0.70006  1.0000
  H   H229      1.0  0.18292  0.43133  0.74750  1.0000
  C   C144      1.0  0.08891  0.39563  0.84738  1.0000
  H   H230      1.0  0.11629  0.45144  0.80574  1.0000
  C   C145      1.0  0.18413  0.34311  0.64677  1.0000
  H   H231      1.0  0.01141  0.53244  0.64866  1.0000
  H   H232      1.0  0.19161  0.52837  0.67744  1.0000
  C   C146      1.0  0.01408  0.65425  0.95994  1.0000
  C   C147      1.0  0.24747  0.51005  0.85666  1.0000
  C   C148      1.0  0.24894  0.48296  0.83813  1.0000
  H   H233      1.0  0.01347  0.63009  0.96604  1.0000
  H   H234      1.0  0.16808  0.43603  0.65820  1.0000
  H   H235      1.0  0.23592  0.59381  0.75705  1.0000
  H   H236      1.0  0.24354  0.54705  0.78420  1.0000
  H   H237      1.0  0.11764  0.34000  0.70751  1.0000
  S   S61       1.0  0.00333  0.50090  0.97407  1.0000
  C   C149      1.0  0.03808  0.46548  0.97357  1.0000
  H   H238      1.0  0.06751  0.43974  0.97230  1.0000
  H   H239      1.0  0.08406  0.34117  0.68528  1.0000
  C   C150      1.0  0.24721  0.93669  0.05671  1.0000
  H   H240      1.0  0.02703  0.97386  0.10519  1.0000
  Fe  Fe32      1.0  0.14657  0.80560  0.23049  1.0000
  S   S62       1.0  0.12085  0.82973  0.25929  1.0000
  S   S63       1.0  0.15063  0.80270  0.17273  1.0000
  H   H241      1.0  0.05007  0.83635  0.26254  1.0000
  H   H242      1.0  0.01787  0.84803  0.25709  1.0000
  S   S64       1.0  0.19108  0.82699  0.26664  1.0000
  S   S65       1.0  0.11733  0.75395  0.25591  1.0000
  S   S66       1.0  0.09327  0.88035  0.08436  1.0000
  C   C151      1.0  0.13299  0.82335  0.14939  1.0000
  C   C152      1.0  0.12242  0.81241  0.11509  1.0000
  C   C153      1.0  0.10906  0.82910  0.09549  1.0000
  C   C154      1.0  0.10713  0.85743  0.10979  1.0000
  C   C155      1.0  0.11757  0.86837  0.14417  1.0000
  C   C156      1.0  0.13031  0.85117  0.16409  1.0000
  H   H243      1.0  0.12422  0.79072  0.10375  1.0000
  H   H244      1.0  0.10000  0.81976  0.06939  1.0000
  H   H245      1.0  0.11642  0.89056  0.15513  1.0000
  H   H246      1.0  0.13908  0.86014  0.19035  1.0000
  H   H247      1.0  0.21894  0.93921  0.11704  1.0000
  Fe  Fe33      1.0  0.09202  0.86627  0.02770  1.0000
  H   H248      1.0  0.00679  0.80394  0.26597  1.0000
  C   C157      1.0  0.01637  0.95487  0.08279  1.0000
  H   H249      1.0  0.05657  0.79891  0.21788  1.0000
  H   H250      1.0  0.19002  0.92449  0.02492  1.0000
  N   N16       1.0  0.21248  0.91264  0.06779  1.0000
  S   S67       1.0  0.03785  0.76095  0.29111  1.0000
  H   H251      1.0  0.07322  0.86048  0.20528  1.0000
  N   N17       1.0  0.02281  0.81922  0.21388  1.0000
  H   H252      1.0  0.00358  0.92797  0.09333  1.0000
  C   C158      1.0  0.04714  0.85101  0.19569  1.0000
  Fe  Fe34      1.0  0.16286  0.84736  0.29829  1.0000
  C   C159      1.0  0.03099  0.79107  0.20786  1.0000
  S   S68       1.0  0.10340  0.90755  0.98870  1.0000
  S   S69       1.0  0.04725  0.82399  0.99868  1.0000
  H   H253      1.0  0.18512  0.89459  0.11506  1.0000
  H   H254      1.0  0.00786  0.69919  0.23874  1.0000
  C   C160      1.0  0.21107  0.91260  0.10606  1.0000
  H   H255      1.0  0.15670  0.95907  0.30846  1.0000
  H   H256      1.0  0.16334  0.94341  0.26783  1.0000
  H   H257      1.0  0.16669  0.97613  0.21388  1.0000
  H   H258      1.0  0.24325  0.94055  0.28469  1.0000
  C   C161      1.0  0.01111  0.99697  0.04817  1.0000
  S   S70       1.0  0.12824  0.85130  0.00565  1.0000
  H   H259      1.0  0.21838  0.86716  0.06430  1.0000
  H   H260      1.0  0.20191  0.87561  0.02573  1.0000
  C   C162      1.0  0.00858  0.67821  0.25366  1.0000
  H   H261      1.0  0.03780  0.95769  0.06700  1.0000
  H   H262      1.0  0.04662  0.84585  0.16723  1.0000
  C   C163      1.0  0.15174  0.95785  0.28004  1.0000
  H   H263      1.0  0.05336  0.89406  0.29992  1.0000
  C   C164      1.0  0.18988  0.92445  0.05380  1.0000
  H   H264      1.0  0.12412  0.94179  0.27607  1.0000
  H   H265      1.0  0.10663  0.67946  0.30897  1.0000
  C   C165      1.0  0.02459  0.82740  0.25145  1.0000
  H   H266      1.0  0.04162  0.87274  0.19975  1.0000
  Fe  Fe35      1.0  0.09410  0.77927  0.28804  1.0000
  S   S71       1.0  0.05051  0.95867  0.29524  1.0000
  C   C166      1.0  0.24189  0.95811  0.30380  1.0000
  H   H267      1.0  0.16347  0.90711  0.06186  1.0000
  Fe  Fe36      1.0  0.16091  0.77592  0.29421  1.0000
  H   H268      1.0  0.20211  0.68606  0.30115  1.0000
  H   H269      1.0  0.19743  0.95155  0.06297  1.0000
  S   S72       1.0  0.18138  0.73743  0.29836  1.0000
  H   H270      1.0  0.03001  0.78432  0.17976  1.0000
  Fe  Fe37      1.0  0.02618  0.99522  0.29294  1.0000
  C   C167      1.0  0.20166  0.87674  0.05457  1.0000
  H   H271      1.0  0.03887  0.69081  0.19240  1.0000
  H   H272      1.0  0.17570  0.85781  0.06285  1.0000
  H   H273      1.0  0.01309  0.76678  0.22141  1.0000
  H   H274      1.0  0.22764  0.90361  0.11755  1.0000
  H   H275      1.0  0.15303  0.68889  0.22792  1.0000
  H   H276      1.0  0.12846  0.97579  0.22470  1.0000
  N   N18       1.0  0.16511  0.99329  0.26595  1.0000
  H   H277      1.0  0.03001  0.69119  0.27251  1.0000
  H   H278      1.0  0.06439  0.68544  0.22418  1.0000
  C   C168      1.0  0.15623  0.99033  0.22875  1.0000
  H   H279      1.0  0.06365  0.68711  0.98186  1.0000
  H   H280      1.0  0.12269  0.99850  0.28099  1.0000
  C   C169      1.0  0.04087  0.67112  0.20838  1.0000
  H   H281      1.0  0.24896  0.93722  0.02793  1.0000
  H   H282      1.0  0.17240  0.66830  0.20400  1.0000
  H   H283      1.0  0.03142  0.72166  0.35491  1.0000
  S   S73       1.0  0.13450  0.79718  0.32868  1.0000
  H   H284      1.0  0.02333  0.92157  0.51770  1.0000
  H   H285      1.0  0.13240  0.97601  0.38925  1.0000
  C   C170      1.0  0.16120  0.95460  0.49008  1.0000
  Fe  Fe38      1.0  0.22827  0.87951  0.42130  1.0000
  S   S74       1.0  0.20511  0.90928  0.44591  1.0000
  Fe  Fe39      1.0  0.15997  0.80972  0.42208  1.0000
  S   S75       1.0  0.13404  0.83632  0.44757  1.0000
  S   S76       1.0  0.12662  0.74874  0.41886  1.0000
  Fe  Fe40      1.0  0.16030  0.87984  0.40983  1.0000
  S   S77       1.0  0.13439  0.91228  0.39624  1.0000
  Fe  Fe41      1.0  0.17965  0.86451  0.48222  1.0000
  S   S78       1.0  0.17358  0.88020  0.53762  1.0000
  S   S79       1.0  0.18550  0.85275  0.38267  1.0000
  S   S80       1.0  0.20439  0.83562  0.45980  1.0000
  Fe  Fe42      1.0  0.03835  0.98009  0.39095  1.0000
  C   C171      1.0  0.21285  0.73569  0.32411  1.0000
  H   H286      1.0  0.03983  0.97568  0.48531  1.0000
  C   C172      1.0  0.20241  0.83355  0.61013  1.0000
  C   C173      1.0  0.19514  0.84337  0.57812  1.0000
  C   C174      1.0  0.18287  0.86671  0.57727  1.0000
  C   C175      1.0  0.17789  0.87999  0.60885  1.0000
  C   C176      1.0  0.00864  0.72276  0.35094  1.0000
  H   H287      1.0  0.17426  0.94376  0.50562  1.0000
  H   H288      1.0  0.19899  0.83286  0.55408  1.0000
  H   H289      1.0  0.16863  0.89827  0.60852  1.0000
  H   H290      1.0  0.11108  0.94732  0.44858  1.0000
  N   N19       1.0  0.03613  0.81894  0.41033  1.0000
  H   H291      1.0  0.02372  0.85861  0.42522  1.0000
  H   H292      1.0  0.21347  0.71331  0.46103  1.0000
  H   H293      1.0  0.10145  0.99453  0.35127  1.0000
  C   C177      1.0  0.04758  0.97757  0.51216  1.0000
  C   C178      1.0  0.10926  0.89955  0.49236  1.0000
  H   H294      1.0  0.12068  0.88784  0.50907  1.0000
  H   H295      1.0  0.08128  0.93936  0.48194  1.0000
  C   C179      1.0  0.06658  0.98194  0.58187  1.0000
  H   H296      1.0  0.19149  0.96018  0.36656  1.0000
  H   H297      1.0  0.22673  0.70669  0.41948  1.0000
  C   C180      1.0  0.05858  0.81470  0.38574  1.0000
  H   H298      1.0  0.07442  0.98382  0.60857  1.0000
  H   H299      1.0  0.04155  0.78740  0.44877  1.0000
  H   H300      1.0  0.08762  0.87629  0.33559  1.0000
  H   H301      1.0  0.11958  0.98069  0.48103  1.0000
  C   C181      1.0  0.04744  0.94911  0.56545  1.0000
  C   C182      1.0  0.21279  0.96907  0.34993  1.0000
  C   C183      1.0  0.10688  0.70996  0.39111  1.0000
  C   C184      1.0  0.11455  0.70998  0.35607  1.0000
  H   H302      1.0  0.00649  0.99617  0.56309  1.0000
  H   H303      1.0  0.13258  0.73426  0.34476  1.0000
  C   C185      1.0  0.04420  0.81383  0.44604  1.0000
  C   C186      1.0  0.09644  0.96805  0.34901  1.0000
  C   C187      1.0  0.11486  0.95755  0.37017  1.0000
  C   C188      1.0  0.11170  0.92422  0.36625  1.0000
  C   C189      1.0  0.08993  0.90174  0.33990  1.0000
  H   H304      1.0  0.06667  0.87510  0.41431  1.0000
  H   H305      1.0  0.16267  0.69380  0.38156  1.0000
  N   N20       1.0  0.17387  0.67487  0.42791  1.0000
  C   C190      1.0  0.21772  0.70671  0.31955  1.0000
  S   S81       1.0  0.03494  0.91035  0.58778  1.0000
  C   C191      1.0  0.07318  0.94526  0.32407  1.0000
  C   C192      1.0  0.12175  0.94479  0.53564  1.0000
  H   H306      1.0  0.03528  0.85942  0.38079  1.0000
  H   H307      1.0  0.21183  0.81542  0.61039  1.0000
  C   C193      1.0  0.03818  0.94696  0.53052  1.0000
  H   H308      1.0  0.05684  0.78866  0.38799  1.0000
  H   H309      1.0  0.05210  0.81671  0.35836  1.0000
  C   C194      1.0  0.09983  0.67841  0.33582  1.0000
  H   H310      1.0  0.13213  0.97328  0.54129  1.0000
  C   C195      1.0  0.04061  0.85448  0.40761  1.0000
  S   S82       1.0  0.17913  0.90221  0.32157  1.0000
  N   N21       1.0  0.12522  0.93779  0.49870  1.0000
  H   H311      1.0  0.11244  0.89349  0.46501  1.0000
  H   H312      1.0  0.14568  0.69957  0.44339  1.0000
  C   C196      1.0  0.10860  0.95193  0.47665  1.0000
  H   H313      1.0  0.07748  0.67673  0.43242  1.0000
  H   H314      1.0  0.07044  0.83341  0.45330  1.0000
  H   H315      1.0  0.09494  0.93105  0.54334  1.0000
  H   H316      1.0  0.08193  0.88609  0.49786  1.0000
  H   H317      1.0  0.22986  0.78447  0.35236  1.0000
  C   C197      1.0  0.14804  0.67628  0.44947  1.0000
  C   C198      1.0  0.21406  0.94563  0.32543  1.0000
  C   C199      1.0  0.08395  0.67754  0.40540  1.0000
  H   H318      1.0  0.08533  0.83523  0.39018  1.0000
  H   H319      1.0  0.20469  0.73075  0.42324  1.0000
  H   H320      1.0  0.13503  0.93542  0.55282  1.0000
  C   C200      1.0  0.23323  0.76201  0.34839  1.0000
  H   H321      1.0  0.02732  0.81626  0.46512  1.0000
  C   C201      1.0  0.18525  0.87024  0.64091  1.0000
  C   C202      1.0  0.19754  0.84689  0.64169  1.0000
  H   H322      1.0  0.24562  0.68139  0.33538  1.0000
  H   H323      1.0  0.17422  0.98343  0.49511  1.0000
  C   C203      1.0  0.24230  0.70385  0.33895  1.0000
  C   C204      1.0  0.20610  0.70788  0.43315  1.0000
  H   H324      1.0  0.16461  0.95013  0.46221  1.0000
  S   S83       1.0  0.00670  0.91861  0.38857  1.0000
  H   H325      1.0  0.01914  0.98444  0.62256  1.0000
  C   C205      1.0  0.00568  0.74020  0.32238  1.0000
  H   H326      1.0  0.15421  0.67808  0.47758  1.0000
  H   H327      1.0  0.07772  0.79753  0.63344  1.0000
  C   C206      1.0  0.07054  0.91199  0.31946  1.0000
  C   C207      1.0  0.16353  0.67050  0.39097  1.0000
  H   H328      1.0  0.18110  0.66662  0.37428  1.0000
  S   S84       1.0  0.23879  0.87386  0.77756  1.0000
  Fe  Fe43      1.0  0.07408  0.92465  0.71286  1.0000
  H   H329      1.0  0.09519  0.93985  0.80290  1.0000
  H   H330      1.0  0.02668  0.77250  0.69161  1.0000
  C   C208      1.0  0.07961  0.81640  0.65420  1.0000
  C   C209      1.0  0.01664  0.71744  0.94398  1.0000
  H   H331      1.0  0.14268  0.91183  0.80606  1.0000
  H   H332      1.0  0.05801  0.88854  0.83724  1.0000
  H   H333      1.0  0.13586  0.70811  0.91739  1.0000
  H   H334      1.0  0.24606  0.98815  0.73343  1.0000
  S   S85       1.0  0.21028  0.93857  0.82682  1.0000
  S   S86       1.0  0.06990  0.96279  0.67842  1.0000
  S   S87       1.0  0.09562  0.84894  0.92950  1.0000
  Fe  Fe44      1.0  0.21234  0.82551  0.80970  1.0000
  S   S88       1.0  0.17773  0.84195  0.83422  1.0000
  H   H335      1.0  0.16281  0.94957  0.86196  1.0000
  Fe  Fe45      1.0  0.19815  0.84298  0.73710  1.0000
  S   S89       1.0  0.16319  0.86107  0.75674  1.0000
  S   S90       1.0  0.20881  0.83474  0.68102  1.0000
  Fe  Fe46      1.0  0.20190  0.88841  0.79955  1.0000
  H   H336      1.0  0.17011  0.73855  0.86657  1.0000
  Fe  Fe47      1.0  0.14182  0.81359  0.79017  1.0000
  S   S91       1.0  0.08604  0.77243  0.79028  1.0000
  H   H337      1.0  0.13189  0.72144  0.84114  1.0000
  S   S92       1.0  0.17459  0.79367  0.76801  1.0000
  H   H338      1.0  0.18189  0.88125  0.66488  1.0000
  H   H339      1.0  0.09723  0.69240  0.89311  1.0000
  N   N22       1.0  0.13217  0.74761  0.88898  1.0000
  C   C210      1.0  0.13713  0.93205  0.87175  1.0000
  C   C211      1.0  0.03051  0.78312  0.86740  1.0000
  H   H340      1.0  0.13917  0.96459  0.81264  1.0000
  C   C212      1.0  0.14955  0.74349  0.85862  1.0000
  C   C213      1.0  0.04014  0.97001  0.95542  1.0000
  S   S93       1.0  0.04255  0.87752  0.67802  1.0000
  C   C214      1.0  0.05288  0.76656  0.81803  1.0000
  C   C215      1.0  0.10982  0.79831  0.69195  1.0000
  H   H341      1.0  0.16891  0.80211  0.89740  1.0000
  C   C216      1.0  0.10570  0.75490  0.87710  1.0000
  C   C217      1.0  0.08324  0.82948  0.71566  1.0000
  H   H342      1.0  0.10883  0.77918  0.67200  1.0000
  H   H343      1.0  0.04675  0.74922  0.67531  1.0000
  H   H344      1.0  0.01677  0.71958  0.79043  1.0000
  H   H345      1.0  0.09860  0.88485  0.79811  1.0000
  C   C218      1.0  0.11677  0.71495  0.90878  1.0000
  H   H346      1.0  0.13378  0.82326  0.68839  1.0000
  C   C219      1.0  0.22598  0.93314  0.95496  1.0000
  H   H347      1.0  0.18894  0.94090  0.74886  1.0000
  H   H348      1.0  0.07243  0.91392  0.87701  1.0000
  S   S94       1.0  0.02127  0.87143  0.93005  1.0000
  H   H349      1.0  0.17699  0.77240  0.92083  1.0000
  H   H350      1.0  0.13201  0.94724  0.89179  1.0000
  H   H351      1.0  0.04897  0.75981  0.72084  1.0000
  S   S95       1.0  0.03020  0.91609  0.74602  1.0000
  C   C220      1.0  0.01650  0.90817  0.94013  1.0000
  H   H352      1.0  0.07484  0.87474  0.87141  1.0000
  H   H353      1.0  0.10562  0.85580  0.71159  1.0000
  H   H354      1.0  0.10971  0.96657  0.84203  1.0000
  C   C221      1.0  0.19173  0.96247  0.73354  1.0000
  C   C222      1.0  0.22665  0.90183  0.95738  1.0000
  C   C223      1.0  0.02071  0.73746  0.81191  1.0000
  H   H355      1.0  0.14429  0.78094  0.93456  1.0000
  H   H356      1.0  0.20341  0.87699  0.95584  1.0000
  H   H357      1.0  0.10440  0.71767  0.93242  1.0000
  C   C224      1.0  0.05765  0.78957  0.84583  1.0000
  H   H358      1.0  0.08538  0.82132  0.74219  1.0000
  H   H359      1.0  0.08221  0.81201  0.85105  1.0000
  C   C225      1.0  0.07780  0.89814  0.85785  1.0000
  H   H360      1.0  0.13804  0.91033  0.88501  1.0000
  H   H361      1.0  0.16129  0.76760  0.84306  1.0000
  C   C226      1.0  0.04401  0.71841  0.96092  1.0000
  H   H362      1.0  0.01740  0.74167  0.93764  1.0000
  H   H363      1.0  0.11643  0.77960  0.86250  1.0000
  H   H364      1.0  0.06076  0.83270  0.71531  1.0000
  H   H365      1.0  0.11112  0.78823  0.71780  1.0000
  H   H366      1.0  0.14536  0.99367  0.69571  1.0000
  H   H367      1.0  0.08698  0.73352  0.85970  1.0000
  Fe  Fe48      1.0  0.06154  0.86447  0.95739  1.0000
  N   N23       1.0  0.08052  0.80349  0.68904  1.0000
  N   N24       1.0  0.11176  0.91884  0.84333  1.0000
  Fe  Fe49      1.0  0.02325  0.95051  0.70824  1.0000
  C   C227      1.0  0.04260  0.68667  0.96875  1.0000
  S   S96       1.0  0.12246  0.92990  0.73523  1.0000
  C   C228      1.0  0.11810  0.89643  0.81905  1.0000
  C   C229      1.0  0.15664  0.77703  0.91145  1.0000
  C   C230      1.0  0.04403  0.94049  0.95028  1.0000
  H   H368      1.0  0.09167  0.75772  0.89921  1.0000
  C   C231      1.0  0.16297  0.96367  0.72299  1.0000
  S   S97       1.0  0.18791  0.93345  0.94918  1.0000
  C   C232      1.0  0.11401  0.94884  0.82451  1.0000
  H   H369      1.0  0.03433  0.80073  0.88911  1.0000
  C   C233      1.0  0.04938  0.76977  0.69440  1.0000
  H   H370      1.0  0.11860  0.87464  0.83259  1.0000
  Fe  Fe50      1.0  0.13664  0.88940  0.96437  1.0000
  S   S98       1.0  0.08111  0.75838  0.97130  1.0000
  H   H371      1.0  0.05773  0.82048  0.65103  1.0000
  Fe  Fe51      1.0  0.08421  0.81162  0.97331  1.0000
  S   S99       1.0  0.23783  0.80762  0.84884  1.0000
  H   H372      1.0  0.22779  0.99484  0.87634  1.0000
  H   H373      1.0  0.06855  0.94303  0.95325  1.0000
  C   C234      1.0  0.00862  0.96744  0.95114  1.0000
  H   H374      1.0  0.06176  0.99505  0.96263  1.0000
  H   H375      1.0  0.10274  0.84194  0.64946  1.0000
  C   C235      1.0  0.24705  0.98008  0.83211  1.0000
  C   C236      1.0  0.16712  0.99216  0.70381  1.0000
  H   H376      1.0  0.24946  0.77487  0.78715  1.0000
  C   C237      1.0  0.22422  0.98924  0.72474  1.0000
  S   S100      1.0  0.01471  0.99613  0.72144  1.0000
  Fe  Fe52      1.0  0.03550  0.91526  0.64594  1.0000
  S   S101      1.0  0.48146  0.03609  0.26893  1.0000
  Fe  Fe53      1.0  0.34202  0.17632  0.26202  1.0000
  S   S102      1.0  0.36802  0.22636  0.23191  1.0000
  C   C238      1.0  0.47358  0.06045  0.10399  1.0000
  Fe  Fe54      1.0  0.40899  0.17581  0.27204  1.0000
  S   S103      1.0  0.43769  0.22624  0.24313  1.0000
  H   H377      1.0  0.47973  0.07179  0.07868  1.0000
  Fe  Fe55      1.0  0.40902  0.24702  0.27251  1.0000
  Fe  Fe56      1.0  0.39516  0.20303  0.20416  1.0000
  S   S104      1.0  0.41493  0.21637  0.14896  1.0000
  S   S105      1.0  0.36729  0.15145  0.23115  1.0000
  S   S106      1.0  0.33817  0.16337  0.00283  1.0000
  C   C239      1.0  0.44539  0.12422  0.02847  1.0000
  H   H378      1.0  0.44050  0.16253  0.20785  1.0000
  C   C240      1.0  0.39124  0.20456  0.10945  1.0000
  C   C241      1.0  0.40669  0.22279  0.07919  1.0000
  C   C242      1.0  0.39035  0.21156  0.04651  1.0000
  C   C243      1.0  0.35853  0.18152  0.04359  1.0000
  C   C244      1.0  0.34273  0.16398  0.07400  1.0000
  C   C245      1.0  0.35886  0.17545  0.10673  1.0000
  H   H379      1.0  0.43171  0.24539  0.08091  1.0000
  H   H380      1.0  0.40268  0.22573  0.02350  1.0000
  H   H381      1.0  0.31802  0.14090  0.07215  1.0000
  H   H382      1.0  0.34665  0.16106  0.12966  1.0000
  C   C246      1.0  0.38756  0.11045  0.02421  1.0000
  C   C247      1.0  0.43355  0.03305  0.14980  1.0000
  S   S107      1.0  0.40926  0.04467  0.08960  1.0000
  N   N25       1.0  0.42245  0.13843  0.03191  1.0000
  Fe  Fe57      1.0  0.41602  0.03056  0.03495  1.0000
  H   H383      1.0  0.48975  0.20825  0.24056  1.0000
  S   S108      1.0  0.38661  0.03476  0.99082  1.0000
  N   N26       1.0  0.37921  0.03262  0.28720  1.0000
  H   H384      1.0  0.38465  0.10064  0.99687  1.0000
  H   H385      1.0  0.38145  0.04970  0.23500  1.0000
  H   H386      1.0  0.46740  0.30422  0.21527  1.0000
  S   S109      1.0  0.28551  0.15941  0.26652  1.0000
  C   C248      1.0  0.49023  0.33028  0.21163  1.0000
  H   H387      1.0  0.35280  0.31054  0.24808  1.0000
  H   H388      1.0  0.40625  0.16079  0.07176  1.0000
  H   H389      1.0  0.41901  0.13123  0.08695  1.0000
  H   H390      1.0  0.41453  0.17737  0.00781  1.0000
  C   C249      1.0  0.49138  0.20956  0.17015  1.0000
  H   H391      1.0  0.25370  0.24537  0.28288  1.0000
  H   H392      1.0  0.34847  0.05665  0.28235  1.0000
  H   H393      1.0  0.38621  0.08186  0.30742  1.0000
  H   H394      1.0  0.36953  0.12023  0.02757  1.0000
  C   C250      1.0  0.45829  0.03145  0.16988  1.0000
  H   H395      1.0  0.43991  0.10370  0.04771  1.0000
  C   C251      1.0  0.49057  0.04418  0.15675  1.0000
  S   S110      1.0  0.44066  0.14918  0.28448  1.0000
  H   H396      1.0  0.41914  0.07510  0.26029  1.0000
  H   H397      1.0  0.26821  0.09615  0.30606  1.0000
  S   S111      1.0  0.46492  0.05553  0.00723  1.0000
  H   H398      1.0  0.45654  0.13335  0.21384  1.0000
  H   H399      1.0  0.47542  0.21975  0.18095  1.0000
  C   C252      1.0  0.44101  0.04668  0.11645  1.0000
  H   H400      1.0  0.45793  0.18927  0.01256  1.0000
  H   H401      1.0  0.49310  0.29945  0.26951  1.0000
  H   H402      1.0  0.45007  0.17463  0.07381  1.0000
  H   H403      1.0  0.40861  0.03219  0.24417  1.0000
  C   C253      1.0  0.43213  0.16700  0.00716  1.0000
  H   H404      1.0  0.28870  0.00314  0.28934  1.0000
  C   C254      1.0  0.45723  0.15354  0.19643  1.0000
  C   C255      1.0  0.39790  0.04803  0.25518  1.0000
  S   S112      1.0  0.43011  0.30619  0.28312  1.0000
  H   H405      1.0  0.47208  0.14513  0.03221  1.0000
  H   H406      1.0  0.34290  0.32642  0.20991  1.0000
  S   S113      1.0  0.38251  0.19834  0.30404  1.0000
  H   H407      1.0  0.45209  0.01940  0.19493  1.0000
  Fe  Fe58      1.0  0.45054  0.00073  0.98906  1.0000
  N   N27       1.0  0.49183  0.18313  0.19285  1.0000
  C   C256      1.0  0.48225  0.12195  0.29770  1.0000
  C   C257      1.0  0.42470  0.15194  0.06773  1.0000
  C   C258      1.0  0.49839  0.05948  0.12421  1.0000
  H   H408      1.0  0.40832  0.02234  0.15946  1.0000
  C   C259      1.0  0.36581  0.05463  0.30115  1.0000
  H   H409      1.0  0.43160  0.15750  0.98012  1.0000
  H   H410      1.0  0.37971  0.08782  0.04156  1.0000
  H   H411      1.0  0.44288  0.11199  0.00242  1.0000
  H   H412      1.0  0.41318  0.01530  0.30349  1.0000
  H   H413      1.0  0.48098  0.19830  0.14393  1.0000
  H   H414      1.0  0.48828  0.12633  0.27061  1.0000
  H   H415      1.0  0.44607  0.14059  0.17093  1.0000
  Fe  Fe59      1.0  0.30707  0.12949  0.44458  1.0000
  S   S114      1.0  0.32252  0.18458  0.43101  1.0000
  S   S115      1.0  0.29258  0.11124  0.49899  1.0000
  Fe  Fe60      1.0  0.30284  0.10514  0.36993  1.0000
  S   S116      1.0  0.31726  0.15894  0.35058  1.0000
  C   C260      1.0  0.36977  0.32008  0.36185  1.0000
  Fe  Fe61      1.0  0.35685  0.17962  0.39276  1.0000
  S   S117      1.0  0.40830  0.22806  0.38488  1.0000
  Fe  Fe62      1.0  0.28214  0.16065  0.38978  1.0000
  C   C261      1.0  0.37905  0.28710  0.40536  1.0000
  S   S118      1.0  0.34464  0.12614  0.41008  1.0000
  S   S119      1.0  0.29957  0.06086  0.33460  1.0000
  C   C262      1.0  0.48616  0.20921  0.38259  1.0000
  C   C263      1.0  0.48889  0.09841  0.35244  1.0000
  H   H416      1.0  0.49924  0.31045  0.43380  1.0000
  H   H417      1.0  0.28910  0.04622  0.45956  1.0000
  H   H418      1.0  0.37009  0.26096  0.41685  1.0000
  C   C264      1.0  0.46638  0.10802  0.36723  1.0000
  C   C265      1.0  0.45230  0.12469  0.34755  1.0000
  H   H419      1.0  0.45935  0.10211  0.39399  1.0000
  H   H420      1.0  0.43504  0.13160  0.35945  1.0000
  C   C266      1.0  0.38797  0.17640  0.61010  1.0000
  C   C267      1.0  0.28460  0.03039  0.43517  1.0000
  H   H421      1.0  0.34778  0.05804  0.45968  1.0000
  H   H422      1.0  0.44912  0.30262  0.35601  1.0000
  C   C268      1.0  0.44354  0.22504  0.37073  1.0000
  C   C269      1.0  0.45458  0.20570  0.38933  1.0000
  H   H423      1.0  0.35363  0.31924  0.33988  1.0000
  S   S120      1.0  0.26453  0.10511  0.40611  1.0000
  C   C270      1.0  0.46378  0.24652  0.34406  1.0000
  H   H424      1.0  0.43936  0.18910  0.40989  1.0000
  N   N28       1.0  0.42467  0.19083  0.60839  1.0000
  H   H425      1.0  0.32193  0.28932  0.41012  1.0000
  C   C271      1.0  0.45900  0.32968  0.34950  1.0000
  C   C272      1.0  0.35924  0.08227  0.56120  1.0000
  C   C273      1.0  0.36919  0.09637  0.52825  1.0000
  C   C274      1.0  0.34912  0.10593  0.50907  1.0000
  C   C275      1.0  0.31885  0.10076  0.52260  1.0000
  C   C276      1.0  0.30898  0.08666  0.55551  1.0000
  C   C277      1.0  0.32916  0.07748  0.57483  1.0000
  H   H426      1.0  0.39257  0.10025  0.51777  1.0000
  H   H427      1.0  0.35707  0.11732  0.48390  1.0000
  H   H428      1.0  0.31190  0.24516  0.39966  1.0000
  H   H429      1.0  0.35169  0.04381  0.32538  1.0000
  H   H430      1.0  0.46170  0.17901  0.62823  1.0000
  H   H431      1.0  0.32115  0.06629  0.60010  1.0000
  H   H432      1.0  0.34715  0.23387  0.35938  1.0000
  C   C278      1.0  0.43432  0.19125  0.57183  1.0000
  H   H433      1.0  0.42737  0.20757  0.55595  1.0000
  C   C279      1.0  0.35644  0.26051  0.34913  1.0000
  H   H434      1.0  0.26990  0.21149  0.32153  1.0000
  H   H435      1.0  0.46185  0.20193  0.56956  1.0000
  H   H436      1.0  0.45518  0.26085  0.32877  1.0000
  S   S121      1.0  0.38501  0.07175  0.58562  1.0000
  H   H437      1.0  0.33980  0.25777  0.32684  1.0000
  H   H438      1.0  0.30528  0.27040  0.36807  1.0000
  H   H439      1.0  0.40507  0.29625  0.39652  1.0000
  N   N29       1.0  0.35696  0.28493  0.37636  1.0000
  N   N30       1.0  0.30620  0.01437  0.43351  1.0000
  H   H440      1.0  0.35878  0.03084  0.43416  1.0000
  C   C280      1.0  0.34188  0.04216  0.43523  1.0000
  H   H441      1.0  0.49465  0.19461  0.39762  1.0000
  C   C281      1.0  0.43411  0.16860  0.62821  1.0000
  H   H442      1.0  0.38203  0.26927  0.33903  1.0000
  H   H443      1.0  0.38034  0.30546  0.42633  1.0000
  H   H444      1.0  0.28555  0.08261  0.56607  1.0000
  H   H445      1.0  0.28932  0.04805  0.41306  1.0000
  C   C282      1.0  0.26602  0.01687  0.33104  1.0000
  C   C283      1.0  0.49544  0.25004  0.33730  1.0000
  H   H446      1.0  0.37395  0.14896  0.59950  1.0000
  C   C284      1.0  0.45989  0.13151  0.31233  1.0000
  H   H447      1.0  0.25750  0.01002  0.43389  1.0000
  H   H448      1.0  0.42145  0.16425  0.56000  1.0000
  H   H449      1.0  0.37982  0.19214  0.59490  1.0000
  C   C285      1.0  0.32257  0.27195  0.38915  1.0000
  H   H450      1.0  0.38886  0.01944  0.33768  1.0000
  H   H451      1.0  0.43583  0.24456  0.60917  1.0000
  C   C286      1.0  0.44220  0.22690  0.62347  1.0000
  H   H452      1.0  0.34832  0.06029  0.41321  1.0000
  H   H453      1.0  0.42330  0.05749  0.31969  1.0000
  Fe  Fe63      1.0  0.37152  0.06672  0.64193  1.0000
  H   H454      1.0  0.30541  0.01133  0.37797  1.0000
  C   C287      1.0  0.49681  0.10619  0.31751  1.0000
  H   H455      1.0  0.37981  0.17607  0.63731  1.0000
  H   H456      1.0  0.42175  0.14127  0.61740  1.0000
  H   H457      1.0  0.39575  0.33066  0.35216  1.0000
  H   H458      1.0  0.46997  0.23850  0.62308  1.0000
  H   H459      1.0  0.30369  0.00511  0.48826  1.0000
  C   C288      1.0  0.40203  0.03106  0.31320  1.0000
  C   C289      1.0  0.25287  0.06710  0.78549  1.0000
  Fe  Fe64      1.0  0.31980  0.05811  0.69559  1.0000
  H   H460      1.0  0.39898  0.12134  0.79867  1.0000
  S   S122      1.0  0.26846  0.05429  0.69705  1.0000
  Fe  Fe65      1.0  0.36930  0.03214  0.70987  1.0000
  S   S123      1.0  0.41101  0.07611  0.68159  1.0000
  H   H461      1.0  0.28335  0.14902  0.75409  1.0000
  Fe  Fe66      1.0  0.39524  0.11163  0.70777  1.0000
  S   S124      1.0  0.44003  0.16381  0.72545  1.0000
  C   C290      1.0  0.49060  0.23619  0.82963  1.0000
  H   H462      1.0  0.48943  0.30974  0.84569  1.0000
  S   S125      1.0  0.35614  0.06837  0.73973  1.0000
  H   H463      1.0  0.39562  0.07037  0.82946  1.0000
  Fe  Fe67      1.0  0.35457  0.17624  0.94638  1.0000
  S   S126      1.0  0.38912  0.15929  0.92283  1.0000
  Fe  Fe68      1.0  0.34164  0.20070  0.87650  1.0000
  S   S127      1.0  0.37613  0.18580  0.84887  1.0000
  S   S128      1.0  0.31533  0.21883  0.83807  1.0000
  Fe  Fe69      1.0  0.35130  0.13613  0.87903  1.0000
  S   S129      1.0  0.34281  0.08744  0.84829  1.0000
  Fe  Fe70      1.0  0.41124  0.20987  0.89427  1.0000
  S   S130      1.0  0.46805  0.24625  0.89345  1.0000
  S   S131      1.0  0.31475  0.14922  0.90400  1.0000
  S   S132      1.0  0.37887  0.22869  0.92041  1.0000
  C   C291      1.0  0.30535  0.04651  0.84275  1.0000
  C   C292      1.0  0.30360  0.02348  0.81600  1.0000
  H   H464      1.0  0.49814  0.23187  0.71810  1.0000
  H   H465      1.0  0.48531  0.13051  0.85063  1.0000
  H   H466      1.0  0.40445  0.32208  0.82649  1.0000
  H   H467      1.0  0.25324  0.27370  0.79094  1.0000
  C   C293      1.0  0.27771  0.03621  0.86423  1.0000
  H   H468      1.0  0.46457  0.21892  0.82251  1.0000
  C   C294      1.0  0.29641  0.24573  0.84178  1.0000
  C   C295      1.0  0.48662  0.17844  0.93763  1.0000
  C   C296      1.0  0.45392  0.27488  0.72477  1.0000
  S   S133      1.0  0.35825  0.10462  0.66627  1.0000
  H   H469      1.0  0.39172  0.18872  0.72789  1.0000
  H   H470      1.0  0.42652  0.08982  0.77463  1.0000
  H   H471      1.0  0.32495  0.03094  0.79958  1.0000
  H   H472      1.0  0.44757  0.29618  0.89133  1.0000
  H   H473      1.0  0.46554  0.13035  0.77354  1.0000
  H   H474      1.0  0.30901  0.26042  0.89558  1.0000
  C   C297      1.0  0.48509  0.14695  0.94707  1.0000
  H   H475      1.0  0.48427  0.32448  0.80425  1.0000
  C   C298      1.0  0.29778  0.12171  0.80918  1.0000
  H   H476      1.0  0.40014  0.24910  0.73008  1.0000
  C   C299      1.0  0.44429  0.20603  0.72279  1.0000
  Fe  Fe71      1.0  0.43516  0.05638  0.96169  1.0000
  C   C300      1.0  0.28188  0.28443  0.87409  1.0000
  H   H477      1.0  0.29356  0.11625  0.74043  1.0000
  H   H478      1.0  0.28259  0.29781  0.89819  1.0000
  C   C301      1.0  0.27398  0.12029  0.75310  1.0000
  C   C302      1.0  0.41899  0.08934  0.84380  1.0000
  C   C303      1.0  0.26530  0.27093  0.81381  1.0000
  N   N31       1.0  0.44373  0.31118  0.83952  1.0000
  H   H479      1.0  0.46730  0.17772  0.92102  1.0000
  C   C304      1.0  0.42445  0.27464  0.82600  1.0000
  H   H480      1.0  0.43333  0.25792  0.83798  1.0000
  H   H481      1.0  0.27882  0.05344  0.88525  1.0000
  S   S134      1.0  0.45210  0.10604  0.93073  1.0000
  N   N32       1.0  0.44058  0.11989  0.82252  1.0000
  H   H482      1.0  0.46565  0.15434  0.86610  1.0000
  C   C305      1.0  0.47655  0.23547  0.72002  1.0000
  C   C306      1.0  0.42154  0.24538  0.72678  1.0000
  N   N33       1.0  0.26656  0.10546  0.78810  1.0000
  C   C307      1.0  0.47977  0.32531  0.83254  1.0000
  H   H483      1.0  0.43224  0.07526  0.85192  1.0000
  S   S135      1.0  0.42382  0.00300  0.94082  1.0000
  C   C308      1.0  0.48137  0.26972  0.72073  1.0000
  H   H484      1.0  0.46310  0.09362  0.79580  1.0000
  H   H485      1.0  0.42658  0.16714  0.65569  1.0000
  H   H486      1.0  0.27129  0.06061  0.77376  1.0000
  C   C309      1.0  0.28055  0.24987  0.81237  1.0000
  C   C310      1.0  0.44937  0.10785  0.79024  1.0000
  H   H487      1.0  0.29324  0.11064  0.83555  1.0000
  C   C311      1.0  0.41667  0.21110  0.72543  1.0000
  H   H488      1.0  0.48880  0.16693  0.82664  1.0000
  H   H489      1.0  0.41118  0.09755  0.86792  1.0000
  H   H490      1.0  0.42728  0.27318  0.79746  1.0000
  C   C312      1.0  0.47155  0.14399  0.84226  1.0000
  S   S136      1.0  0.33049  0.01956  0.66762  1.0000
  H   H491      1.0  0.43800  0.16190  0.79815  1.0000
  H   H492      1.0  0.43527  0.22732  0.65106  1.0000
  C   C313      1.0  0.42237  0.13852  0.81387  1.0000
  H   H493      1.0  0.28002  0.23666  0.78823  1.0000
  C   C314      1.0  0.29697  0.26322  0.87270  1.0000
  C   C315      1.0  0.26582  0.28835  0.84475  1.0000
  H   H494      1.0  0.30847  0.15058  0.81220  1.0000
  C   C316      1.0  0.43890  0.31213  0.87732  1.0000
  H   H495      1.0  0.31727  0.11707  0.79718  1.0000
  H   H496      1.0  0.41200  0.30167  0.88366  1.0000
  H   H497      1.0  0.41505  0.14758  0.83770  1.0000
  S   S137      1.0  0.45896  0.31738  0.73044  1.0000
  H   H498      1.0  0.39713  0.26282  0.83124  1.0000
  C   C317      1.0  0.49886  0.25264  0.86237  1.0000
  H   H499      1.0  0.44934  0.59152  0.21976  1.0000
  S   S138      1.0  0.48442  0.46266  0.25455  1.0000
  H   H500      1.0  0.26601  0.54339  0.30486  1.0000
  Fe  Fe72      1.0  0.46217  0.48663  0.29078  1.0000
  S   S139      1.0  0.41361  0.51946  0.08758  1.0000
  H   H501      1.0  0.49047  0.61706  0.27306  1.0000
  S   S140      1.0  0.43399  0.62775  0.28036  1.0000
  C   C318      1.0  0.44632  0.52213  0.11324  1.0000
  C   C319      1.0  0.44100  0.51421  0.14843  1.0000
  C   C320      1.0  0.46740  0.51776  0.16965  1.0000
  H   H502      1.0  0.41638  0.50505  0.15917  1.0000
  Fe  Fe73      1.0  0.42360  0.51966  0.03049  1.0000
  S   S141      1.0  0.41677  0.47250  0.00002  1.0000
  S   S142      1.0  0.46999  0.55791  0.00267  1.0000
  S   S143      1.0  0.28437  0.64528  0.26175  1.0000
  H   H503      1.0  0.37221  0.39036  0.19920  1.0000
  H   H504      1.0  0.33725  0.56437  0.29867  1.0000
  C   C321      1.0  0.43237  0.58729  0.19726  1.0000
  S   S144      1.0  0.36498  0.63604  0.23119  1.0000
  H   H505      1.0  0.49752  0.62109  0.18096  1.0000
  C   C322      1.0  0.40950  0.36302  0.22237  1.0000
  C   C323      1.0  0.37978  0.39517  0.22707  1.0000
  H   H506      1.0  0.41694  0.39862  0.28236  1.0000
  H   H507      1.0  0.32672  0.53088  0.00383  1.0000
  C   C324      1.0  0.39272  0.37362  0.27848  1.0000
  H   H508      1.0  0.46314  0.51141  0.19674  1.0000
  H   H509      1.0  0.33051  0.33437  0.25172  1.0000
  H   H510      1.0  0.30621  0.55158  0.02512  1.0000
  C   C325      1.0  0.48380  0.61350  0.30010  1.0000
  S   S145      1.0  0.40428  0.45722  0.29486  1.0000
  S   S146      1.0  0.38875  0.52810  0.99689  1.0000
  C   C326      1.0  0.42565  0.60837  0.14220  1.0000
  N   N34       1.0  0.33490  0.57852  0.98071  1.0000
  H   H511      1.0  0.49287  0.33511  0.18330  1.0000
  H   H512      1.0  0.47380  0.59112  0.14608  1.0000
  H   H513      1.0  0.40388  0.42057  0.22929  1.0000
  C   C327      1.0  0.36548  0.60146  0.00158  1.0000
  H   H514      1.0  0.48535  0.35027  0.22426  1.0000
  H   H515      1.0  0.35927  0.60917  0.02694  1.0000
  C   C328      1.0  0.47965  0.61635  0.15924  1.0000
  H   H516      1.0  0.30549  0.50003  0.30403  1.0000
  H   H517      1.0  0.38034  0.58842  0.00694  1.0000
  H   H518      1.0  0.33235  0.41463  0.29777  1.0000
  C   C329      1.0  0.45764  0.64944  0.18855  1.0000
  H   H519      1.0  0.40948  0.58643  0.20787  1.0000
  H   H520      1.0  0.49287  0.63748  0.14022  1.0000
  N   N35       1.0  0.44885  0.61536  0.17180  1.0000
  H   H521      1.0  0.48222  0.53932  0.07207  1.0000
  H   H522      1.0  0.42481  0.56110  0.18541  1.0000
  H   H523      1.0  0.40214  0.60752  0.15075  1.0000
  C   C330      1.0  0.47798  0.53334  0.09922  1.0000
  H   H524      1.0  0.30841  0.60419  0.99963  1.0000
  H   H525      1.0  0.46003  0.38087  0.28455  1.0000
  H   H526      1.0  0.41860  0.58289  0.12875  1.0000
  H   H527      1.0  0.36468  0.53014  0.28150  1.0000
  H   H528      1.0  0.43482  0.64940  0.19812  1.0000
  H   H529      1.0  0.43718  0.62932  0.12270  1.0000
  H   H530      1.0  0.29005  0.52827  0.98443  1.0000
  H   H531      1.0  0.25960  0.42991  0.10440  1.0000
  C   C331      1.0  0.31353  0.54589  0.99938  1.0000
  C   C332      1.0  0.49918  0.52937  0.15565  1.0000
  H   H532      1.0  0.36071  0.39889  0.24136  1.0000
  S   S147      1.0  0.49272  0.54108  0.26910  1.0000
  H   H533      1.0  0.43433  0.38747  0.22517  1.0000
  N   N36       1.0  0.38322  0.36619  0.24136  1.0000
  H   H534      1.0  0.37362  0.37653  0.29359  1.0000
  H   H535      1.0  0.38245  0.62590  0.98774  1.0000
  Fe  Fe74      1.0  0.40805  0.66094  0.27041  1.0000
  Fe  Fe75      1.0  0.34182  0.66424  0.25964  1.0000
  H   H536      1.0  0.40335  0.35780  0.19418  1.0000
  C   C333      1.0  0.37369  0.53278  0.30876  1.0000
  H   H537      1.0  0.39575  0.35238  0.28998  1.0000
  H   H538      1.0  0.39899  0.55652  0.31059  1.0000
  H   H539      1.0  0.47479  0.65547  0.21132  1.0000
  H   H540      1.0  0.41252  0.34114  0.23225  1.0000
  C   C334      1.0  0.35092  0.33293  0.23761  1.0000
  C   C335      1.0  0.46420  0.37357  0.30984  1.0000
  H   H541      1.0  0.29946  0.50258  0.34981  1.0000
  S   S148      1.0  0.29950  0.42624  0.41758  1.0000
  C   C336      1.0  0.47705  0.56341  0.52611  1.0000
  H   H542      1.0  0.45229  0.54228  0.53513  1.0000
  H   H543      1.0  0.29416  0.47798  0.46830  1.0000
  C   C337      1.0  0.36495  0.58955  0.56565  1.0000
  H   H544      1.0  0.35305  0.47884  0.53539  1.0000
  H   H545      1.0  0.32453  0.57124  0.60203  1.0000
  N   N37       1.0  0.49105  0.55008  0.49928  1.0000
  C   C338      1.0  0.45287  0.33818  0.31655  1.0000
  C   C339      1.0  0.38668  0.46056  0.36380  1.0000
  C   C340      1.0  0.36298  0.45316  0.39028  1.0000
  C   C341      1.0  0.32819  0.43203  0.38365  1.0000
  C   C342      1.0  0.31750  0.41771  0.35018  1.0000
  C   C343      1.0  0.48216  0.40013  0.33516  1.0000
  H   H546      1.0  0.41325  0.47725  0.36931  1.0000
  H   H547      1.0  0.37170  0.46431  0.41602  1.0000
  C   C344      1.0  0.49093  0.39210  0.36690  1.0000
  H   H548      1.0  0.28902  0.50664  0.53999  1.0000
  H   H549      1.0  0.38827  0.56262  0.37258  1.0000
  Fe  Fe76      1.0  0.29516  0.60758  0.38836  1.0000
  H   H550      1.0  0.47098  0.49928  0.52209  1.0000
  H   H551      1.0  0.26795  0.42113  0.49759  1.0000
  H   H552      1.0  0.27246  0.60312  0.32364  1.0000
  H   H553      1.0  0.49403  0.57398  0.54930  1.0000
  C   C345      1.0  0.36322  0.53873  0.36915  1.0000
  H   H554      1.0  0.46458  0.55740  0.45702  1.0000
  S   S149      1.0  0.33909  0.62091  0.42338  1.0000
  S   S150      1.0  0.27539  0.63486  0.42334  1.0000
  H   H555      1.0  0.32670  0.51680  0.49006  1.0000
  C   C346      1.0  0.34688  0.56602  0.32553  1.0000
  H   H556      1.0  0.30832  0.42566  0.50463  1.0000
  C   C347      1.0  0.46692  0.60251  0.36969  1.0000
  C   C348      1.0  0.45080  0.61523  0.34740  1.0000
  H   H557      1.0  0.45974  0.59796  0.39654  1.0000
  H   H558      1.0  0.43166  0.62032  0.35737  1.0000
  C   C349      1.0  0.49527  0.52163  0.51376  1.0000
  S   S151      1.0  0.38861  0.57606  0.58992  1.0000
  H   H559      1.0  0.29584  0.59856  0.57248  1.0000
  H   H560      1.0  0.29091  0.40143  0.34450  1.0000
  H   H561      1.0  0.28072  0.41820  0.54063  1.0000
  H   H562      1.0  0.37098  0.63595  0.49374  1.0000
  C   C350      1.0  0.36055  0.62140  0.51706  1.0000
  C   C351      1.0  0.33152  0.61909  0.53117  1.0000
  C   C352      1.0  0.31843  0.60064  0.56161  1.0000
  C   C353      1.0  0.33487  0.58548  0.57857  1.0000
  N   N38       1.0  0.30435  0.47056  0.52095  1.0000
  H   H563      1.0  0.44273  0.51466  0.47600  1.0000
  H   H564      1.0  0.25654  0.46803  0.51772  1.0000
  H   H565      1.0  0.47764  0.52625  0.44814  1.0000
  C   C354      1.0  0.31713  0.50285  0.33008  1.0000
  H   H566      1.0  0.49074  0.42713  0.32946  1.0000
  H   H567      1.0  0.33451  0.48240  0.47531  1.0000
  H   H568      1.0  0.31912  0.47904  0.33409  1.0000
  S   S152      1.0  0.26501  0.54735  0.38141  1.0000
  C   C355      1.0  0.37592  0.44689  0.33014  1.0000
  H   H569      1.0  0.38307  0.65823  0.58834  1.0000
  S   S153      1.0  0.31316  0.64196  0.51330  1.0000
  H   H570      1.0  0.37151  0.59088  0.32795  1.0000
  C   C356      1.0  0.47781  0.35649  0.37449  1.0000
  H   H571      1.0  0.32564  0.47203  0.57112  1.0000
  H   H572      1.0  0.40052  0.60976  0.52421  1.0000
  H   H573      1.0  0.48245  0.34964  0.39978  1.0000
  H   H574      1.0  0.34503  0.51308  0.54955  1.0000
  C   C357      1.0  0.49179  0.59518  0.35739  1.0000
  H   H575      1.0  0.36588  0.51582  0.37592  1.0000
  C   C358      1.0  0.37729  0.60665  0.53435  1.0000
  C   C359      1.0  0.28981  0.43226  0.51584  1.0000
  C   C360      1.0  0.34118  0.42529  0.32365  1.0000
  C   C361      1.0  0.33331  0.48421  0.54528  1.0000
  Fe  Fe77      1.0  0.32117  0.65037  0.45603  1.0000
  N   N39       1.0  0.35024  0.53513  0.33333  1.0000
  H   H576      1.0  0.32920  0.56845  0.34352  1.0000
  C   C362      1.0  0.27875  0.47797  0.53546  1.0000
  C   C363      1.0  0.31551  0.48784  0.48726  1.0000
  H   H577      1.0  0.34606  0.54071  0.38822  1.0000
  S   S154      1.0  0.32511  0.65636  0.35701  1.0000
  C   C364      1.0  0.46788  0.53647  0.46894  1.0000
  H   H578      1.0  0.26946  0.46489  0.56068  1.0000
  H   H579      1.0  0.47334  0.58481  0.51619  1.0000
  H   H580      1.0  0.48419  0.66126  0.43083  1.0000
  C   C365      1.0  0.50068  0.60225  0.32262  1.0000
  S   S155      1.0  0.49998  0.49675  0.33240  1.0000
  H   H581      1.0  0.37047  0.33916  0.38171  1.0000
  C   C366      1.0  0.45841  0.61983  0.31197  1.0000
  H   H582      1.0  0.37697  0.50989  0.31396  1.0000
  H   H583      1.0  0.45693  0.43155  0.94462  1.0000
  H   H584      1.0  0.26115  0.48683  0.93140  1.0000
  S   S156      1.0  0.42803  0.51929  0.93018  1.0000
  H   H585      1.0  0.32222  0.55306  0.93022  1.0000
  H   H586      1.0  0.37982  0.43913  0.84741  1.0000
  H   H587      1.0  0.34384  0.38950  0.80627  1.0000
  S   S157      1.0  0.48986  0.40213  0.67985  1.0000
  H   H588      1.0  0.33557  0.46801  0.82281  1.0000
  C   C367      1.0  0.27016  0.56224  0.77598  1.0000
  H   H589      1.0  0.27167  0.55221  0.74988  1.0000
  H   H590      1.0  0.36123  0.59395  0.93259  1.0000
  H   H591      1.0  0.28795  0.64101  0.81194  1.0000
  H   H592      1.0  0.48139  0.63995  0.79586  1.0000
  H   H593      1.0  0.35385  0.41441  0.88273  1.0000
  C   C368      1.0  0.42071  0.59936  0.82280  1.0000
  C   C369      1.0  0.47250  0.48618  0.73169  1.0000
  C   C370      1.0  0.31598  0.59699  0.97476  1.0000
  H   H594      1.0  0.35406  0.44887  0.79564  1.0000
  C   C371      1.0  0.35673  0.43288  0.86193  1.0000
  H   H595      1.0  0.40559  0.60744  0.80685  1.0000
  S   S158      1.0  0.31427  0.65373  0.90108  1.0000
  S   S159      1.0  0.43993  0.61542  0.95049  1.0000
  H   H596      1.0  0.29447  0.60784  0.83057  1.0000
  H   H597      1.0  0.42932  0.66048  0.68210  1.0000
  Fe  Fe78      1.0  0.36266  0.52405  0.70860  1.0000
  S   S160      1.0  0.36970  0.48029  0.72969  1.0000
  C   C372      1.0  0.27687  0.54217  0.86459  1.0000
  C   C373      1.0  0.26310  0.60783  0.75075  1.0000
  H   H598      1.0  0.46205  0.48693  0.84724  1.0000
  Fe  Fe79      1.0  0.30891  0.54325  0.68951  1.0000
  H   H599      1.0  0.45905  0.66364  0.79673  1.0000
  H   H600      1.0  0.36068  0.45743  0.87512  1.0000
  Fe  Fe80      1.0  0.43472  0.56332  0.96654  1.0000
  H   H601      1.0  0.48902  0.64048  0.87662  1.0000
  S   S161      1.0  0.34546  0.58884  0.85928  1.0000
  C   C374      1.0  0.46812  0.61810  0.86192  1.0000
  S   S162      1.0  0.40539  0.57507  0.69071  1.0000
  H   H602      1.0  0.47896  0.60479  0.84627  1.0000
  H   H603      1.0  0.46515  0.38003  0.93792  1.0000
  H   H604      1.0  0.33361  0.52450  0.82682  1.0000
  Fe  Fe81      1.0  0.37827  0.59936  0.71742  1.0000
  C   C375      1.0  0.40956  0.48318  0.72897  1.0000
  C   C376      1.0  0.43929  0.51561  0.73087  1.0000
  C   C377      1.0  0.28024  0.48817  0.82802  1.0000
  H   H605      1.0  0.42895  0.58473  0.80538  1.0000
  C   C378      1.0  0.44280  0.45374  0.72936  1.0000
  C   C379      1.0  0.41147  0.45227  0.72852  1.0000
  H   H606      1.0  0.43818  0.53957  0.73160  1.0000
  S   S163      1.0  0.34820  0.59584  0.67046  1.0000
  H   H607      1.0  0.38860  0.42707  0.72713  1.0000
  C   C380      1.0  0.30965  0.52033  0.83581  1.0000
  C   C381      1.0  0.47872  0.65503  0.95731  1.0000
  N   N40       1.0  0.32683  0.41767  0.83881  1.0000
  H   H608      1.0  0.27522  0.56280  0.87856  1.0000
  C   C382      1.0  0.33173  0.44281  0.81154  1.0000
  H   H609      1.0  0.31686  0.49056  0.93531  1.0000
  S   S164      1.0  0.33510  0.43705  0.94650  1.0000
  H   H610      1.0  0.27371  0.39819  0.84295  1.0000
  C   C383      1.0  0.31853  0.61909  0.76663  1.0000
  H   H611      1.0  0.26534  0.59908  0.72405  1.0000
  H   H612      1.0  0.40342  0.58078  0.84219  1.0000
  H   H613      1.0  0.35875  0.55579  0.95034  1.0000
  H   H614      1.0  0.45360  0.33924  0.88846  1.0000
  H   H615      1.0  0.31890  0.36541  0.84241  1.0000
  C   C384      1.0  0.43175  0.33258  0.82211  1.0000
  H   H616      1.0  0.32220  0.61108  0.74021  1.0000
  C   C385      1.0  0.34456  0.56987  0.94702  1.0000
  C   C386      1.0  0.29693  0.41025  0.85928  1.0000
  S   S165      1.0  0.33757  0.54886  0.73895  1.0000
  C   C387      1.0  0.47056  0.51706  0.73272  1.0000
  S   S166      1.0  0.25690  0.53633  0.68068  1.0000
  S   S167      1.0  0.40175  0.64919  0.75058  1.0000
  H   H617      1.0  0.30974  0.43221  0.79343  1.0000
  Fe  Fe82      1.0  0.46033  0.51107  0.96886  1.0000
  H   H618      1.0  0.33400  0.61353  0.78497  1.0000
  C   C388      1.0  0.48654  0.40571  0.94339  1.0000
  C   C389      1.0  0.29433  0.46635  0.94112  1.0000
  S   S168      1.0  0.33018  0.51390  0.66088  1.0000
  N   N41       1.0  0.44958  0.63003  0.83990  1.0000
  H   H619      1.0  0.29948  0.43455  0.87167  1.0000
  C   C390      1.0  0.48178  0.43487  0.94741  1.0000
  H   H620      1.0  0.29926  0.37213  0.80549  1.0000
  H   H621      1.0  0.29280  0.39165  0.88039  1.0000
  H   H622      1.0  0.44553  0.36027  0.83177  1.0000
  C   C391      1.0  0.32210  0.38479  0.82251  1.0000
  H   H623      1.0  0.43524  0.33256  0.79355  1.0000
  C   C392      1.0  0.29644  0.43658  0.94867  1.0000
  C   C393      1.0  0.30809  0.54767  0.85366  1.0000
  H   H624      1.0  0.44393  0.42976  0.72876  1.0000
  N   N42       1.0  0.28272  0.60039  0.77612  1.0000
  C   C394      1.0  0.43725  0.64913  0.86167  1.0000
  H   H625      1.0  0.28153  0.46783  0.81313  1.0000
  Fe  Fe83      1.0  0.35232  0.64133  0.87881  1.0000
  C   C395      1.0  0.26678  0.40481  0.95462  1.0000
  H   H626      1.0  0.45140  0.59927  0.88147  1.0000
  Fe  Fe84      1.0  0.38485  0.48384  0.96413  1.0000
  H   H627      1.0  0.47837  0.45715  0.80306  1.0000
  H   H628      1.0  0.47247  0.46718  0.88209  1.0000
  C   C396      1.0  0.27923  0.61238  0.81111  1.0000
  H   H629      1.0  0.42041  0.63209  0.88224  1.0000
  H   H630      1.0  0.28539  0.55579  0.79336  1.0000
  H   H631      1.0  0.33142  0.62180  0.96098  1.0000
  C   C397      1.0  0.26275  0.46413  0.93883  1.0000
  H   H632      1.0  0.49135  0.51380  0.88087  1.0000
  C   C398      1.0  0.47216  0.65362  0.81331  1.0000
  H   H633      1.0  0.29284  0.58066  0.95884  1.0000
  C   C399      1.0  0.48285  0.48972  0.86429  1.0000
  H   H634      1.0  0.26819  0.38148  0.95964  1.0000
  H   H635      1.0  0.27181  0.63640  0.75022  1.0000
  H   H636      1.0  0.48752  0.43559  0.83707  1.0000
  H   H637      1.0  0.49339  0.54224  0.73468  1.0000
  H   H638      1.0  0.49507  0.35286  0.84232  1.0000
  H   H639      1.0  0.42273  0.65807  0.84595  1.0000
  H   H640      1.0  0.32916  0.64803  0.76703  1.0000
  H   H641      1.0  0.25268  0.59830  0.81962  1.0000
  C   C400      1.0  0.49824  0.45970  0.82148  1.0000
  Fe  Fe85      1.0  0.37118  0.56672  0.64529  1.0000
  S   S169      1.0  0.34123  0.68600  0.99813  1.0000
  S   S170      1.0  0.47663  0.96006  0.24851  1.0000
  H   H642      1.0  0.48693  0.83070  0.23077  1.0000
  H   H643      1.0  0.33345  0.99687  0.25987  1.0000
  H   H644      1.0  0.28608  0.76857  0.30312  1.0000
  S   S171      1.0  0.36909  0.71198  0.22631  1.0000
  S   S172      1.0  0.43770  0.70923  0.23851  1.0000
  Fe  Fe86      1.0  0.41080  0.73325  0.26675  1.0000
  C   C401      1.0  0.49396  0.81175  0.21953  1.0000
  H   H645      1.0  0.47210  0.78507  0.22298  1.0000
  H   H646      1.0  0.40249  0.68355  0.01596  1.0000
  C   C402      1.0  0.35016  0.78511  0.24938  1.0000
  Fe  Fe87      1.0  0.45390  0.98036  0.28848  1.0000
  S   S173      1.0  0.43126  0.79230  0.27981  1.0000
  N   N43       1.0  0.33103  0.77313  0.28175  1.0000
  C   C403      1.0  0.38910  0.68398  0.10347  1.0000
  H   H647      1.0  0.30541  0.71876  0.26528  1.0000
  H   H648      1.0  0.43218  0.94198  0.09498  1.0000
  H   H649      1.0  0.45752  0.82184  0.03480  1.0000
  C   C404      1.0  0.46443  0.76526  0.02280  1.0000
  H   H650      1.0  0.40805  0.73862  0.98323  1.0000
  C   C405      1.0  0.41826  0.76587  0.99361  1.0000
  H   H651      1.0  0.25623  0.96409  0.06609  1.0000
  H   H652      1.0  0.33478  0.76949  0.22649  1.0000
  Fe  Fe88      1.0  0.39402  0.68499  0.20052  1.0000
  H   H653      1.0  0.42748  0.68233  0.07282  1.0000
  H   H654      1.0  0.44581  0.86410  0.28193  1.0000
  C   C406      1.0  0.39035  0.68412  0.03970  1.0000
  H   H655      1.0  0.45955  0.97439  0.06516  1.0000
  C   C407      1.0  0.46803  0.82051  0.00928  1.0000
  H   H656      1.0  0.45666  0.73810  0.01355  1.0000
  H   H657      1.0  0.49732  0.78234  0.27888  1.0000
  S   S174      1.0  0.40388  0.97590  0.02094  1.0000
  C   C408      1.0  0.30067  0.77646  0.27895  1.0000
  H   H658      1.0  0.45934  0.98633  0.10967  1.0000
  C   C409      1.0  0.48006  0.92745  0.07720  1.0000
  H   H659      1.0  0.45240  0.76338  0.04828  1.0000
  H   H660      1.0  0.32472  0.89966  0.29745  1.0000
  H   H661      1.0  0.28360  0.75942  0.25762  1.0000
  S   S175      1.0  0.38324  0.68659  0.30087  1.0000
  C   C410      1.0  0.50013  0.95532  0.98097  1.0000
  N   N44       1.0  0.45519  0.78381  0.99736  1.0000
  C   C411      1.0  0.40447  0.68340  0.07207  1.0000
  H   H662      1.0  0.49199  0.77878  0.02747  1.0000
  C   C412      1.0  0.32121  0.73608  0.28714  1.0000
  H   H663      1.0  0.49759  0.81624  0.19123  1.0000
  C   C413      1.0  0.36050  0.68528  0.03820  1.0000
  H   H664      1.0  0.36011  0.82305  0.30836  1.0000
  C   C414      1.0  0.35933  0.68529  0.10194  1.0000
  H   H665      1.0  0.48048  0.93395  0.04943  1.0000
  H   H666      1.0  0.40596  0.76415  0.01889  1.0000
  H   H667      1.0  0.36055  0.97947  0.26905  1.0000
  C   C415      1.0  0.45767  0.86073  0.30463  1.0000
  H   H668      1.0  0.37280  0.78224  0.25013  1.0000
  C   C416      1.0  0.34517  0.68588  0.06955  1.0000
  C   C417      1.0  0.45765  0.96516  0.09215  1.0000
  H   H669      1.0  0.35884  0.81327  0.24500  1.0000
  C   C418      1.0  0.35120  0.99677  0.27944  1.0000
  N   N45       1.0  0.48434  0.95680  0.10006  1.0000
  H   H670      1.0  0.34710  0.68570  0.12571  1.0000
  S   S176      1.0  0.39645  0.94574  0.29640  1.0000
  H   H671      1.0  0.45747  0.92310  0.14206  1.0000
  H   H672      1.0  0.32208  0.68678  0.06884  1.0000
  H   H673      1.0  0.45566  0.90325  0.08156  1.0000
  H   H674      1.0  0.34358  0.73275  0.28972  1.0000
  H   H675      1.0  0.30715  0.80398  0.27419  1.0000
  S   S177      1.0  0.40804  0.68274  0.14357  1.0000
  C   C419      1.0  0.48208  0.94666  0.13668  1.0000
  C   C420      1.0  0.35205  0.79486  0.31145  1.0000
  H   H676      1.0  0.49589  0.83501  0.01195  1.0000
  H   H677      1.0  0.50054  0.92133  0.08142  1.0000
  H   H678      1.0  0.46163  0.83515  0.99036  1.0000
  H   H679      1.0  0.48473  0.96809  0.15458  1.0000
  S   S178      1.0  0.49205  0.98778  0.99878  1.0000
  H   H680      1.0  0.33665  0.98430  0.30313  1.0000
  C   C421      1.0  0.26763  0.99361  0.30652  1.0000
  H   H681      1.0  0.26502  0.92858  0.06658  1.0000
  C   C422      1.0  0.45433  0.82768  0.31071  1.0000
  H   H682      1.0  0.46998  0.67137  0.17016  1.0000
  H   H683      1.0  0.30663  0.72599  0.31123  1.0000
  H   H684      1.0  0.40932  0.85618  0.42945  1.0000
  H   H685      1.0  0.39076  0.73850  0.54998  1.0000
  C   C423      1.0  0.25826  0.75939  0.36738  1.0000
  H   H686      1.0  0.42196  0.92105  0.36264  1.0000
  C   C424      1.0  0.48967  0.85362  0.36261  1.0000
  H   H687      1.0  0.27293  0.97278  0.39804  1.0000
  C   C425      1.0  0.41097  0.74207  0.61631  1.0000
  H   H688      1.0  0.33544  0.95665  0.62830  1.0000
  Fe  Fe89      1.0  0.30823  0.68443  0.39461  1.0000
  C   C426      1.0  0.47005  0.82424  0.34031  1.0000
  H   H689      1.0  0.37515  0.89539  0.40419  1.0000
  H   H690      1.0  0.44470  0.87501  0.40142  1.0000
  C   C427      1.0  0.45731  0.71504  0.36488  1.0000
  H   H691      1.0  0.47536  0.92797  0.43821  1.0000
  H   H692      1.0  0.28120  0.88557  0.34217  1.0000
  C   C428      1.0  0.47281  0.74624  0.38480  1.0000
  H   H693      1.0  0.45925  0.75008  0.40568  1.0000
  H   H694      1.0  0.44474  0.95902  0.39079  1.0000
  N   N46       1.0  0.42624  0.90961  0.41590  1.0000
  C   C429      1.0  0.36629  0.93663  0.32982  1.0000
  H   H695      1.0  0.42515  0.69133  0.59934  1.0000
  H   H696      1.0  0.43826  0.75255  0.61192  1.0000
  C   C430      1.0  0.26295  0.73024  0.36275  1.0000
  S   S179      1.0  0.41881  0.67808  0.37716  1.0000
  C   C431      1.0  0.37513  0.95297  0.36271  1.0000
  C   C432      1.0  0.35033  0.94467  0.38817  1.0000
  C   C433      1.0  0.31618  0.92014  0.38127  1.0000
  C   C434      1.0  0.30727  0.90428  0.34818  1.0000
  C   C435      1.0  0.39687  0.71810  0.55782  1.0000
  C   C436      1.0  0.35416  0.69711  0.60150  1.0000
  H   H697      1.0  0.35764  0.95745  0.41349  1.0000
  H   H698      1.0  0.45558  0.95223  0.45206  1.0000
  H   H699      1.0  0.46770  0.79910  0.34562  1.0000
  H   H700      1.0  0.39320  0.67564  0.63178  1.0000
  S   S180      1.0  0.29521  0.72828  0.38671  1.0000
  C   C437      1.0  0.47565  0.71048  0.33824  1.0000
  C   C438      1.0  0.42066  0.87415  0.40745  1.0000
  C   C439      1.0  0.43961  0.93184  0.38529  1.0000
  H   H701      1.0  0.31428  0.97770  0.46207  1.0000
  C   C440      1.0  0.29880  0.99070  0.46290  1.0000
  H   H702      1.0  0.47938  0.91507  0.32157  1.0000
  H   H703      1.0  0.46413  0.68652  0.32297  1.0000
  H   H704      1.0  0.39744  0.93344  0.43215  1.0000
  H   H705      1.0  0.27211  0.96934  0.46226  1.0000
  Fe  Fe90      1.0  0.36814  0.67079  0.39425  1.0000
  N   N47       1.0  0.39009  0.71001  0.59492  1.0000
  H   H706      1.0  0.30880  0.87889  0.62424  1.0000
  C   C441      1.0  0.47693  0.88996  0.32717  1.0000
  H   H707      1.0  0.34801  0.69036  0.62917  1.0000
  C   C442      1.0  0.33213  0.91238  0.32279  1.0000
  H   H708      1.0  0.31558  0.98200  0.39838  1.0000
  H   H709      1.0  0.42372  0.72782  0.55182  1.0000
  C   C443      1.0  0.45069  0.92539  0.44503  1.0000
  H   H710      1.0  0.40108  0.97212  0.36853  1.0000
  S   S181      1.0  0.28626  0.91092  0.41500  1.0000
  H   H711      1.0  0.46371  0.93401  0.37708  1.0000
  H   H712      1.0  0.40377  0.86221  0.38439  1.0000
  C   C444      1.0  0.39409  0.90711  0.42571  1.0000
  H   H713      1.0  0.34701  0.71704  0.59492  1.0000
  H   H714      1.0  0.38317  0.89051  0.44874  1.0000
  H   H715      1.0  0.44172  0.90925  0.46858  1.0000
  S   S182      1.0  0.35341  0.70155  0.43028  1.0000
  S   S183      1.0  0.49409  0.99136  0.32754  1.0000
  H   H716      1.0  0.40550  0.76335  0.61028  1.0000
  H   H717      1.0  0.38146  0.69447  0.54094  1.0000
  C   C445      1.0  0.39829  0.68267  0.60403  1.0000
  C   C446      1.0  0.29173  0.88800  0.63430  1.0000
  H   H718      1.0  0.40673  0.73690  0.64450  1.0000
  H   H719      1.0  0.49519  0.70624  0.42513  1.0000
  H   H720      1.0  0.27402  0.78007  0.38582  1.0000
  C   C447      1.0  0.49401  0.88705  0.35592  1.0000
  H   H721      1.0  0.28434  0.89882  0.61228  1.0000
  H   H722      1.0  0.33777  0.67306  0.58550  1.0000
  H   H723      1.0  0.26859  0.86444  0.64299  1.0000
  H   H724      1.0  0.33820  0.78622  0.33626  1.0000
  C   C448      1.0  0.29963  0.99421  0.40056  1.0000
  C   C449      1.0  0.50135  0.68568  0.41718  1.0000
  H   H725      1.0  0.49518  0.68014  0.38899  1.0000
  H   H726      1.0  0.35763  0.93510  0.64294  1.0000
  H   H727      1.0  0.37513  0.79282  0.31427  1.0000
  H   H728      1.0  0.32406  0.97054  0.90137  1.0000
  C   C450      1.0  0.29146  0.90567  0.86853  1.0000
  Fe  Fe91      1.0  0.35504  0.68711  0.94078  1.0000
  H   H729      1.0  0.29065  0.93828  0.81164  1.0000
  H   H730      1.0  0.31053  0.99089  0.96084  1.0000
  C   C451      1.0  0.27692  0.75005  0.80563  1.0000
  H   H731      1.0  0.30043  0.75101  0.88942  1.0000
  C   C452      1.0  0.39160  0.94348  0.76082  1.0000
  H   H732      1.0  0.25796  0.87825  0.96095  1.0000
  H   H733      1.0  0.33640  0.99447  0.86219  1.0000
  S   S184      1.0  0.31148  0.71762  0.82789  1.0000
  S   S185      1.0  0.46447  0.75952  0.88001  1.0000
  S   S186      1.0  0.37570  0.73577  0.90863  1.0000
  C   C453      1.0  0.46565  0.74950  0.69087  1.0000
  C   C454      1.0  0.31524  0.94069  0.81812  1.0000
  H   H734      1.0  0.41318  0.78503  0.75997  1.0000
  S   S187      1.0  0.47703  0.86553  0.65641  1.0000
  C   C455      1.0  0.43262  0.93112  0.73380  1.0000
  H   H735      1.0  0.27821  0.74001  0.78020  1.0000
  Fe  Fe92      1.0  0.40950  0.71763  0.88514  1.0000
  H   H736      1.0  0.41024  0.77970  0.97545  1.0000
  H   H737      1.0  0.29394  0.90313  0.89682  1.0000
  S   S188      1.0  0.37321  0.68648  0.84235  1.0000
  C   C456      1.0  0.42590  0.68775  0.72742  1.0000
  C   C457      1.0  0.43623  0.68577  0.69388  1.0000
  H   H738      1.0  0.45233  0.78286  0.80417  1.0000
  C   C458      1.0  0.46975  0.78336  0.96342  1.0000
  C   C459      1.0  0.45517  0.75167  0.72435  1.0000
  C   C460      1.0  0.43537  0.72074  0.74267  1.0000
  C   C461      1.0  0.48741  0.90558  0.94242  1.0000
  H   H739      1.0  0.46279  0.77705  0.73621  1.0000
  H   H740      1.0  0.42739  0.72232  0.76866  1.0000
  N   N48       1.0  0.30771  0.91420  0.66291  1.0000
  Fe  Fe93      1.0  0.33791  0.70157  0.86771  1.0000
  C   C462      1.0  0.39668  0.96833  0.73598  1.0000
  H   H741      1.0  0.29083  0.87512  0.70204  1.0000
  C   C463      1.0  0.49104  0.74195  0.82336  1.0000
  C   C464      1.0  0.40587  0.79751  0.82702  1.0000
  H   H742      1.0  0.45831  0.67270  0.87481  1.0000
  C   C465      1.0  0.49731  0.76226  0.85372  1.0000
  H   H743      1.0  0.42777  0.86465  0.80955  1.0000
  H   H744      1.0  0.48298  0.82660  0.79231  1.0000
  Fe  Fe94      1.0  0.49310  0.90275  0.70237  1.0000
  H   H745      1.0  0.38501  0.80330  0.82418  1.0000
  C   C466      1.0  0.28949  0.75618  0.86704  1.0000
  H   H746      1.0  0.45591  0.86322  0.84121  1.0000
  H   H747      1.0  0.31637  0.91898  0.80410  1.0000
  H   H748      1.0  0.39525  0.76908  0.82057  1.0000
  C   C467      1.0  0.31447  0.89779  0.69259  1.0000
  S   S189      1.0  0.37222  0.98945  0.73991  1.0000
  C   C468      1.0  0.25760  0.90263  0.96029  1.0000
  H   H749      1.0  0.45583  0.96080  0.68820  1.0000
  H   H750      1.0  0.33196  0.88814  0.68553  1.0000
  H   H751      1.0  0.26649  0.90341  0.86397  1.0000
  H   H752      1.0  0.46313  0.79693  0.94348  1.0000
  C   C469      1.0  0.48037  0.68757  0.95325  1.0000
  H   H753      1.0  0.41369  0.80156  0.85486  1.0000
  H   H754      1.0  0.45795  0.68830  0.94647  1.0000
  C   C470      1.0  0.43784  0.95584  0.70841  1.0000
  C   C471      1.0  0.31801  0.96888  0.87330  1.0000
  H   H755      1.0  0.46894  0.87454  0.79716  1.0000
  C   C472      1.0  0.28500  0.92720  0.67394  1.0000
  H   H756      1.0  0.49758  0.79690  0.96467  1.0000
  H   H757      1.0  0.46485  0.71478  0.65022  1.0000
  H   H758      1.0  0.40273  0.81932  0.76320  1.0000
  C   C473      1.0  0.44732  0.85711  0.81363  1.0000
  C   C474      1.0  0.27312  0.77595  0.87089  1.0000
  H   H759      1.0  0.35225  0.96425  0.67159  1.0000
  N   N49       1.0  0.43440  0.81968  0.80453  1.0000
  H   H760      1.0  0.46547  0.72327  0.81566  1.0000
  C   C475      1.0  0.45626  0.71653  0.67584  1.0000
  C   C476      1.0  0.29140  0.74299  0.83435  1.0000
  H   H761      1.0  0.29266  0.96616  0.87104  1.0000
  H   H762      1.0  0.45823  0.93194  0.94509  1.0000
  C   C477      1.0  0.26057  0.76986  0.80948  1.0000
  C   C478      1.0  0.40928  0.92518  0.75976  1.0000
  H   H763      1.0  0.44386  0.82957  0.75018  1.0000
  C   C479      1.0  0.46143  0.81118  0.80959  1.0000
  H   H764      1.0  0.27288  0.97412  0.78849  1.0000
  H   H765      1.0  0.32614  0.91680  0.71476  1.0000
  H   H766      1.0  0.37395  0.93841  0.78135  1.0000
  H   H767      1.0  0.35332  0.91949  0.85097  1.0000
  S   S190      1.0  0.49140  0.78684  0.66668  1.0000
  C   C480      1.0  0.28808  0.93469  0.96153  1.0000
  N   N50       1.0  0.31911  0.93919  0.85594  1.0000
  H   H768      1.0  0.35529  0.94027  0.89207  1.0000
  C   C481      1.0  0.42303  0.81298  0.76786  1.0000
  H   H769      1.0  0.40490  0.90630  0.77948  1.0000
  H   H770      1.0  0.49448  0.67670  0.82545  1.0000
  S   S191      1.0  0.45370  0.90632  0.73553  1.0000
  C   C482      1.0  0.25643  0.96518  0.95640  1.0000
  C   C483      1.0  0.41985  0.97444  0.70949  1.0000
  H   H771      1.0  0.27920  0.93979  0.65232  1.0000
  C   C484      1.0  0.35167  0.94150  0.86366  1.0000
  H   H772      1.0  0.27171  0.78589  0.89635  1.0000
  H   H773      1.0  0.47177  0.88709  0.92227  1.0000
  S   S192      1.0  0.32646  0.93422  0.96163  1.0000
  H   H774      1.0  0.37303  0.96655  0.85457  1.0000
  H   H775      1.0  0.29102  0.88267  0.85543  1.0000
  C   C485      1.0  0.47971  0.93098  0.95525  1.0000
  C   C486      1.0  0.25851  0.78288  0.84220  1.0000
  H   H776      1.0  0.33518  0.96591  0.80760  1.0000
  H   H777      1.0  0.47124  0.81693  0.83681  1.0000
  H   H778      1.0  0.46081  0.75608  0.95370  1.0000
  H   H779      1.0  0.25615  0.98952  0.95425  1.0000
  C   C487      1.0  0.27436  0.99083  0.81015  1.0000
  H   H780      1.0  0.29623  0.94680  0.69574  1.0000
  C   C488      1.0  0.28731  0.96601  0.96020  1.0000
  S   S193      1.0  0.39158  0.67172  0.92036  1.0000
  H   H781      1.0  0.26065  0.90554  0.68306  1.0000
  Fe  Fe95      1.0  0.37764  0.98167  0.97440  1.0000
  C   C489      1.0  0.33961  0.94380  0.65083  1.0000
  H   H782      1.0  0.42414  0.99356  0.69007  1.0000
  H   H783      1.0  0.66261  0.03979  0.27169  1.0000
  S   S194      1.0  0.54910  0.02846  0.26526  1.0000
  Fe  Fe96      1.0  0.50517  0.01587  0.23164  1.0000
  Fe  Fe97      1.0  0.61065  0.28137  0.24023  1.0000
  S   S195      1.0  0.59623  0.31061  0.27803  1.0000
  S   S196      1.0  0.58715  0.26492  0.18702  1.0000
  Fe  Fe98      1.0  0.58119  0.30853  0.98432  1.0000
  S   S197      1.0  0.66582  0.31241  0.25160  1.0000
  S   S198      1.0  0.60171  0.23879  0.27653  1.0000
  H   H784      1.0  0.65569  0.14862  0.25076  1.0000
  H   H785      1.0  0.70246  0.18661  0.29227  1.0000
  C   C490      1.0  0.59355  0.29971  0.16065  1.0000
  C   C491      1.0  0.58295  0.29259  0.12591  1.0000
  H   H786      1.0  0.71502  0.02706  0.30482  1.0000
  C   C492      1.0  0.75157  0.12755  0.28075  1.0000
  H   H787      1.0  0.63713  0.16484  0.28123  1.0000
  H   H788      1.0  0.54838  0.30458  0.22050  1.0000
  H   H789      1.0  0.57150  0.26603  0.11547  1.0000
  S   S199      1.0  0.52073  0.03858  0.17892  1.0000
  C   C493      1.0  0.57851  0.14126  0.24646  1.0000
  C   C494      1.0  0.72093  0.12738  0.27639  1.0000
  H   H790      1.0  0.71790  0.14079  0.25472  1.0000
  C   C495      1.0  0.62907  0.18247  0.21760  1.0000
  H   H791      1.0  0.53768  0.32553  0.27668  1.0000
  H   H792      1.0  0.56335  0.11425  0.25641  1.0000
  H   H793      1.0  0.55528  0.18214  0.99865  1.0000
  H   H794      1.0  0.63396  0.20315  0.23762  1.0000
  C   C496      1.0  0.69463  0.11108  0.30064  1.0000
  S   S200      1.0  0.68494  0.24072  0.28988  1.0000
  C   C497      1.0  0.63129  0.14457  0.26044  1.0000
  H   H795      1.0  0.59047  0.09330  0.21574  1.0000
  H   H796      1.0  0.53134  0.22224  0.22578  1.0000
  H   H797      1.0  0.56305  0.14465  0.22644  1.0000
  H   H798      1.0  0.58267  0.15983  0.26846  1.0000
  C   C498      1.0  0.51304  0.17009  0.17736  1.0000
  H   H799      1.0  0.58798  0.12085  0.18381  1.0000
  H   H800      1.0  0.61810  0.11851  0.27279  1.0000
  H   H801      1.0  0.58000  0.31418  0.07730  1.0000
  C   C499      1.0  0.71011  0.02182  0.27643  1.0000
  C   C500      1.0  0.60401  0.12021  0.20512  1.0000
  H   H802      1.0  0.61470  0.18549  0.19601  1.0000
  H   H803      1.0  0.62772  0.12397  0.19365  1.0000
  C   C501      1.0  0.65455  0.01375  0.28293  1.0000
  C   C502      1.0  0.58779  0.31987  0.10425  1.0000
  H   H804      1.0  0.51372  0.14995  0.19377  1.0000
  N   N51       1.0  0.61072  0.14712  0.23237  1.0000
  H   H805      1.0  0.65399  0.18829  0.20768  1.0000
  Fe  Fe99      1.0  0.52490  0.04657  0.30480  1.0000
  Fe  Fe100     1.0  0.65649  0.27189  0.29179  1.0000
  H   H806      1.0  0.67641  0.01749  0.21787  1.0000
  H   H807      1.0  0.71945  0.04765  0.26410  1.0000
  H   H808      1.0  0.52342  0.06963  0.11410  1.0000
  H   H809      1.0  0.52959  0.30847  0.18134  1.0000
  H   H810      1.0  0.51393  0.09973  0.30520  1.0000
  H   H811      1.0  0.72558  0.01045  0.26703  1.0000
  S   S201      1.0  0.55009  0.32827  0.01090  1.0000
  H   H812      1.0  0.51707  0.23229  0.16673  1.0000
  H   H813      1.0  0.53938  0.19178  0.17443  1.0000
  S   S202      1.0  0.57253  0.25283  0.98675  1.0000
  H   H814      1.0  0.67171  0.11200  0.29750  1.0000
  C   C503      1.0  0.52576  0.30436  0.20975  1.0000
  C   C504      1.0  0.51565  0.32525  0.26432  1.0000
  H   H815      1.0  0.50721  0.18044  0.24499  1.0000
  C   C505      1.0  0.50565  0.19926  0.22741  1.0000
  H   H816      1.0  0.52177  0.01047  0.11113  1.0000
  C   C506      1.0  0.53596  0.18122  0.98183  1.0000
  H   H817      1.0  0.50351  0.15794  0.15119  1.0000
  H   H818      1.0  0.65791  0.01783  0.31157  1.0000
  H   H819      1.0  0.50394  0.27774  0.21335  1.0000
  N   N52       1.0  0.52044  0.33158  0.22672  1.0000
  H   H820      1.0  0.67333  0.19535  0.37750  1.0000
  H   H821      1.0  0.68436  0.05025  0.48278  1.0000
  C   C507      1.0  0.51401  0.30636  0.41335  1.0000
  S   S203      1.0  0.64109  0.32583  0.43393  1.0000
  H   H822      1.0  0.63672  0.13608  0.35216  1.0000
  Fe  Fe101     1.0  0.67619  0.30958  0.40983  1.0000
  C   C508      1.0  0.74265  0.03147  0.45104  1.0000
  S   S204      1.0  0.66435  0.25318  0.39486  1.0000
  H   H823      1.0  0.72019  0.05272  0.50475  1.0000
  S   S205      1.0  0.56657  0.02751  0.34681  1.0000
  Fe  Fe102     1.0  0.57335  0.04094  0.44440  1.0000
  S   S206      1.0  0.59381  0.08624  0.40908  1.0000
  S   S207      1.0  0.58144  0.05146  0.50162  1.0000
  Fe  Fe103     1.0  0.54403  0.05527  0.37955  1.0000
  H   H824      1.0  0.59900  0.22352  0.35654  1.0000
  Fe  Fe104     1.0  0.61348  0.05599  0.37858  1.0000
  S   S208      1.0  0.66765  0.07363  0.36199  1.0000
  C   C509      1.0  0.55815  0.19408  0.42255  1.0000
  S   S209      1.0  0.56925  0.10032  0.32572  1.0000
  C   C510      1.0  0.74135  0.20164  0.33117  1.0000
  H   H825      1.0  0.56187  0.30676  0.45397  1.0000
  S   S210      1.0  0.52337  0.01109  0.41771  1.0000
  C   C511      1.0  0.72848  0.09338  0.33252  1.0000
  C   C512      1.0  0.72455  0.21035  0.44070  1.0000
  C   C513      1.0  0.56889  0.01057  0.55850  1.0000
  H   H826      1.0  0.58232  0.03487  0.57344  1.0000
  H   H827      1.0  0.60230  0.20838  0.47449  1.0000
  C   C514      1.0  0.69860  0.09439  0.32933  1.0000
  C   C515      1.0  0.73373  0.26040  0.34295  1.0000
  C   C516      1.0  0.57646  0.15208  0.43152  1.0000
  H   H828      1.0  0.56405  0.13764  0.40687  1.0000
  H   H829      1.0  0.57675  0.16947  0.49852  1.0000
  S   S211      1.0  0.59481  0.01201  0.41648  1.0000
  H   H830      1.0  0.65870  0.16310  0.43619  1.0000
  H   H831      1.0  0.74269  0.01151  0.43281  1.0000
  H   H832      1.0  0.51116  0.26738  0.31746  1.0000
  N   N53       1.0  0.55853  0.16890  0.44701  1.0000
  C   C517      1.0  0.52370  0.14162  0.45434  1.0000
  C   C518      1.0  0.72761  0.16421  0.47018  1.0000
  H   H833      1.0  0.72439  0.22351  0.46555  1.0000
  H   H834      1.0  0.73470  0.16677  0.40031  1.0000
  H   H835      1.0  0.56087  0.16341  0.33180  1.0000
  H   H836      1.0  0.73121  0.07948  0.35367  1.0000
  H   H837      1.0  0.75115  0.22202  0.43259  1.0000
  C   C519      1.0  0.71361  0.23553  0.31738  1.0000
  H   H838      1.0  0.51049  0.27961  0.41617  1.0000
  Fe  Fe105     1.0  0.59068  0.26994  0.31565  1.0000
  H   H839      1.0  0.71145  0.21747  0.42096  1.0000
  H   H840      1.0  0.51037  0.12706  0.43011  1.0000
  H   H841      1.0  0.71243  0.05531  0.40901  1.0000
  C   C520      1.0  0.50708  0.23198  0.35717  1.0000
  H   H842      1.0  0.66069  0.12848  0.45785  1.0000
  C   C521      1.0  0.70975  0.05354  0.47890  1.0000
  H   H843      1.0  0.54400  0.20659  0.43278  1.0000
  S   S212      1.0  0.64474  0.30099  0.33340  1.0000
  C   C522      1.0  0.59560  0.14476  0.34092  1.0000
  C   C523      1.0  0.58543  0.17011  0.34166  1.0000
  C   C524      1.0  0.60696  0.20433  0.35588  1.0000
  C   C525      1.0  0.63834  0.21332  0.37039  1.0000
  C   C526      1.0  0.64868  0.18834  0.36817  1.0000
  C   C527      1.0  0.62785  0.15469  0.35346  1.0000
  N   N54       1.0  0.70854  0.02644  0.45471  1.0000
  N   N55       1.0  0.70863  0.17192  0.44417  1.0000
  H   H844      1.0  0.72623  0.08032  0.46899  1.0000
  C   C528      1.0  0.57589  0.18769  0.47949  1.0000
  C   C529      1.0  0.70891  0.15547  0.41050  1.0000
  C   C530      1.0  0.69573  0.02945  0.42052  1.0000
  H   H845      1.0  0.69410  0.00917  0.40166  1.0000
  C   C531      1.0  0.67352  0.15751  0.45532  1.0000
  H   H846      1.0  0.58403  0.21564  0.41720  1.0000
  H   H847      1.0  0.67221  0.16900  0.48082  1.0000
  H   H848      1.0  0.57701  0.13274  0.44922  1.0000
  H   H849      1.0  0.55774  0.32595  0.36169  1.0000
  H   H850      1.0  0.60281  0.17174  0.42541  1.0000
  S   S213      1.0  0.54861  0.23957  0.35414  1.0000
  H   H851      1.0  0.69862  0.12678  0.41273  1.0000
  H   H852      1.0  0.56690  0.30087  0.39140  1.0000
  H   H853      1.0  0.69365  0.15905  0.39035  1.0000
  S   S214      1.0  0.71365  0.33207  0.45460  1.0000
  C   C532      1.0  0.71767  0.20611  0.31182  1.0000
  H   H854      1.0  0.54631  0.18104  0.39718  1.0000
  H   H855      1.0  0.71641  0.13548  0.47359  1.0000
  H   H856      1.0  0.74427  0.17908  0.32638  1.0000
  C   C533      1.0  0.56477  0.01135  0.52259  1.0000
  H   H857      1.0  0.56313  0.20084  0.49187  1.0000
  H   H858      1.0  0.73087  0.28307  0.34787  1.0000
  H   H859      1.0  0.67032  0.02653  0.42227  1.0000
  H   H860      1.0  0.50913  0.15314  0.46586  1.0000
  H   H861      1.0  0.52305  0.12189  0.47240  1.0000
  C   C534      1.0  0.56815  0.32646  0.38790  1.0000
  H   H862      1.0  0.72812  0.17625  0.49597  1.0000
  H   H863      1.0  0.50275  0.30657  0.38785  1.0000
  H   H864      1.0  0.63021  0.33164  0.59928  1.0000
  S   S215      1.0  0.50440  0.07510  0.37800  1.0000
  Fe  Fe106     1.0  0.63845  0.30728  0.78308  1.0000
  H   H865      1.0  0.57005  0.20342  0.91427  1.0000
  H   H866      1.0  0.73776  0.08491  0.73616  1.0000
  H   H867      1.0  0.58550  0.26559  0.90953  1.0000
  C   C535      1.0  0.53278  0.27601  0.87070  1.0000
  C   C536      1.0  0.51261  0.21114  0.95037  1.0000
  C   C537      1.0  0.61248  0.27310  0.90807  1.0000
  H   H868      1.0  0.60578  0.21362  0.84626  1.0000
  C   C538      1.0  0.59745  0.21270  0.91524  1.0000
  H   H869      1.0  0.62552  0.29681  0.89204  1.0000
  C   C539      1.0  0.60329  0.23557  0.85782  1.0000
  Fe  Fe107     1.0  0.70576  0.31423  0.80611  1.0000
  H   H870      1.0  0.50648  0.29211  0.71957  1.0000
  N   N56       1.0  0.61641  0.24393  0.89387  1.0000
  C   C540      1.0  0.51616  0.24248  0.80586  1.0000
  S   S216      1.0  0.58131  0.27242  0.78339  1.0000
  S   S217      1.0  0.66961  0.28445  0.76222  1.0000
  H   H871      1.0  0.74523  0.12888  0.73175  1.0000
  C   C541      1.0  0.50991  0.14859  0.96933  1.0000
  H   H872      1.0  0.53913  0.28885  0.89596  1.0000
  H   H873      1.0  0.66285  0.25995  0.92136  1.0000
  C   C542      1.0  0.65238  0.25439  0.89444  1.0000
  C   C543      1.0  0.72258  0.01673  0.69553  1.0000
  H   H874      1.0  0.62316  0.28083  0.93486  1.0000
  H   H875      1.0  0.60550  0.21858  0.94302  1.0000
  H   H876      1.0  0.65666  0.23361  0.88282  1.0000
  H   H877      1.0  0.51347  0.23514  0.94288  1.0000
  C   C544      1.0  0.55832  0.28284  0.84676  1.0000
  C   C545      1.0  0.55015  0.26590  0.81420  1.0000
  H   H878      1.0  0.58424  0.30098  0.85357  1.0000
  H   H879      1.0  0.60090  0.19054  0.90626  1.0000
  H   H880      1.0  0.74820  0.09671  0.79990  1.0000
  H   H881      1.0  0.57625  0.22785  0.85645  1.0000
  H   H882      1.0  0.66752  0.27854  0.87948  1.0000
  C   C546      1.0  0.71679  0.00336  0.72896  1.0000
  S   S218      1.0  0.72995  0.29605  0.84644  1.0000
  H   H883      1.0  0.61699  0.25848  0.84086  1.0000
  H   H884      1.0  0.72392  0.00896  0.82315  1.0000
  H   H885      1.0  0.50952  0.22920  0.78076  1.0000
  H   H886      1.0  0.74562  0.26688  0.78470  1.0000
  H   H887      1.0  0.73755  0.01129  0.74696  1.0000
  C   C547      1.0  0.53750  0.21266  0.97241  1.0000
  C   C548      1.0  0.69491  0.00642  0.67299  1.0000
  C   C549      1.0  0.74793  0.01014  0.82552  1.0000
  H   H888      1.0  0.50943  0.12475  0.97650  1.0000
  H   H889      1.0  0.69898  0.01690  0.64720  1.0000
  H   H890      1.0  0.65308  0.32987  0.65715  1.0000
  Fe  Fe108     1.0  0.52559  0.47666  0.29470  1.0000
  S   S219      1.0  0.54909  0.43991  0.29420  1.0000
  H   H891      1.0  0.67514  0.61373  0.30563  1.0000
  H   H892      1.0  0.69549  0.41321  0.06471  1.0000
  H   H893      1.0  0.68729  0.48263  0.02058  1.0000
  S   S220      1.0  0.55795  0.52983  0.27241  1.0000
  H   H894      1.0  0.69551  0.41824  0.01864  1.0000
  S   S221      1.0  0.61000  0.40822  0.99195  1.0000
  N   N57       1.0  0.71796  0.46668  0.04828  1.0000
  S   S222      1.0  0.67427  0.40022  0.28766  1.0000
  Fe  Fe109     1.0  0.65168  0.34026  0.29225  1.0000
  H   H895      1.0  0.58891  0.62160  0.18200  1.0000
  H   H896      1.0  0.56256  0.59897  0.25499  1.0000
  S   S223      1.0  0.62960  0.34798  0.01115  1.0000
  H   H897      1.0  0.62905  0.50781  0.20101  1.0000
  H   H898      1.0  0.60447  0.50468  0.29310  1.0000
  C   C550      1.0  0.72189  0.62637  0.28017  1.0000
  H   H899      1.0  0.68764  0.47581  0.08460  1.0000
  H   H900      1.0  0.68604  0.52510  0.22656  1.0000
  H   H901      1.0  0.66688  0.42445  0.04514  1.0000
  C   C551      1.0  0.60279  0.35433  0.11738  1.0000
  H   H902      1.0  0.59849  0.59528  0.20921  1.0000
  H   H903      1.0  0.60446  0.45544  0.25419  1.0000
  H   H904      1.0  0.71912  0.64212  0.26073  1.0000
  C   C552      1.0  0.71343  0.47964  0.08233  1.0000
  H   H905      1.0  0.71670  0.47751  0.99437  1.0000
  H   H906      1.0  0.71691  0.46530  0.10392  1.0000
  C   C553      1.0  0.57116  0.62623  0.24697  1.0000
  H   H907      1.0  0.65480  0.65487  0.25128  1.0000
  H   H908      1.0  0.69119  0.47146  0.27850  1.0000
  C   C554      1.0  0.55007  0.36649  0.22114  1.0000
  S   S224      1.0  0.53260  0.53473  0.18192  1.0000
  N   N58       1.0  0.64100  0.51046  0.25530  1.0000
  C   C555      1.0  0.63203  0.47318  0.25613  1.0000
  C   C556      1.0  0.69677  0.61013  0.30557  1.0000
  C   C557      1.0  0.67756  0.53271  0.25048  1.0000
  C   C558      1.0  0.63171  0.52067  0.28836  1.0000
  H   H909      1.0  0.64032  0.46706  0.28086  1.0000
  C   C559      1.0  0.70431  0.44004  0.30948  1.0000
  C   C560      1.0  0.75160  0.62438  0.28121  1.0000
  S   S225      1.0  0.60944  0.38865  0.09012  1.0000
  N   N59       1.0  0.60569  0.64292  0.23361  1.0000
  H   H910      1.0  0.57335  0.36827  0.23211  1.0000
  H   H911      1.0  0.68496  0.56080  0.24847  1.0000
  H   H912      1.0  0.52896  0.54593  0.10955  1.0000
  H   H913      1.0  0.69188  0.53083  0.27279  1.0000
  H   H914      1.0  0.55435  0.37207  0.19301  1.0000
  H   H915      1.0  0.59503  0.49915  0.22951  1.0000
  H   H916      1.0  0.51189  0.34562  0.27791  1.0000
  H   H917      1.0  0.62947  0.65895  0.28392  1.0000
  H   H918      1.0  0.62885  0.54322  0.22505  1.0000
  C   C561      1.0  0.60642  0.62287  0.20275  1.0000
  Fe  Fe110     1.0  0.59915  0.36991  0.03426  1.0000
  C   C562      1.0  0.71311  0.48637  0.02041  1.0000
  H   H919      1.0  0.61689  0.33985  0.20074  1.0000
  Fe  Fe111     1.0  0.51603  0.51729  0.23586  1.0000
  H   H920      1.0  0.62058  0.61622  0.26963  1.0000
  H   H921      1.0  0.57096  0.38856  0.29168  1.0000
  H   H922      1.0  0.64329  0.46583  0.23437  1.0000
  C   C563      1.0  0.61282  0.36142  0.15237  1.0000
  H   H923      1.0  0.54696  0.38774  0.23367  1.0000
  C   C564      1.0  0.62864  0.64312  0.26066  1.0000
  H   H924      1.0  0.63788  0.54849  0.28878  1.0000
  C   C565      1.0  0.62275  0.51542  0.22636  1.0000
  H   H925      1.0  0.62461  0.38808  0.16257  1.0000
  H   H926      1.0  0.63202  0.63489  0.19170  1.0000
  C   C566      1.0  0.69294  0.42902  0.04401  1.0000
  C   C567      1.0  0.60844  0.33415  0.17396  1.0000
  Fe  Fe112     1.0  0.53356  0.55103  0.30860  1.0000
  C   C568      1.0  0.70687  0.47184  0.29944  1.0000
  H   H927      1.0  0.55301  0.62508  0.22715  1.0000
  H   H928      1.0  0.56966  0.64074  0.27017  1.0000
  H   H929      1.0  0.73282  0.52832  0.30630  1.0000
  H   H930      1.0  0.73131  0.51501  0.02299  1.0000
  H   H931      1.0  0.73170  0.50810  0.08645  1.0000
  C   C569      1.0  0.50445  0.53715  0.12047  1.0000
  H   H932      1.0  0.64484  0.51709  0.31086  1.0000
  C   C570      1.0  0.70044  0.59038  0.33148  1.0000
  C   C571      1.0  0.70791  0.34948  0.57493  1.0000
  C   C572      1.0  0.67531  0.34395  0.57164  1.0000
  S   S226      1.0  0.70750  0.40226  0.45027  1.0000
  Fe  Fe113     1.0  0.67031  0.37700  0.40589  1.0000
  S   S227      1.0  0.64900  0.41348  0.39170  1.0000
  Fe  Fe114     1.0  0.67998  0.35079  0.47686  1.0000
  H   H933      1.0  0.66701  0.46123  0.44654  1.0000
  H   H934      1.0  0.58278  0.38348  0.61438  1.0000
  Fe  Fe115     1.0  0.55051  0.48573  0.39490  1.0000
  H   H935      1.0  0.74381  0.53535  0.48679  1.0000
  H   H936      1.0  0.60622  0.36700  0.59148  1.0000
  H   H937      1.0  0.62124  0.45719  0.58413  1.0000
  H   H938      1.0  0.66594  0.40598  0.57921  1.0000
  C   C573      1.0  0.73288  0.48937  0.43394  1.0000
  H   H939      1.0  0.67601  0.60712  0.48743  1.0000
  N   N60       1.0  0.63473  0.42156  0.60687  1.0000
  C   C574      1.0  0.64489  0.41534  0.64121  1.0000
  S   S228      1.0  0.57771  0.60404  0.33236  1.0000
  S   S229      1.0  0.51860  0.42518  0.39743  1.0000
  H   H940      1.0  0.71767  0.46558  0.41719  1.0000
  H   H941      1.0  0.53525  0.56991  0.46809  1.0000
  H   H942      1.0  0.65307  0.47642  0.61769  1.0000
  C   C575      1.0  0.59378  0.45454  0.35069  1.0000
  C   C576      1.0  0.61620  0.44873  0.37094  1.0000
  C   C577      1.0  0.62227  0.42098  0.36306  1.0000
  H   H943      1.0  0.72686  0.41782  0.34114  1.0000
  H   H944      1.0  0.51274  0.53108  0.53661  1.0000
  H   H945      1.0  0.58964  0.47588  0.35739  1.0000
  H   H946      1.0  0.62837  0.46560  0.39333  1.0000
  C   C578      1.0  0.62964  0.45216  0.60940  1.0000
  C   C579      1.0  0.59865  0.64942  0.34722  1.0000
  H   H947      1.0  0.59517  0.34662  0.38805  1.0000
  H   H948      1.0  0.53819  0.66342  0.38387  1.0000
  S   S230      1.0  0.57142  0.52803  0.35483  1.0000
  Fe  Fe116     1.0  0.57850  0.54204  0.45264  1.0000
  S   S231      1.0  0.59959  0.58723  0.41689  1.0000
  S   S232      1.0  0.58226  0.55171  0.51042  1.0000
  Fe  Fe117     1.0  0.54996  0.55720  0.38697  1.0000
  N   N61       1.0  0.71446  0.50828  0.44108  1.0000
  Fe  Fe118     1.0  0.61855  0.55601  0.38632  1.0000
  S   S233      1.0  0.67091  0.57004  0.36560  1.0000
  S   S234      1.0  0.52894  0.51337  0.42527  1.0000
  S   S235      1.0  0.59959  0.51256  0.42505  1.0000
  C   C580      1.0  0.57049  0.51331  0.53361  1.0000
  C   C581      1.0  0.56084  0.48145  0.51614  1.0000
  C   C582      1.0  0.55180  0.45108  0.53491  1.0000
  C   C583      1.0  0.55184  0.45223  0.57124  1.0000
  C   C584      1.0  0.56101  0.48399  0.58874  1.0000
  C   C585      1.0  0.57045  0.51450  0.56995  1.0000
  H   H949      1.0  0.56027  0.48007  0.48812  1.0000
  C   C586      1.0  0.72880  0.58619  0.33049  1.0000
  H   H950      1.0  0.56088  0.48513  0.61670  1.0000
  H   H951      1.0  0.57773  0.53903  0.58362  1.0000
  C   C587      1.0  0.70463  0.51701  0.40791  1.0000
  C   C588      1.0  0.68407  0.48596  0.46112  1.0000
  Fe  Fe119     1.0  0.73885  0.38218  0.42448  1.0000
  H   H952      1.0  0.68547  0.45215  0.58917  1.0000
  C   C589      1.0  0.65572  0.33685  0.60158  1.0000
  C   C590      1.0  0.52401  0.57894  0.48844  1.0000
  H   H953      1.0  0.73139  0.56981  0.34910  1.0000
  H   H954      1.0  0.72705  0.53494  0.39301  1.0000
  C   C591      1.0  0.55344  0.36850  0.41084  1.0000
  H   H955      1.0  0.59124  0.35282  0.45165  1.0000
  N   N62       1.0  0.70512  0.65473  0.45966  1.0000
  H   H956      1.0  0.60986  0.44781  0.62846  1.0000
  C   C592      1.0  0.60306  0.39027  0.59525  1.0000
  H   H957      1.0  0.59383  0.39471  0.57020  1.0000
  S   S236      1.0  0.51087  0.57778  0.38642  1.0000
  H   H958      1.0  0.63838  0.64513  0.37193  1.0000
  C   C593      1.0  0.73642  0.54085  0.46120  1.0000
  H   H959      1.0  0.68964  0.49318  0.39112  1.0000
  H   H960      1.0  0.65409  0.43258  0.55520  1.0000
  C   C594      1.0  0.69730  0.63629  0.42555  1.0000
  H   H961      1.0  0.54611  0.37153  0.38414  1.0000
  H   H962      1.0  0.68948  0.53009  0.41189  1.0000
  H   H963      1.0  0.53774  0.37363  0.42927  1.0000
  H   H964      1.0  0.73972  0.48110  0.45822  1.0000
  C   C595      1.0  0.57668  0.43273  0.32208  1.0000
  C   C596      1.0  0.62817  0.66211  0.36729  1.0000
  H   H965      1.0  0.65341  0.62866  0.47503  1.0000
  H   H966      1.0  0.57975  0.38979  0.41543  1.0000
  H   H967      1.0  0.60994  0.37803  0.32730  1.0000
  C   C597      1.0  0.66126  0.42846  0.58152  1.0000
  H   H968      1.0  0.67345  0.63255  0.41421  1.0000
  H   H969      1.0  0.54451  0.42657  0.52119  1.0000
  C   C598      1.0  0.60547  0.39926  0.33422  1.0000
  H   H970      1.0  0.66958  0.49953  0.46669  1.0000
  H   H971      1.0  0.69055  0.47861  0.48617  1.0000
  H   H972      1.0  0.69494  0.60999  0.42753  1.0000
  S   S237      1.0  0.54113  0.41375  0.59387  1.0000
  C   C599      1.0  0.72698  0.44145  0.33457  1.0000
  H   H973      1.0  0.55102  0.33822  0.47102  1.0000
  C   C600      1.0  0.67834  0.63333  0.48422  1.0000
  S   S238      1.0  0.70379  0.35956  0.37902  1.0000
  S   S239      1.0  0.65831  0.34712  0.53124  1.0000
  H   H974      1.0  0.72398  0.55664  0.46603  1.0000
  H   H975      1.0  0.52186  0.60083  0.47731  1.0000
  H   H976      1.0  0.73710  0.63472  0.47569  1.0000
  H   H977      1.0  0.50616  0.51109  0.49453  1.0000
  H   H978      1.0  0.54238  0.58949  0.51050  1.0000
  H   H979      1.0  0.71718  0.65107  0.40636  1.0000
  C   C601      1.0  0.73050  0.50420  0.31522  1.0000
  H   H980      1.0  0.52035  0.59856  0.31257  1.0000
  C   C602      1.0  0.58308  0.40522  0.31398  1.0000
  H   H981      1.0  0.52847  0.64426  0.42548  1.0000
  H   H982      1.0  0.72331  0.35494  0.55220  1.0000
  H   H983      1.0  0.64820  0.39195  0.64044  1.0000
  H   H984      1.0  0.56524  0.66466  0.32393  1.0000
  C   C603      1.0  0.73766  0.66010  0.47278  1.0000
  C   C604      1.0  0.72066  0.34792  0.60776  1.0000
  C   C605      1.0  0.66857  0.33565  0.63445  1.0000
  H   H985      1.0  0.74583  0.35196  0.60993  1.0000
  C   C606      1.0  0.70112  0.34104  0.63770  1.0000
  C   C607      1.0  0.75099  0.47383  0.35003  1.0000
  H   H986      1.0  0.68340  0.64635  0.51031  1.0000
  N   N63       1.0  0.54989  0.33354  0.41543  1.0000
  C   C608      1.0  0.56403  0.33273  0.44962  1.0000
  N   N64       1.0  0.61302  0.39953  0.84189  1.0000
  H   H987      1.0  0.56300  0.49798  0.96194  1.0000
  C   C609      1.0  0.50935  0.46838  0.95387  1.0000
  H   H988      1.0  0.72105  0.40140  0.70178  1.0000
  C   C610      1.0  0.53724  0.49400  0.86759  1.0000
  S   S240      1.0  0.50573  0.50666  0.95228  1.0000
  H   H989      1.0  0.64231  0.39538  0.80079  1.0000
  Fe  Fe120     1.0  0.52275  0.44696  0.71606  1.0000
  Fe  Fe121     1.0  0.70046  0.38025  0.79513  1.0000
  Fe  Fe122     1.0  0.63731  0.38323  0.96705  1.0000
  Fe  Fe123     1.0  0.56345  0.36509  0.96610  1.0000
  S   S241      1.0  0.52437  0.37315  0.93713  1.0000
  C   C611      1.0  0.54610  0.44288  0.95416  1.0000
  C   C612      1.0  0.51871  0.40953  0.94670  1.0000
  C   C613      1.0  0.73585  0.42938  0.71029  1.0000
  H   H990      1.0  0.54558  0.52466  0.80562  1.0000
  H   H991      1.0  0.72335  0.49667  0.85210  1.0000
  H   H992      1.0  0.63122  0.41025  0.89470  1.0000
  H   H993      1.0  0.62245  0.45095  0.85721  1.0000
  H   H994      1.0  0.57103  0.44632  0.95649  1.0000
  C   C614      1.0  0.72900  0.50589  0.72989  1.0000
  C   C615      1.0  0.73024  0.40033  0.96726  1.0000
  S   S242      1.0  0.71315  0.43348  0.81843  1.0000
  H   H995      1.0  0.52780  0.47011  0.88342  1.0000
  H   H996      1.0  0.70221  0.53128  0.65997  1.0000
  H   H997      1.0  0.69618  0.46679  0.76565  1.0000
  H   H998      1.0  0.54608  0.51675  0.88617  1.0000
  Fe  Fe124     1.0  0.53760  0.41601  0.65209  1.0000
  H   H999      1.0  0.55940  0.49700  0.85316  1.0000
  H   H1000     1.0  0.57436  0.39417  0.87682  1.0000
  H   H1001     1.0  0.62986  0.37222  0.87470  1.0000
  C   C616      1.0  0.73097  0.52372  0.69960  1.0000
  H   H1002     1.0  0.56060  0.38073  0.83257  1.0000
  H   H1003     1.0  0.72404  0.44332  0.69806  1.0000
  S   S243      1.0  0.51222  0.48928  0.73661  1.0000
  S   S244      1.0  0.73562  0.36284  0.77546  1.0000
  Fe  Fe125     1.0  0.57775  0.42699  0.71801  1.0000
  S   S245      1.0  0.54851  0.37974  0.68267  1.0000
  S   S246      1.0  0.62848  0.44018  0.74113  1.0000
  S   S247      1.0  0.59148  0.34233  0.93772  1.0000
  C   C617      1.0  0.62350  0.43626  0.83389  1.0000
  S   S248      1.0  0.56984  0.46374  0.68538  1.0000
  S   S249      1.0  0.53316  0.41368  0.75188  1.0000
  C   C618      1.0  0.61616  0.38159  0.81051  1.0000
  S   S250      1.0  0.68670  0.42150  0.94212  1.0000
  C   C619      1.0  0.70101  0.51693  0.68287  1.0000
  C   C620      1.0  0.66947  0.49189  0.69558  1.0000
  C   C621      1.0  0.66755  0.47318  0.72514  1.0000
  C   C622      1.0  0.69745  0.48052  0.74232  1.0000
  C   C623      1.0  0.57773  0.38123  0.85325  1.0000
  H   H1004     1.0  0.64668  0.48717  0.68259  1.0000
  H   H1005     1.0  0.60730  0.43763  0.81320  1.0000
  H   H1006     1.0  0.59971  0.38101  0.78897  1.0000
  H   H1007     1.0  0.66182  0.41527  0.86376  1.0000
  H   H1008     1.0  0.51869  0.46048  0.80542  1.0000
  C   C624      1.0  0.63478  0.39917  0.86994  1.0000
  S   S251      1.0  0.66365  0.35548  0.75044  1.0000
  H   H1009     1.0  0.64979  0.45036  0.82428  1.0000
  H   H1010     1.0  0.60920  0.35398  0.81548  1.0000
  H   H1011     1.0  0.73308  0.43080  0.73887  1.0000
  H   H1012     1.0  0.62579  0.41083  0.66122  1.0000
  H   H1013     1.0  0.70816  0.37576  0.97336  1.0000
  S   S252      1.0  0.67257  0.33357  0.82895  1.0000
  C   C625      1.0  0.72671  0.42696  0.95223  1.0000
  N   N65       1.0  0.51081  0.49158  0.84385  1.0000
  C   C626      1.0  0.54147  0.47216  0.95724  1.0000
  H   H1014     1.0  0.56927  0.35359  0.85991  1.0000
  C   C627      1.0  0.52491  0.52288  0.82205  1.0000
  H   H1015     1.0  0.53518  0.54747  0.83810  1.0000
  C   C628      1.0  0.74730  0.50209  0.84182  1.0000
  H   H1016     1.0  0.74999  0.58801  0.74513  1.0000
  Fe  Fe126     1.0  0.50315  0.36934  0.71342  1.0000
  H   H1017     1.0  0.74575  0.36957  0.86116  1.0000
  H   H1018     1.0  0.66904  0.43820  0.65044  1.0000
  C   C629      1.0  0.50811  0.65460  0.96571  1.0000
  H   H1019     1.0  0.75033  0.62909  0.74577  1.0000
  S   S253      1.0  0.71866  0.33966  0.67838  1.0000
  Fe  Fe127     1.0  0.69699  0.33462  0.73262  1.0000
  C   C630      1.0  0.74987  0.47522  0.82424  1.0000
  H   H1020     1.0  0.50738  0.62986  0.96871  1.0000
  H   H1021     1.0  0.75160  0.51205  0.74422  1.0000
  H   H1022     1.0  0.50554  0.52200  0.80398  1.0000
  S   S254      1.0  0.54528  0.94041  0.28719  1.0000
  H   H1023     1.0  0.73543  0.80695  0.27015  1.0000
  Fe  Fe128     1.0  0.61879  0.79014  0.23555  1.0000
  S   S255      1.0  0.62101  0.83348  0.26913  1.0000
  S   S256      1.0  0.59237  0.77092  0.18404  1.0000
  Fe  Fe129     1.0  0.67421  0.84767  0.28146  1.0000
  H   H1024     1.0  0.52001  0.99658  0.06688  1.0000
  S   S257      1.0  0.67301  0.80726  0.24364  1.0000
  S   S258      1.0  0.60048  0.74974  0.27656  1.0000
  S   S259      1.0  0.61063  0.89097  0.08452  1.0000
  C   C631      1.0  0.59823  0.80465  0.15652  1.0000
  C   C632      1.0  0.58839  0.79669  0.12163  1.0000
  C   C633      1.0  0.59254  0.82325  0.09932  1.0000
  C   C634      1.0  0.60581  0.85769  0.11208  1.0000
  C   C635      1.0  0.61519  0.86558  0.14711  1.0000
  C   C636      1.0  0.61177  0.83914  0.16924  1.0000
  H   H1025     1.0  0.57796  0.77003  0.11173  1.0000
  H   H1026     1.0  0.58540  0.81702  0.07228  1.0000
  H   H1027     1.0  0.62570  0.89227  0.15692  1.0000
  H   H1028     1.0  0.61968  0.84551  0.19603  1.0000
  H   H1029     1.0  0.57557  0.85641  0.24591  1.0000
  H   H1030     1.0  0.68269  0.98036  0.21975  1.0000
  C   C637      1.0  0.55257  0.85169  0.23169  1.0000
  C   C638      1.0  0.66835  0.99231  0.23108  1.0000
  S   S260      1.0  0.72076  0.90272  0.27674  1.0000
  H   H1031     1.0  0.70667  0.68814  0.28383  1.0000
  H   H1032     1.0  0.67666  0.95085  0.27493  1.0000
  H   H1033     1.0  0.55680  0.92730  0.99181  1.0000
  C   C639      1.0  0.51844  0.80923  0.27409  1.0000
  Fe  Fe130     1.0  0.65564  0.76944  0.28734  1.0000
  H   H1034     1.0  0.55904  0.85671  0.20382  1.0000
  H   H1035     1.0  0.54625  0.87170  0.24144  1.0000
  H   H1036     1.0  0.62716  0.99674  0.27744  1.0000
  H   H1037     1.0  0.53833  0.98253  0.09952  1.0000
  C   C640      1.0  0.53529  0.92808  0.98152  1.0000
  H   H1038     1.0  0.55570  0.79219  0.23357  1.0000
  H   H1039     1.0  0.55565  0.88225  0.30254  1.0000
  H   H1040     1.0  0.51174  0.82786  0.28645  1.0000
  C   C641      1.0  0.73382  0.94202  0.30186  1.0000
  S   S261      1.0  0.61400  0.91182  0.98742  1.0000
  H   H1041     1.0  0.61571  0.69487  0.24708  1.0000
  H   H1042     1.0  0.53772  0.79399  0.19297  1.0000
  C   C642      1.0  0.52784  0.95362  0.99402  1.0000
  Fe  Fe131     1.0  0.60557  0.87335  0.02883  1.0000
  C   C643      1.0  0.66310  0.96400  0.28541  1.0000
  S   S262      1.0  0.55700  0.83039  0.00646  1.0000
  N   N66       1.0  0.52448  0.81566  0.23664  1.0000
  S   S263      1.0  0.67928  0.73399  0.28689  1.0000
  H   H1043     1.0  0.63573  0.94571  0.28140  1.0000
  C   C644      1.0  0.51756  0.98791  0.09414  1.0000
  H   H1044     1.0  0.72887  0.84669  0.31151  1.0000
  H   H1045     1.0  0.54105  0.81230  0.28802  1.0000
  H   H1046     1.0  0.64129  0.97441  0.22468  1.0000
  Fe  Fe132     1.0  0.51949  0.97465  0.28672  1.0000
  N   N67       1.0  0.67402  0.99797  0.26894  1.0000
  C   C645      1.0  0.61650  0.67941  0.22423  1.0000
  S   S264      1.0  0.63701  0.85319  0.00424  1.0000
  H   H1047     1.0  0.64286  0.69325  0.21506  1.0000
  C   C646      1.0  0.53284  0.79001  0.22122  1.0000
  H   H1048     1.0  0.54384  0.97235  0.01385  1.0000
  H   H1049     1.0  0.60016  0.68054  0.20356  1.0000
  H   H1050     1.0  0.68662  0.81158  0.98730  1.0000
  C   C647      1.0  0.71563  0.70321  0.30781  1.0000
  H   H1051     1.0  0.51219  0.76259  0.22450  1.0000
  Fe  Fe133     1.0  0.60557  0.79397  0.31124  1.0000
  H   H1052     1.0  0.72167  0.90040  0.98092  1.0000
  H   H1053     1.0  0.50228  0.94089  0.14377  1.0000
  C   C648      1.0  0.68602  0.99125  0.46832  1.0000
  H   H1054     1.0  0.57127  0.71251  0.46748  1.0000
  H   H1055     1.0  0.55403  0.75129  0.41400  1.0000
  H   H1056     1.0  0.63498  0.98177  0.37746  1.0000
  C   C649      1.0  0.54399  0.66930  0.41203  1.0000
  H   H1057     1.0  0.52871  0.67963  0.47666  1.0000
  S   S265      1.0  0.71181  0.91814  0.44604  1.0000
  Fe  Fe134     1.0  0.67401  0.82233  0.40934  1.0000
  S   S266      1.0  0.64218  0.84170  0.43567  1.0000
  S   S267      1.0  0.65597  0.76366  0.39463  1.0000
  Fe  Fe135     1.0  0.67071  0.89112  0.40532  1.0000
  S   S268      1.0  0.64818  0.92605  0.39058  1.0000
  Fe  Fe136     1.0  0.68428  0.86795  0.47519  1.0000
  S   S269      1.0  0.66764  0.87159  0.53031  1.0000
  S   S270      1.0  0.70109  0.87120  0.37658  1.0000
  S   S271      1.0  0.71444  0.84564  0.45123  1.0000
  Fe  Fe137     1.0  0.54583  0.98441  0.38622  1.0000
  H   H1058     1.0  0.56497  0.84071  0.44728  1.0000
  C   C650      1.0  0.61211  0.89856  0.48138  1.0000
  C   C651      1.0  0.70847  0.83724  0.60353  1.0000
  C   C652      1.0  0.70027  0.84598  0.57136  1.0000
  C   C653      1.0  0.67964  0.86089  0.57005  1.0000
  C   C654      1.0  0.66755  0.86714  0.60128  1.0000
  H   H1059     1.0  0.58568  0.73913  0.40999  1.0000
  C   C655      1.0  0.74945  0.71711  0.36061  1.0000
  H   H1060     1.0  0.70980  0.84103  0.54758  1.0000
  H   H1061     1.0  0.65169  0.87883  0.60055  1.0000
  S   S272      1.0  0.65910  0.81008  0.32546  1.0000
  H   H1062     1.0  0.55921  0.97773  0.60276  1.0000
  H   H1063     1.0  0.54357  0.86113  0.42775  1.0000
  C   C656      1.0  0.73712  0.69782  0.32977  1.0000
  N   N68       1.0  0.53702  0.69704  0.42421  1.0000
  H   H1064     1.0  0.68485  0.97039  0.45053  1.0000
  S   S273      1.0  0.56910  0.79571  0.35057  1.0000
  H   H1065     1.0  0.68287  0.68593  0.44657  1.0000
  C   C657      1.0  0.72650  0.97469  0.34934  1.0000
  H   H1066     1.0  0.66000  0.98645  0.47104  1.0000
  H   H1067     1.0  0.71220  0.97509  0.37119  1.0000
  C   C658      1.0  0.71539  0.94325  0.32995  1.0000
  C   C659      1.0  0.71859  0.74781  0.34733  1.0000
  C   C660      1.0  0.67578  0.85847  0.63343  1.0000
  H   H1068     1.0  0.74451  0.67388  0.49853  1.0000
  H   H1069     1.0  0.71144  0.76703  0.35450  1.0000
  S   S274      1.0  0.52247  0.90609  0.57503  1.0000
  C   C661      1.0  0.54437  0.70367  0.46176  1.0000
  C   C662      1.0  0.60531  0.70852  0.35288  1.0000
  C   C663      1.0  0.63370  0.72026  0.37473  1.0000
  C   C664      1.0  0.64485  0.69656  0.38152  1.0000
  H   H1070     1.0  0.59687  0.72660  0.34647  1.0000
  H   H1071     1.0  0.66729  0.70531  0.39711  1.0000
  C   C665      1.0  0.50931  0.73576  0.33226  1.0000
  C   C666      1.0  0.59501  0.96344  0.33949  1.0000
  C   C667      1.0  0.61750  0.95964  0.36150  1.0000
  C   C668      1.0  0.61821  0.92810  0.36230  1.0000
  C   C669      1.0  0.59569  0.90014  0.34067  1.0000
  C   C670      1.0  0.57987  0.79163  0.64364  1.0000
  C   C671      1.0  0.57300  0.90403  0.31873  1.0000
  H   H1072     1.0  0.55887  0.92152  0.44408  1.0000
  H   H1073     1.0  0.59630  0.98842  0.33837  1.0000
  C   C672      1.0  0.53416  0.94780  0.51988  1.0000
  H   H1074     1.0  0.56243  0.89831  0.51801  1.0000
  C   C673      1.0  0.70583  0.72795  0.31651  1.0000
  H   H1075     1.0  0.72435  0.82559  0.60414  1.0000
  H   H1076     1.0  0.55359  0.72566  0.37723  1.0000
  S   S275      1.0  0.51850  0.92309  0.38596  1.0000
  H   H1077     1.0  0.74634  0.83111  0.34357  1.0000
  C   C674      1.0  0.55580  0.97830  0.57509  1.0000
  C   C675      1.0  0.58297  0.92550  0.45515  1.0000
  C   C676      1.0  0.56793  0.86610  0.43890  1.0000
  C   C677      1.0  0.55454  0.87909  0.49580  1.0000
  H   H1078     1.0  0.69222  0.92006  0.33654  1.0000
  H   H1079     1.0  0.52955  0.87416  0.48658  1.0000
  H   H1080     1.0  0.74477  0.67910  0.32285  1.0000
  N   N69       1.0  0.57942  0.89233  0.46779  1.0000
  H   H1081     1.0  0.63147  0.90825  0.46093  1.0000
  H   H1082     1.0  0.61032  0.87405  0.49117  1.0000
  H   H1083     1.0  0.59089  0.94575  0.47632  1.0000
  C   C678      1.0  0.52529  0.76608  0.35320  1.0000
  H   H1084     1.0  0.52326  0.73096  0.31245  1.0000
  C   C679      1.0  0.74036  0.74250  0.36917  1.0000
  C   C680      1.0  0.70715  0.68908  0.45595  1.0000
  C   C681      1.0  0.55849  0.72965  0.40564  1.0000
  C   C682      1.0  0.53848  0.94694  0.55570  1.0000
  H   H1085     1.0  0.57087  0.67711  0.41597  1.0000
  H   H1086     1.0  0.54404  0.98031  0.47565  1.0000
  H   H1087     1.0  0.59565  0.87553  0.34083  1.0000
  C   C683      1.0  0.54742  0.97992  0.50332  1.0000
  C   C684      1.0  0.69625  0.84329  0.63477  1.0000
  H   H1088     1.0  0.51882  0.79512  0.39519  1.0000
  H   H1089     1.0  0.60173  0.93644  0.43417  1.0000
  H   H1090     1.0  0.62159  0.91817  0.50322  1.0000
  H   H1091     1.0  0.55125  0.85418  0.50612  1.0000
  H   H1092     1.0  0.58612  0.87516  0.41729  1.0000
  H   H1093     1.0  0.74997  0.75805  0.39288  1.0000
  H   H1094     1.0  0.52038  0.92362  0.50489  1.0000
  H   H1095     1.0  0.53947  0.72463  0.47159  1.0000
  Fe  Fe138     1.0  0.73972  0.89454  0.41897  1.0000
  Fe  Fe139     1.0  0.52566  0.90515  0.63323  1.0000
  H   H1096     1.0  0.71378  0.70417  0.48099  1.0000
  H   H1097     1.0  0.55711  0.79329  0.63686  1.0000
  H   H1098     1.0  0.60212  0.81640  0.63535  1.0000
  C   C685      1.0  0.50669  0.77158  0.37900  1.0000
  C   C686      1.0  0.57225  0.93568  0.31796  1.0000
  H   H1099     1.0  0.57911  0.76979  0.62789  1.0000
  H   H1100     1.0  0.72661  0.70546  0.43693  1.0000
  H   H1101     1.0  0.69489  0.98799  0.49411  1.0000
  C   C687      1.0  0.58754  0.67324  0.33970  1.0000
  H   H1102     1.0  0.74187  0.93610  0.63858  1.0000
  H   H1103     1.0  0.66803  0.96754  0.31387  1.0000
  H   H1104     1.0  0.50200  0.85044  0.38493  1.0000
  N   N70       1.0  0.61236  0.91119  0.83665  1.0000
  Fe  Fe140     1.0  0.64205  0.88846  0.96085  1.0000
  H   H1105     1.0  0.72342  0.84117  0.90076  1.0000
  C   C688      1.0  0.67656  0.79057  0.96671  1.0000
  H   H1106     1.0  0.63866  0.89406  0.87010  1.0000
  H   H1107     1.0  0.59575  0.94010  0.80601  1.0000
  C   C689      1.0  0.61557  0.94463  0.82546  1.0000
  C   C690      1.0  0.68373  0.97998  0.73949  1.0000
  H   H1108     1.0  0.63838  0.81122  0.93372  1.0000
  H   H1109     1.0  0.53567  0.80273  0.88640  1.0000
  C   C691      1.0  0.61538  0.89203  0.80622  1.0000
  H   H1110     1.0  0.67134  0.78685  0.87871  1.0000
  S   S276      1.0  0.59594  0.84730  0.93209  1.0000
  Fe  Fe141     1.0  0.71165  0.82265  0.80511  1.0000
  S   S277      1.0  0.67839  0.84179  0.82874  1.0000
  H   H1111     1.0  0.55164  0.74895  0.71935  1.0000
  Fe  Fe142     1.0  0.69613  0.83637  0.73117  1.0000
  S   S278      1.0  0.66253  0.85624  0.74988  1.0000
  S   S279      1.0  0.70738  0.83130  0.67443  1.0000
  Fe  Fe143     1.0  0.70248  0.88566  0.79102  1.0000
  S   S280      1.0  0.71338  0.94120  0.80323  1.0000
  Fe  Fe144     1.0  0.64122  0.81093  0.78603  1.0000
  S   S281      1.0  0.58435  0.77362  0.78550  1.0000
  H   H1112     1.0  0.61326  0.77928  0.71713  1.0000
  S   S282      1.0  0.67275  0.78883  0.76477  1.0000
  S   S283      1.0  0.68861  0.92320  0.93003  1.0000
  N   N71       1.0  0.68206  0.80543  0.93174  1.0000
  H   H1113     1.0  0.68893  0.77458  0.96995  1.0000
  H   H1114     1.0  0.57612  0.86428  0.86156  1.0000
  H   H1115     1.0  0.57620  0.90323  0.87598  1.0000
  N   N72       1.0  0.58149  0.78639  0.68116  1.0000
  S   S284      1.0  0.61496  0.93977  0.73163  1.0000
  Fe  Fe145     1.0  0.56739  0.86757  0.96301  1.0000
  C   C692      1.0  0.58250  0.81615  0.70075  1.0000
  C   C693      1.0  0.55149  0.77044  0.81216  1.0000
  C   C694      1.0  0.55156  0.75331  0.69105  1.0000
  H   H1116     1.0  0.58329  0.80928  0.85044  1.0000
  C   C695      1.0  0.72748  0.92664  0.70518  1.0000
  H   H1117     1.0  0.59544  0.88604  0.78643  1.0000
  C   C696      1.0  0.66723  0.77659  0.90542  1.0000
  C   C697      1.0  0.71848  0.82755  0.92587  1.0000
  C   C698      1.0  0.73975  0.91644  0.96185  1.0000
  C   C699      1.0  0.53071  0.78692  0.86294  1.0000
  C   C700      1.0  0.55772  0.79086  0.84247  1.0000
  H   H1118     1.0  0.64097  0.97502  0.66567  1.0000
  C   C701      1.0  0.51534  0.90415  0.95541  1.0000
  H   H1119     1.0  0.67954  0.97015  0.76546  1.0000
  H   H1120     1.0  0.63992  0.90790  0.79323  1.0000
  Fe  Fe146     1.0  0.56587  0.91716  0.70012  1.0000
  H   H1121     1.0  0.72810  0.92048  0.73281  1.0000
  H   H1122     1.0  0.61257  0.76297  0.67397  1.0000
  H   H1123     1.0  0.67679  0.84932  0.94809  1.0000
  H   H1124     1.0  0.52813  0.75362  0.68507  1.0000
  H   H1125     1.0  0.75063  0.97761  0.65717  1.0000
  C   C702      1.0  0.54045  0.71882  0.96614  1.0000
  C   C703      1.0  0.61191  0.78435  0.68921  1.0000
  C   C704      1.0  0.51104  0.71935  0.95782  1.0000
  H   H1126     1.0  0.51210  0.74418  0.95421  1.0000
  H   H1127     1.0  0.71446  0.94218  0.70399  1.0000
  S   S285      1.0  0.52467  0.87224  0.93864  1.0000
  S   S286      1.0  0.54007  0.94483  0.67756  1.0000
  H   H1128     1.0  0.73123  0.81169  0.92518  1.0000
  H   H1129     1.0  0.63719  0.93183  0.88609  1.0000
  C   C705      1.0  0.73017  0.93123  0.93548  1.0000
  H   H1130     1.0  0.63963  0.75969  0.90892  1.0000
  C   C706      1.0  0.65609  0.96936  0.71682  1.0000
  H   H1131     1.0  0.73083  0.84811  0.94660  1.0000
  H   H1132     1.0  0.63513  0.80909  0.68327  1.0000
  H   H1133     1.0  0.51281  0.73053  0.77900  1.0000
  C   C707      1.0  0.66583  0.82701  0.92902  1.0000
  H   H1134     1.0  0.61352  0.86682  0.81362  1.0000
  S   S287      1.0  0.73983  0.80778  0.84446  1.0000
  S   S288      1.0  0.51967  0.87721  0.72788  1.0000
  H   H1135     1.0  0.55021  0.73026  0.67712  1.0000
  C   C708      1.0  0.66191  0.98267  0.68340  1.0000
  S   S289      1.0  0.73780  0.86875  0.76999  1.0000
  S   S290      1.0  0.55500  0.88120  0.65392  1.0000
  H   H1136     1.0  0.61360  0.95992  0.84775  1.0000
  H   H1137     1.0  0.67875  0.75960  0.90685  1.0000
  C   C709      1.0  0.57930  0.88964  0.85277  1.0000
  C   C710      1.0  0.51799  0.74621  0.80260  1.0000
  H   H1138     1.0  0.71179  0.90157  0.69072  1.0000
  H   H1139     1.0  0.66464  0.93587  0.85146  1.0000
  H   H1140     1.0  0.64017  0.96134  0.81294  1.0000
  C   C711      1.0  0.63929  0.91853  0.86215  1.0000
  H   H1141     1.0  0.55838  0.88360  0.83430  1.0000
  H   H1142     1.0  0.60465  0.84161  0.69377  1.0000
  H   H1143     1.0  0.66607  0.86351  0.65695  1.0000
  H   H1144     1.0  0.66916  0.83857  0.90303  1.0000
  H   H1145     1.0  0.55966  0.81809  0.69547  1.0000
  H   H1146     1.0  0.58377  0.81328  0.72917  1.0000
  Fe  Fe147     1.0  0.50699  0.84352  0.67952  1.0000
  H   H1147     1.0  0.64929  0.77330  0.97174  1.0000
  S   S291      1.0  0.58006  0.75777  0.97081  1.0000
  H   H1148     1.0  0.74698  0.96409  0.89100  1.0000
  C   C712      1.0  0.75022  0.98012  0.81722  1.0000
  C   C713      1.0  0.53878  0.68629  0.96988  1.0000
  Fe  Fe148     1.0  0.58872  0.81319  0.97746  1.0000
  H   H1149     1.0  0.56137  0.68556  0.97620  1.0000
  H   H1150     1.0  0.86312  0.31529  0.24134  1.0000
  Fe  Fe149     1.0  0.84168  0.16793  0.25005  1.0000
  S   S292      1.0  0.87215  0.21487  0.21662  1.0000
  S   S293      1.0  0.78477  0.14959  0.25048  1.0000
  Fe  Fe150     1.0  0.90475  0.16078  0.26600  1.0000
  S   S294      1.0  0.93826  0.20790  0.23417  1.0000
  S   S295      1.0  0.90771  0.00968  0.08228  1.0000
  Fe  Fe151     1.0  0.91200  0.23467  0.25903  1.0000
  Fe  Fe152     1.0  0.89603  0.18527  0.19437  1.0000
  S   S296      1.0  0.90971  0.17892  0.13863  1.0000
  S   S297      1.0  0.86355  0.13733  0.22490  1.0000
  S   S298      1.0  0.83798  0.17831  0.99556  1.0000
  S   S299      1.0  0.93525  0.29420  0.27189  1.0000
  H   H1151     1.0  0.97947  0.26250  0.31100  1.0000
  C   C714      1.0  0.88861  0.17766  0.09927  1.0000
  C   C715      1.0  0.89837  0.16862  0.06790  1.0000
  C   C716      1.0  0.88276  0.16790  0.03604  1.0000
  C   C717      1.0  0.85762  0.17701  0.03503  1.0000
  C   C718      1.0  0.84767  0.18570  0.06641  1.0000
  C   C719      1.0  0.86296  0.18598  0.09831  1.0000
  H   H1152     1.0  0.91796  0.16180  0.06830  1.0000
  H   H1153     1.0  0.89002  0.15996  0.01244  1.0000
  H   H1154     1.0  0.82806  0.19250  0.06608  1.0000
  H   H1155     1.0  0.85505  0.19289  0.12213  1.0000
  H   H1156     1.0  0.77684  0.10727  0.31116  1.0000
  H   H1157     1.0  0.96082  0.14434  0.22558  1.0000
  H   H1158     1.0  0.83188  0.09621  0.00455  1.0000
  C   C720      1.0  0.86408  0.02964  0.23540  1.0000
  C   C721      1.0  0.85351  0.28988  0.30578  1.0000
  H   H1159     1.0  0.99393  0.00320  0.03347  1.0000
  N   N73       1.0  0.88541  0.04237  0.20446  1.0000
  H   H1160     1.0  0.90294  0.08527  0.16940  1.0000
  C   C722      1.0  0.87068  0.01551  0.17625  1.0000
  H   H1161     1.0  0.97581  0.17761  0.19352  1.0000
  Fe  Fe153     1.0  0.91882  0.01684  0.02535  1.0000
  H   H1162     1.0  0.78717  0.26877  0.25161  1.0000
  C   C723      1.0  0.88736  0.07515  0.19296  1.0000
  H   H1163     1.0  0.93637  0.05865  0.19058  1.0000
  H   H1164     1.0  0.86561  0.31894  0.30530  1.0000
  H   H1165     1.0  0.89864  0.09607  0.21350  1.0000
  N   N74       1.0  0.83178  0.27315  0.27486  1.0000
  C   C724      1.0  0.80608  0.02833  0.98577  1.0000
  C   C725      1.0  0.85187  0.28637  0.24319  1.0000
  C   C726      1.0  0.80436  0.28147  0.27433  1.0000
  C   C727      1.0  0.97768  0.26469  0.02094  1.0000
  H   H1166     1.0  0.87416  0.04946  0.25706  1.0000
  S   S300      1.0  0.88678  0.02843  0.99040  1.0000
  H   H1167     1.0  0.80033  0.22106  0.25348  1.0000
  H   H1168     1.0  0.91340  0.24528  0.03114  1.0000
  S   S301      1.0  0.91745  0.11861  0.28434  1.0000
  H   H1169     1.0  0.99801  0.26256  0.00743  1.0000
  H   H1170     1.0  0.80256  0.22379  0.29985  1.0000
  H   H1171     1.0  0.83722  0.22737  0.27614  1.0000
  H   H1172     1.0  0.99314  0.18858  0.27019  1.0000
  H   H1173     1.0  0.98965  0.28793  0.03895  1.0000
  H   H1174     1.0  0.88583  0.02446  0.15226  1.0000
  N   N75       1.0  0.95473  0.26742  0.99593  1.0000
  H   H1175     1.0  0.87388  0.28321  0.30731  1.0000
  C   C728      1.0  0.97533  0.04457  0.09689  1.0000
  H   H1176     1.0  0.97874  0.05621  0.07186  1.0000
  C   C729      1.0  0.94305  0.02150  0.10855  1.0000
  H   H1177     1.0  0.84479  0.00948  0.16929  1.0000
  C   C730      1.0  0.93886  0.00715  0.14143  1.0000
  H   H1178     1.0  0.97663  0.31563  0.21199  1.0000
  H   H1179     1.0  0.87289  0.28073  0.24287  1.0000
  H   H1180     1.0  0.93738  0.29233  0.03230  1.0000
  C   C731      1.0  0.91949  0.04911  0.21326  1.0000
  C   C732      1.0  0.99913  0.03865  0.15074  1.0000
  H   H1181     1.0  0.82370  0.03641  0.00840  1.0000
  S   S302      1.0  0.88082  0.18903  0.29311  1.0000
  S   S303      1.0  0.96709  0.05507  0.00045  1.0000
  H   H1182     1.0  0.98507  0.32365  0.99229  1.0000
  S   S304      1.0  0.99188  0.05529  0.25939  1.0000
  H   H1183     1.0  0.78872  0.27187  0.29780  1.0000
  C   C733      1.0  0.81737  0.23476  0.27606  1.0000
  C   C734      1.0  0.92742  0.26870  0.01485  1.0000
  H   H1184     1.0  0.92708  0.21173  0.98644  1.0000
  H   H1185     1.0  0.90883  0.26931  0.99671  1.0000
  C   C735      1.0  0.96686  0.01596  0.16267  1.0000
  H   H1186     1.0  0.83800  0.02377  0.22981  1.0000
  H   H1187     1.0  0.86204  0.07119  0.18662  1.0000
  H   H1188     1.0  0.93117  0.06910  0.23468  1.0000
  C   C736      1.0  0.81411  0.08671  0.98196  1.0000
  H   H1189     1.0  0.78860  0.07832  0.99203  1.0000
  H   H1190     1.0  0.83631  0.27383  0.21941  1.0000
  C   C737      1.0  0.95388  0.32751  0.30558  1.0000
  H   H1191     1.0  0.98068  0.13985  0.18730  1.0000
  H   H1192     1.0  0.81422  0.31023  0.27335  1.0000
  H   H1193     1.0  0.96411  0.24095  0.03700  1.0000
  C   C738      1.0  0.98146  0.15901  0.20708  1.0000
  H   H1194     1.0  0.91763  0.05466  0.29966  1.0000
  H   H1195     1.0  0.86286  0.00539  0.24510  1.0000
  C   C739      1.0  0.94539  0.11047  0.31013  1.0000
  H   H1196     1.0  0.96353  0.00449  0.18791  1.0000
  Fe  Fe154     1.0  0.96098  0.00209  0.28292  1.0000
  H   H1197     1.0  0.91893  0.02489  0.22216  1.0000
  H   H1198     1.0  0.78023  0.01773  0.99592  1.0000
  H   H1199     1.0  0.79646  0.02853  0.30481  1.0000
  C   C740      1.0  0.75462  0.10954  0.30854  1.0000
  H   H1200     1.0  0.00166  0.13683  0.26211  1.0000
  Fe  Fe155     1.0  0.80845  0.14111  0.45055  1.0000
  S   S305      1.0  0.84492  0.19381  0.43045  1.0000
  S   S306      1.0  0.79094  0.12712  0.50493  1.0000
  Fe  Fe156     1.0  0.79536  0.10346  0.38018  1.0000
  S   S307      1.0  0.83044  0.15417  0.35415  1.0000
  H   H1201     1.0  0.83234  0.01949  0.36336  1.0000
  Fe  Fe157     1.0  0.86610  0.16566  0.39927  1.0000
  S   S308      1.0  0.92070  0.17729  0.40260  1.0000
  Fe  Fe158     1.0  0.80686  0.17961  0.38675  1.0000
  S   S309      1.0  0.79576  0.22476  0.37715  1.0000
  S   S310      1.0  0.83173  0.11386  0.42333  1.0000
  C   C741      1.0  0.75813  0.25636  0.36165  1.0000
  C   C742      1.0  0.98634  0.20547  0.38185  1.0000
  H   H1202     1.0  0.99415  0.02560  0.58169  1.0000
  H   H1203     1.0  0.82911  0.00548  0.40717  1.0000
  H   H1204     1.0  0.76024  0.05772  0.44068  1.0000
  S   S311      1.0  0.99783  0.01624  0.32641  1.0000
  C   C743      1.0  0.96015  0.06804  0.33328  1.0000
  H   H1205     1.0  0.87203  0.09848  0.37888  1.0000
  H   H1206     1.0  0.95372  0.04106  0.33590  1.0000
  H   H1207     1.0  0.88555  0.01220  0.40429  1.0000
  H   H1208     1.0  0.99231  0.30194  0.42332  1.0000
  N   N76       1.0  0.87455  0.05363  0.39630  1.0000
  H   H1209     1.0  0.92093  0.05310  0.39212  1.0000
  H   H1210     1.0  0.94953  0.00395  0.62686  1.0000
  C   C744      1.0  0.95549  0.20436  0.37635  1.0000
  H   H1211     1.0  0.97828  0.16368  0.32630  1.0000
  H   H1212     1.0  0.88944  0.02624  0.36039  1.0000
  H   H1213     1.0  0.99632  0.11362  0.46452  1.0000
  C   C745      1.0  0.95345  0.22530  0.35087  1.0000
  C   C746      1.0  0.76231  0.22705  0.35565  1.0000
  H   H1214     1.0  0.93026  0.22549  0.34707  1.0000
  H   H1215     1.0  0.82309  0.04171  0.39714  1.0000
  H   H1216     1.0  0.91281  0.10306  0.37676  1.0000
  C   C747      1.0  0.86855  0.11417  0.56734  1.0000
  C   C748      1.0  0.83656  0.10294  0.58067  1.0000
  C   C749      1.0  0.81284  0.10718  0.56156  1.0000
  C   C750      1.0  0.82098  0.12250  0.52901  1.0000
  C   C751      1.0  0.85294  0.13366  0.51564  1.0000
  C   C752      1.0  0.87663  0.12937  0.53471  1.0000
  H   H1217     1.0  0.82994  0.09080  0.60563  1.0000
  H   H1218     1.0  0.78818  0.09847  0.57202  1.0000
  H   H1219     1.0  0.85971  0.14623  0.49089  1.0000
  H   H1220     1.0  0.90138  0.13830  0.52441  1.0000
  H   H1221     1.0  0.95118  0.29384  0.34648  1.0000
  C   C753      1.0  0.89345  0.03549  0.38794  1.0000
  H   H1222     1.0  0.87365  0.04375  0.45073  1.0000
  C   C754      1.0  0.83822  0.02903  0.39083  1.0000
  H   H1223     1.0  0.90835  0.08505  0.43762  1.0000
  C   C755      1.0  0.98157  0.24643  0.33058  1.0000
  H   H1224     1.0  0.86719  0.07946  0.44050  1.0000
  C   C756      1.0  0.88124  0.06597  0.43292  1.0000
  S   S312      1.0  0.76951  0.12808  0.40957  1.0000
  C   C757      1.0  0.88550  0.08390  0.37346  1.0000
  S   S313      1.0  0.89870  0.10967  0.59136  1.0000
  H   H1225     1.0  0.88071  0.07545  0.34567  1.0000
  C   C758      1.0  0.95941  0.32057  0.33948  1.0000
  S   S314      1.0  0.76583  0.04486  0.36463  1.0000
  C   C759      1.0  0.99397  0.12926  0.34875  1.0000
  C   C760      1.0  0.75548  0.00572  0.34045  1.0000
  H   H1226     1.0  0.75418  0.17456  0.46229  1.0000
  H   H1227     1.0  0.83887  0.28078  0.33006  1.0000
  C   C761      1.0  0.98829  0.09472  0.35107  1.0000
  H   H1228     1.0  0.98808  0.18917  0.40136  1.0000
  C   C762      1.0  0.97302  0.13706  0.32826  1.0000
  H   H1229     1.0  0.98984  0.14993  0.45568  1.0000
  H   H1230     1.0  0.77398  0.27628  0.38065  1.0000
  C   C763      1.0  0.77407  0.00481  0.31215  1.0000
  C   C764      1.0  0.93917  0.07588  0.31289  1.0000
  H   H1231     1.0  0.75323  0.02961  0.47637  1.0000
  C   C765      1.0  0.96610  0.27040  0.74356  1.0000
  Fe  Fe159     1.0  0.81835  0.06358  0.69065  1.0000
  S   S315      1.0  0.85689  0.11860  0.67616  1.0000
  H   H1232     1.0  0.93276  0.07509  0.87292  1.0000
  Fe  Fe160     1.0  0.87226  0.04277  0.70233  1.0000
  S   S316      1.0  0.91473  0.09564  0.68849  1.0000
  H   H1233     1.0  0.95506  0.15407  0.87060  1.0000
  Fe  Fe161     1.0  0.88810  0.11747  0.72025  1.0000
  S   S317      1.0  0.92074  0.16464  0.75543  1.0000
  C   C766      1.0  0.77632  0.04157  0.83725  1.0000
  H   H1234     1.0  0.96655  0.15214  0.79466  1.0000
  S   S318      1.0  0.84770  0.06434  0.73805  1.0000
  C   C767      1.0  0.76821  0.12387  0.79411  1.0000
  Fe  Fe162     1.0  0.85042  0.17728  0.93834  1.0000
  S   S319      1.0  0.88875  0.16450  0.91793  1.0000
  Fe  Fe163     1.0  0.83388  0.19322  0.86565  1.0000
  S   S320      1.0  0.87154  0.18137  0.84053  1.0000
  S   S321      1.0  0.80760  0.21018  0.82656  1.0000
  Fe  Fe164     1.0  0.85065  0.13467  0.87498  1.0000
  S   S322      1.0  0.84387  0.08193  0.85598  1.0000
  Fe  Fe165     1.0  0.90611  0.21192  0.88507  1.0000
  S   S323      1.0  0.95939  0.25864  0.88464  1.0000
  S   S324      1.0  0.81087  0.14430  0.89750  1.0000
  S   S325      1.0  0.86970  0.22670  0.90794  1.0000
  C   C768      1.0  0.98054  0.15558  0.95443  1.0000
  C   C769      1.0  0.80743  0.04337  0.84051  1.0000
  C   C770      1.0  0.90744  0.21027  0.71985  1.0000
  Fe  Fe166     1.0  0.93478  0.06321  0.96250  1.0000
  C   C771      1.0  0.97328  0.29947  0.97549  1.0000
  Fe  Fe167     1.0  0.95823  0.00911  0.96605  1.0000
  S   S326      1.0  0.94609  0.31534  0.71713  1.0000
  C   C772      1.0  0.97507  0.02632  0.71771  1.0000
  C   C773      1.0  0.78673  0.23472  0.83280  1.0000
  H   H1235     1.0  0.77405  0.06427  0.84393  1.0000
  H   H1236     1.0  0.91352  0.11743  0.87245  1.0000
  H   H1237     1.0  0.81030  0.10278  0.73537  1.0000
  H   H1238     1.0  0.79954  0.17968  0.75347  1.0000
  H   H1239     1.0  0.79318  0.24062  0.88825  1.0000
  H   H1240     1.0  0.92294  0.07214  0.79333  1.0000
  C   C774      1.0  0.78305  0.24641  0.86561  1.0000
  C   C775      1.0  0.79879  0.10248  0.76070  1.0000
  H   H1241     1.0  0.78723  0.13320  0.81553  1.0000
  C   C776      1.0  0.94453  0.02645  0.71601  1.0000
  H   H1242     1.0  0.90706  0.10207  0.79361  1.0000
  H   H1243     1.0  0.77967  0.07470  0.76556  1.0000
  H   H1244     1.0  0.87943  0.25426  0.81722  1.0000
  C   C777      1.0  0.92999  0.20651  0.74120  1.0000
  H   H1245     1.0  0.99497  0.15460  0.82807  1.0000
  C   C778      1.0  0.84928  0.07062  0.94926  1.0000
  H   H1246     1.0  0.88458  0.18738  0.71091  1.0000
  H   H1247     1.0  0.97673  0.23408  0.76993  1.0000
  C   C779      1.0  0.95939  0.23673  0.75300  1.0000
  S   S327      1.0  0.84052  0.03892  0.65608  1.0000
  C   C780      1.0  0.90421  0.32266  0.80230  1.0000
  H   H1248     1.0  0.89529  0.24643  0.69589  1.0000
  S   S328      1.0  0.92906  0.01991  0.92582  1.0000
  C   C781      1.0  0.91585  0.08795  0.81050  1.0000
  H   H1249     1.0  0.99855  0.05096  0.71857  1.0000
  C   C782      1.0  0.94293  0.27405  0.72297  1.0000
  C   C783      1.0  0.80998  0.16165  0.75350  1.0000
  H   H1250     1.0  0.96219  0.07667  0.84133  1.0000
  H   H1251     1.0  0.85624  0.09169  0.93036  1.0000
  N   N77       1.0  0.78364  0.12519  0.76023  1.0000
  C   C784      1.0  0.93385  0.13400  0.85435  1.0000
  H   H1252     1.0  0.98815  0.29348  0.75376  1.0000
  C   C785      1.0  0.75602  0.26139  0.80732  1.0000
  H   H1253     1.0  0.92432  0.14772  0.83782  1.0000
  H   H1254     1.0  0.76853  0.11380  0.70651  1.0000
  H   H1255     1.0  0.83378  0.01458  0.83427  1.0000
  H   H1256     1.0  0.88565  0.29437  0.86516  1.0000
  H   H1257     1.0  0.96014  0.23554  0.95658  1.0000
  C   C786      1.0  0.90681  0.27019  0.81232  1.0000
  C   C787      1.0  0.95402  0.09291  0.85629  1.0000
  H   H1258     1.0  0.91963  0.25816  0.82621  1.0000
  H   H1259     1.0  0.97496  0.11083  0.87421  1.0000
  S   S329      1.0  0.76333  0.04792  0.68110  1.0000
  C   C788      1.0  0.97297  0.13612  0.81167  1.0000
  N   N78       1.0  0.81509  0.05794  0.96254  1.0000
  H   H1260     1.0  0.77597  0.23367  0.77819  1.0000
  H   H1261     1.0  0.82197  0.16358  0.72799  1.0000
  H   H1262     1.0  0.91027  0.26766  0.78414  1.0000
  H   H1263     1.0  0.99355  0.29901  0.96014  1.0000
  H   H1264     1.0  0.79264  0.02609  0.91660  1.0000
  H   H1265     1.0  0.85134  0.04929  0.93551  1.0000
  N   N79       1.0  0.94417  0.11272  0.83318  1.0000
  H   H1266     1.0  0.94466  0.05107  0.71565  1.0000
  H   H1267     1.0  0.95655  0.30223  0.95646  1.0000
  C   C789      1.0  0.99520  0.26162  0.86421  1.0000
  C   C790      1.0  0.80984  0.01349  0.83175  1.0000
  H   H1268     1.0  0.79604  0.06824  0.91595  1.0000
  S   S330      1.0  0.94392  0.11558  0.94222  1.0000
  H   H1269     1.0  0.76458  0.03442  0.94200  1.0000
  H   H1270     1.0  0.90914  0.32158  0.77417  1.0000
  C   C791      1.0  0.99326  0.23423  0.84351  1.0000
  H   H1271     1.0  0.83021  0.17186  0.77372  1.0000
  H   H1272     1.0  0.89397  0.06944  0.82596  1.0000
  H   H1273     1.0  0.98090  0.12096  0.79461  1.0000
  H   H1274     1.0  0.81876  0.11121  0.78113  1.0000
  C   C792      1.0  0.79095  0.04614  0.93308  1.0000
  C   C793      1.0  0.91364  0.24384  0.71126  1.0000
  C   C794      1.0  0.77326  0.24249  0.80372  1.0000
  H   H1275     1.0  0.96928  0.21073  0.83910  1.0000
  C   C795      1.0  0.91315  0.30920  0.86033  1.0000
  H   H1276     1.0  0.96595  0.18762  0.92586  1.0000
  C   C796      1.0  0.98496  0.18758  0.94240  1.0000
  H   H1277     1.0  0.92224  0.23719  0.95368  1.0000
  H   H1278     1.0  0.96982  0.31558  0.83361  1.0000
  H   H1279     1.0  0.92516  0.29799  0.87687  1.0000
  N   N80       1.0  0.92032  0.30725  0.82329  1.0000
  C   C797      1.0  0.76575  0.26526  0.86921  1.0000
  H   H1280     1.0  0.76280  0.27385  0.89477  1.0000
  C   C798      1.0  0.95704  0.32684  0.81822  1.0000
  H   H1281     1.0  0.87644  0.30817  0.80540  1.0000
  H   H1282     1.0  0.75676  0.14099  0.79482  1.0000
  H   H1283     1.0  0.96330  0.32596  0.79053  1.0000
  C   C799      1.0  0.75762  0.11270  0.73252  1.0000
  H   H1284     1.0  0.80692  0.00631  0.97202  1.0000
  H   H1285     1.0  0.82121  0.10966  0.96534  1.0000
  H   H1286     1.0  0.86857  0.08155  0.97046  1.0000
  C   C800      1.0  0.94035  0.23652  0.97219  1.0000
  Fe  Fe168     1.0  0.88076  0.09345  0.64543  1.0000
  C   C801      1.0  0.75200  0.27272  0.84016  1.0000
  H   H1287     1.0  0.86978  0.49326  0.26456  1.0000
  S   S331      1.0  0.98144  0.45976  0.25199  1.0000
  Fe  Fe169     1.0  0.92735  0.53519  0.03300  1.0000
  Fe  Fe170     1.0  0.95519  0.47944  0.28825  1.0000
  S   S332      1.0  0.92551  0.55116  0.08826  1.0000
  H   H1288     1.0  0.98214  0.61426  0.19076  1.0000
  C   C802      1.0  0.96486  0.63208  0.03245  1.0000
  C   C803      1.0  0.95463  0.54710  0.11425  1.0000
  C   C804      1.0  0.95174  0.54699  0.15033  1.0000
  H   H1289     1.0  0.91039  0.54819  0.29122  1.0000
  H   H1290     1.0  0.93138  0.54905  0.16195  1.0000
  H   H1291     1.0  0.81316  0.62929  0.06306  1.0000
  H   H1292     1.0  0.86343  0.54657  0.26515  1.0000
  Fe  Fe171     1.0  0.90293  0.65681  0.26149  1.0000
  C   C805      1.0  0.75217  0.47158  0.04636  1.0000
  H   H1293     1.0  0.96242  0.61345  0.05276  1.0000
  H   H1294     1.0  0.97175  0.54244  0.19907  1.0000
  C   C806      1.0  0.94028  0.60241  0.30714  1.0000
  S   S333      1.0  0.86288  0.63703  0.21887  1.0000
  H   H1295     1.0  0.99213  0.65035  0.02883  1.0000
  H   H1296     1.0  0.95750  0.65243  0.09637  1.0000
  H   H1297     1.0  0.95802  0.61835  0.22502  1.0000
  S   S334      1.0  0.97271  0.56202  0.99993  1.0000
  S   S335      1.0  0.98326  0.53479  0.26846  1.0000
  C   C807      1.0  0.93119  0.56686  0.30715  1.0000
  S   S336      1.0  0.78431  0.64854  0.25108  1.0000
  H   H1298     1.0  0.89682  0.63912  0.05359  1.0000
  S   S337      1.0  0.89275  0.53939  0.99503  1.0000
  C   C808      1.0  0.85581  0.66198  0.09654  1.0000
  H   H1299     1.0  0.83902  0.47631  0.23009  1.0000
  C   C809      1.0  0.78784  0.47185  0.26865  1.0000
  S   S338      1.0  0.89744  0.44677  0.29463  1.0000
  H   H1300     1.0  0.99300  0.61135  0.26778  1.0000
  H   H1301     1.0  0.98304  0.54395  0.07139  1.0000
  H   H1302     1.0  0.99547  0.36109  0.22441  1.0000
  H   H1303     1.0  0.89948  0.61121  0.02083  1.0000
  H   H1304     1.0  0.90665  0.60598  0.06556  1.0000
  H   H1305     1.0  0.77757  0.44574  0.28075  1.0000
  N   N81       1.0  0.94710  0.65112  0.04190  1.0000
  S   S339      1.0  0.91561  0.61509  0.28129  1.0000
  C   C810      1.0  0.98078  0.54414  0.09925  1.0000
  H   H1306     1.0  0.83050  0.52785  0.23309  1.0000
  S   S340      1.0  0.91517  0.48130  0.01545  1.0000
  H   H1307     1.0  0.78202  0.46722  0.24040  1.0000
  H   H1308     1.0  0.83320  0.45102  0.26796  1.0000
  N   N82       1.0  0.82428  0.49419  0.27554  1.0000
  H   H1309     1.0  0.95874  0.36841  0.27207  1.0000
  H   H1310     1.0  0.75625  0.46184  0.02101  1.0000
  H   H1311     1.0  0.82370  0.54281  0.27442  1.0000
  H   H1312     1.0  0.82673  0.39876  0.30223  1.0000
  C   C811      1.0  0.83593  0.52932  0.26138  1.0000
  C   C812      1.0  0.97457  0.54318  0.17138  1.0000
  C   C813      1.0  0.75424  0.60315  0.30589  1.0000
  H   H1313     1.0  0.95451  0.61670  0.00786  1.0000
  C   C814      1.0  0.84232  0.47803  0.25877  1.0000
  C   C815      1.0  0.98066  0.63342  0.20890  1.0000
  C   C816      1.0  0.96351  0.36240  0.29779  1.0000
  C   C817      1.0  0.00080  0.54029  0.15641  1.0000
  H   H1314     1.0  0.76493  0.38370  0.98365  1.0000
  H   H1315     1.0  0.75673  0.45704  0.06695  1.0000
  H   H1316     1.0  0.77373  0.48426  0.27929  1.0000
  H   H1317     1.0  0.77176  0.49977  0.04923  1.0000
  Fe  Fe172     1.0  0.84079  0.66536  0.24863  1.0000
  C   C818      1.0  0.91093  0.62575  0.04567  1.0000
  C   C819      1.0  0.83833  0.65163  0.06438  1.0000
  H   H1318     1.0  0.00186  0.34865  0.18161  1.0000
  H   H1319     1.0  0.77589  0.59959  0.30602  1.0000
  H   H1320     1.0  0.97616  0.65172  0.19331  1.0000
  H   H1321     1.0  0.84418  0.64744  0.11957  1.0000
  S   S341      1.0  0.83092  0.65404  0.99368  1.0000
  H   H1322     1.0  0.94013  0.66175  0.98931  1.0000
  C   C820      1.0  0.99965  0.34171  0.20942  1.0000
  H   H1323     1.0  0.86053  0.38846  0.38070  1.0000
  S   S342      1.0  0.79610  0.41910  0.42018  1.0000
  H   H1324     1.0  0.89337  0.61501  0.38961  1.0000
  C   C821      1.0  0.97980  0.39000  0.32277  1.0000
  C   C822      1.0  0.98754  0.38357  0.35594  1.0000
  H   H1325     1.0  0.95842  0.61731  0.40675  1.0000
  C   C823      1.0  0.86958  0.44042  0.32961  1.0000
  H   H1326     1.0  0.95163  0.42084  0.37030  1.0000
  C   C824      1.0  0.98632  0.61402  0.34752  1.0000
  H   H1327     1.0  0.83089  0.58191  0.59906  1.0000
  C   C825      1.0  0.88035  0.45990  0.36086  1.0000
  C   C826      1.0  0.85745  0.45309  0.38800  1.0000
  C   C827      1.0  0.82338  0.42703  0.38440  1.0000
  C   C828      1.0  0.81252  0.40773  0.35309  1.0000
  H   H1328     1.0  0.86016  0.56392  0.44939  1.0000
  H   H1329     1.0  0.90645  0.47981  0.36445  1.0000
  H   H1330     1.0  0.86627  0.46783  0.41222  1.0000
  H   H1331     1.0  0.78647  0.38746  0.34985  1.0000
  Fe  Fe173     1.0  0.80395  0.63357  0.44790  1.0000
  S   S343      1.0  0.78743  0.61789  0.50221  1.0000
  Fe  Fe174     1.0  0.79457  0.60051  0.37489  1.0000
  H   H1332     1.0  0.95125  0.52773  0.58152  1.0000
  H   H1333     1.0  0.90737  0.58872  0.36784  1.0000
  S   S344      1.0  0.99332  0.56103  0.37939  1.0000
  C   C829      1.0  0.90854  0.55298  0.42195  1.0000
  H   H1334     1.0  0.92437  0.55272  0.40024  1.0000
  C   C830      1.0  0.81183  0.59837  0.55680  1.0000
  S   S345      1.0  0.83241  0.61397  0.41769  1.0000
  C   C831      1.0  0.95483  0.47935  0.61970  1.0000
  C   C832      1.0  0.86856  0.60796  0.56036  1.0000
  H   H1335     1.0  0.91880  0.38813  0.34278  1.0000
  C   C833      1.0  0.97694  0.57820  0.34762  1.0000
  C   C834      1.0  0.86886  0.36981  0.38840  1.0000
  C   C835      1.0  0.91517  0.36244  0.40655  1.0000
  C   C836      1.0  0.83549  0.41430  0.32604  1.0000
  S   S346      1.0  0.82528  0.65466  0.35222  1.0000
  H   H1336     1.0  0.86206  0.35026  0.36673  1.0000
  N   N83       1.0  0.90530  0.38822  0.39623  1.0000
  H   H1337     1.0  0.97114  0.54719  0.62247  1.0000
  H   H1338     1.0  0.91086  0.34334  0.38501  1.0000
  C   C837      1.0  0.91324  0.41420  0.42481  1.0000
  H   H1339     1.0  0.76012  0.55773  0.44728  1.0000
  H   H1340     1.0  0.85700  0.64234  0.48693  1.0000
  C   C838      1.0  0.81895  0.61494  0.52490  1.0000
  C   C839      1.0  0.85101  0.62845  0.51095  1.0000
  H   H1341     1.0  0.96078  0.45834  0.62557  1.0000
  H   H1342     1.0  0.91778  0.42655  0.35692  1.0000
  H   H1343     1.0  0.98657  0.41642  0.31618  1.0000
  H   H1344     1.0  0.85386  0.35573  0.41129  1.0000
  S   S347      1.0  0.99243  0.49094  0.33072  1.0000
  Fe  Fe175     1.0  0.88357  0.59148  0.63748  1.0000
  C   C840      1.0  0.94189  0.61604  0.42824  1.0000
  H   H1345     1.0  0.78715  0.58812  0.56778  1.0000
  C   C841      1.0  0.92410  0.40655  0.36518  1.0000
  C   C842      1.0  0.83663  0.59490  0.57453  1.0000
  H   H1346     1.0  0.91943  0.54938  0.44625  1.0000
  H   H1347     1.0  0.76869  0.47426  0.36888  1.0000
  H   H1348     1.0  0.90617  0.43409  0.41775  1.0000
  H   H1349     1.0  0.86641  0.56832  0.38654  1.0000
  H   H1350     1.0  0.94067  0.42867  0.43110  1.0000
  C   C843      1.0  0.87578  0.62483  0.52862  1.0000
  C   C844      1.0  0.89295  0.58957  0.39045  1.0000
  H   H1351     1.0  0.97940  0.34243  0.39051  1.0000
  H   H1352     1.0  0.89641  0.58214  0.47776  1.0000
  C   C845      1.0  0.97477  0.53707  0.59708  1.0000
  S   S348      1.0  0.78596  0.54593  0.35815  1.0000
  H   H1353     1.0  0.94194  0.64138  0.42910  1.0000
  C   C846      1.0  0.83088  0.49757  0.31336  1.0000
  H   H1354     1.0  0.90071  0.63576  0.51812  1.0000
  H   H1355     1.0  0.85822  0.51252  0.31955  1.0000
  S   S349      1.0  0.76378  0.61701  0.40767  1.0000
  H   H1356     1.0  0.88295  0.52989  0.41805  1.0000
  H   H1357     1.0  0.99527  0.55965  0.58347  1.0000
  C   C847      1.0  0.88663  0.58553  0.45257  1.0000
  N   N84       1.0  0.90749  0.58600  0.42330  1.0000
  H   H1358     1.0  0.88632  0.61064  0.45467  1.0000
  S   S350      1.0  0.89953  0.60348  0.58241  1.0000
  H   H1359     1.0  0.95362  0.61424  0.45279  1.0000
  H   H1360     1.0  0.94231  0.37563  0.41380  1.0000
  C   C848      1.0  0.97581  0.34832  0.36440  1.0000
  H   H1361     1.0  0.93124  0.46734  0.60389  1.0000
  H   H1362     1.0  0.96468  0.48591  0.55088  1.0000
  H   H1363     1.0  0.81931  0.51157  0.32651  1.0000
  C   C849      1.0  0.98761  0.49631  0.56758  1.0000
  H   H1364     1.0  0.93978  0.52706  0.32854  1.0000
  C   C850      1.0  0.96799  0.62595  0.32777  1.0000
  N   N85       1.0  0.98277  0.50876  0.60179  1.0000
  H   H1365     1.0  0.75658  0.50608  0.41999  1.0000
  H   H1366     1.0  0.89958  0.40144  0.44877  1.0000
  H   H1367     1.0  0.97516  0.65330  0.32876  1.0000
  H   H1368     1.0  0.99381  0.47500  0.57022  1.0000
  H   H1369     1.0  0.82043  0.47148  0.32536  1.0000
  C   C851      1.0  0.94847  0.55483  0.32796  1.0000
  H   H1370     1.0  0.90074  0.34730  0.42925  1.0000
  C   C852      1.0  0.75264  0.50545  0.34083  1.0000
  H   H1371     1.0  0.94942  0.48833  0.64474  1.0000
  C   C853      1.0  0.78526  0.62737  0.80076  1.0000
  C   C854      1.0  0.97380  0.64077  0.80843  1.0000
  S   S351      1.0  0.92505  0.51044  0.93565  1.0000
  H   H1372     1.0  0.80728  0.63786  0.81866  1.0000
  H   H1373     1.0  0.80092  0.58619  0.76303  1.0000
  Fe  Fe176     1.0  0.99338  0.36593  0.70455  1.0000
  H   H1374     1.0  0.78136  0.49785  0.69746  1.0000
  C   C855      1.0  0.81569  0.61471  0.75757  1.0000
  H   H1375     1.0  0.78668  0.42901  0.74625  1.0000
  H   H1376     1.0  0.80059  0.45407  0.65457  1.0000
  C   C856      1.0  0.77545  0.53598  0.84631  1.0000
  H   H1377     1.0  0.99451  0.65802  0.82686  1.0000
  H   H1378     1.0  0.80476  0.40703  0.81073  1.0000
  C   C857      1.0  0.91726  0.59203  0.80165  1.0000
  C   C858      1.0  0.77392  0.44225  0.66262  1.0000
  S   S352      1.0  0.86322  0.62076  0.66734  1.0000
  C   C859      1.0  0.78981  0.48208  0.71209  1.0000
  C   C860      1.0  0.80909  0.51656  0.81537  1.0000
  H   H1379     1.0  0.78782  0.36303  0.82582  1.0000
  H   H1380     1.0  0.77305  0.55632  0.85996  1.0000
  H   H1381     1.0  0.95202  0.65060  0.86892  1.0000
  Fe  Fe177     1.0  0.89588  0.62110  0.71057  1.0000
  H   H1382     1.0  0.92293  0.33682  0.86945  1.0000
  S   S353      1.0  0.76979  0.55591  0.68233  1.0000
  C   C861      1.0  0.76521  0.39755  0.86566  1.0000
  S   S354      1.0  0.87921  0.49644  0.71209  1.0000
  H   H1383     1.0  0.78504  0.35188  0.88737  1.0000
  H   H1384     1.0  0.91071  0.61302  0.86650  1.0000
  H   H1385     1.0  0.77130  0.64132  0.80728  1.0000
  H   H1386     1.0  0.82351  0.61722  0.73007  1.0000
  H   H1387     1.0  0.92278  0.64743  0.83609  1.0000
  H   H1388     1.0  0.96177  0.57736  0.82991  1.0000
  H   H1389     1.0  0.78350  0.46205  0.79820  1.0000
  Fe  Fe178     1.0  0.85041  0.63365  0.86927  1.0000
  H   H1390     1.0  0.91380  0.35066  0.80972  1.0000
  C   C862      1.0  0.80620  0.39111  0.83197  1.0000
  H   H1391     1.0  0.82785  0.38533  0.89643  1.0000
  S   S355      1.0  0.98741  0.40069  0.66639  1.0000
  C   C863      1.0  0.75573  0.45862  0.94427  1.0000
  H   H1392     1.0  0.97440  0.60834  0.86576  1.0000
  H   H1393     1.0  0.97174  0.38530  0.91982  1.0000
  C   C864      1.0  0.91750  0.49601  0.71187  1.0000
  C   C865      1.0  0.94846  0.52710  0.71140  1.0000
  C   C866      1.0  0.93193  0.63215  0.85061  1.0000
  C   C867      1.0  0.97787  0.49365  0.71242  1.0000
  C   C868      1.0  0.94690  0.46251  0.71260  1.0000
  C   C869      1.0  0.91685  0.46375  0.71267  1.0000
  H   H1394     1.0  0.94931  0.55209  0.71108  1.0000
  C   C870      1.0  0.98378  0.43475  0.94480  1.0000
  H   H1395     1.0  0.89299  0.43957  0.71312  1.0000
  H   H1396     1.0  0.77321  0.62000  0.71337  1.0000
  H   H1397     1.0  0.76899  0.59910  0.80654  1.0000
  H   H1398     1.0  0.83296  0.52209  0.80479  1.0000
  S   S356      1.0  0.94984  0.61283  0.93261  1.0000
  H   H1399     1.0  0.81008  0.48795  0.94445  1.0000
  Fe  Fe179     1.0  0.87653  0.54464  0.69695  1.0000
  H   H1400     1.0  0.89478  0.57140  0.81488  1.0000
  H   H1401     1.0  0.78624  0.48532  0.74006  1.0000
  H   H1402     1.0  0.96060  0.43351  0.93694  1.0000
  H   H1403     1.0  0.96815  0.35490  0.82637  1.0000
  C   C871      1.0  0.76601  0.61671  0.74116  1.0000
  C   C872      1.0  0.99020  0.40754  0.93507  1.0000
  H   H1404     1.0  0.83168  0.39405  0.83164  1.0000
  C   C873      1.0  0.97848  0.52590  0.71209  1.0000
  S   S357      1.0  0.85548  0.57015  0.73234  1.0000
  C   C874      1.0  0.95354  0.59217  0.84706  1.0000
  C   C875      1.0  0.79153  0.43651  0.96508  1.0000
  S   S358      1.0  0.81246  0.64484  0.89401  1.0000
  H   H1405     1.0  0.93207  0.57285  0.86257  1.0000
  H   H1406     1.0  0.81954  0.44899  0.89791  1.0000
  H   H1407     1.0  0.96758  0.65805  0.79334  1.0000
  H   H1408     1.0  0.76055  0.41436  0.65327  1.0000
  C   C876      1.0  0.78799  0.46365  0.95122  1.0000
  C   C877      1.0  0.76248  0.40495  0.97319  1.0000
  C   C878      1.0  0.78659  0.42617  0.71760  1.0000
  N   N86       1.0  0.94414  0.61426  0.82694  1.0000
  H   H1409     1.0  0.94611  0.43753  0.71288  1.0000
  H   H1410     1.0  0.81311  0.43656  0.70970  1.0000
  C   C879      1.0  0.80648  0.54350  0.83288  1.0000
  N   N87       1.0  0.79936  0.40217  0.86594  1.0000
  H   H1411     1.0  0.79408  0.38585  0.91876  1.0000
  C   C880      1.0  0.82425  0.43955  0.87285  1.0000
  S   S359      1.0  0.91928  0.59541  0.67926  1.0000
  H   H1412     1.0  0.76281  0.45611  0.64884  1.0000
  C   C881      1.0  0.98657  0.65321  0.94319  1.0000
  H   H1413     1.0  0.82328  0.45659  0.85250  1.0000
  N   N88       1.0  0.77148  0.44490  0.70064  1.0000
  H   H1414     1.0  0.77291  0.39777  0.71043  1.0000
  C   C882      1.0  0.80177  0.38038  0.89322  1.0000
  Fe  Fe180     1.0  0.82417  0.56765  0.68612  1.0000
  S   S360      1.0  0.84231  0.58624  0.83600  1.0000
  H   H1415     1.0  0.90891  0.60789  0.78692  1.0000
  Fe  Fe181     1.0  0.93764  0.56276  0.96030  1.0000
  H   H1416     1.0  0.81716  0.49364  0.70842  1.0000
  H   H1417     1.0  0.83887  0.62619  0.77412  1.0000
  C   C883      1.0  0.78105  0.48249  0.81144  1.0000
  H   H1418     1.0  0.85028  0.44401  0.87435  1.0000
  H   H1419     1.0  0.92566  0.57882  0.78257  1.0000
  H   H1420     1.0  0.98345  0.62831  0.78992  1.0000
  H   H1421     1.0  0.75328  0.47931  0.93235  1.0000
  N   N89       1.0  0.79595  0.63224  0.76427  1.0000
  S   S361      1.0  0.84237  0.53862  0.65212  1.0000
  H   H1422     1.0  0.76216  0.41318  0.84519  1.0000
  Fe  Fe182     1.0  0.88308  0.48710  0.97468  1.0000
  S   S362      1.0  0.83107  0.43867  0.96796  1.0000
  H   H1423     1.0  0.75955  0.40623  0.89082  1.0000
  S   S363      1.0  0.88646  0.65440  0.91503  1.0000
  Fe  Fe183     1.0  0.95766  0.50810  0.97824  1.0000
  H   H1424     1.0  0.97317  0.75486  0.29640  1.0000
  S   S364      1.0  0.98602  0.97810  0.25071  1.0000
  H   H1425     1.0  0.94762  0.96335  0.06929  1.0000
  H   H1426     1.0  0.80084  0.87944  0.25198  1.0000
  H   H1427     1.0  0.77660  0.81466  0.25980  1.0000
  S   S365      1.0  0.87201  0.71559  0.22007  1.0000
  S   S366      1.0  0.93750  0.70645  0.23343  1.0000
  Fe  Fe184     1.0  0.91174  0.73181  0.26188  1.0000
  H   H1428     1.0  0.93985  0.69178  0.02100  1.0000
  H   H1429     1.0  0.75783  0.79576  0.30031  1.0000
  N   N90       1.0  0.84305  0.76427  0.30901  1.0000
  C   C884      1.0  0.96565  0.86089  0.29763  1.0000
  H   H1430     1.0  0.84044  0.78381  0.25916  1.0000
  H   H1431     1.0  0.98832  0.68977  0.07311  1.0000
  C   C885      1.0  0.85898  0.78280  0.27695  1.0000
  H   H1432     1.0  0.96326  0.86628  0.27088  1.0000
  H   H1433     1.0  0.96272  0.94040  0.01549  1.0000
  N   N91       1.0  0.99295  0.96115  0.06189  1.0000
  C   C886      1.0  0.76335  0.97304  0.29309  1.0000
  H   H1434     1.0  0.87029  0.76934  0.26246  1.0000
  H   H1435     1.0  0.83561  0.96787  0.29325  1.0000
  H   H1436     1.0  0.96968  0.78300  0.21323  1.0000
  S   S367      1.0  0.91360  0.70176  0.13719  1.0000
  C   C887      1.0  0.95169  0.67587  0.01432  1.0000
  H   H1437     1.0  0.83050  0.71386  0.28695  1.0000
  H   H1438     1.0  0.79800  0.72476  0.28266  1.0000
  H   H1439     1.0  0.78938  0.90307  0.28236  1.0000
  H   H1440     1.0  0.89746  0.71292  0.01294  1.0000
  Fe  Fe185     1.0  0.89601  0.68840  0.19315  1.0000
  S   S368      1.0  0.93784  0.79177  0.27449  1.0000
  N   N92       1.0  0.77582  0.85096  0.29750  1.0000
  H   H1441     1.0  0.87962  0.81010  0.28267  1.0000
  C   C888      1.0  0.97918  0.93527  0.03276  1.0000
  C   C889      1.0  0.88577  0.69856  0.03606  1.0000
  H   H1442     1.0  0.98093  0.82744  0.20576  1.0000
  C   C890      1.0  0.88863  0.69043  0.09853  1.0000
  S   S369      1.0  0.90336  0.98054  0.28611  1.0000
  C   C891      1.0  0.90325  0.70893  0.06818  1.0000
  H   H1443     1.0  0.92849  0.73118  0.06939  1.0000
  H   H1444     1.0  0.98632  0.80164  0.17212  1.0000
  S   S370      1.0  0.87913  0.68303  0.29212  1.0000
  H   H1445     1.0  0.77787  0.97252  0.27133  1.0000
  C   C892      1.0  0.78135  0.87671  0.27064  1.0000
  C   C893      1.0  0.98851  0.80740  0.20054  1.0000
  H   H1446     1.0  0.75782  0.86893  0.25562  1.0000
  S   S371      1.0  0.91233  0.97035  0.99405  1.0000
  H   H1447     1.0  0.99958  0.93620  0.01655  1.0000
  C   C894      1.0  0.85338  0.66946  0.03384  1.0000
  H   H1448     1.0  0.82602  0.85917  0.29562  1.0000
  C   C895      1.0  0.81838  0.72726  0.30020  1.0000
  H   H1449     1.0  0.91405  0.98848  0.15015  1.0000
  H   H1450     1.0  0.96412  0.90799  0.04204  1.0000
  C   C896      1.0  0.76089  0.81558  0.28117  1.0000
  H   H1451     1.0  0.95030  0.93060  0.09397  1.0000
  H   H1452     1.0  0.80407  0.77772  0.31043  1.0000
  H   H1453     1.0  0.97488  0.97596  0.10666  1.0000
  C   C897      1.0  0.96519  0.95755  0.08387  1.0000
  H   H1454     1.0  0.97875  0.69447  0.00973  1.0000
  H   H1455     1.0  0.86928  0.99055  0.18384  1.0000
  C   C898      1.0  0.95467  0.82617  0.30727  1.0000
  H   H1456     1.0  0.77949  0.90871  0.98223  1.0000
  C   C899      1.0  0.96103  0.67059  0.07505  1.0000
  H   H1457     1.0  0.94840  0.68549  0.08293  1.0000
  H   H1458     1.0  0.98521  0.66567  0.26890  1.0000
  S   S372      1.0  0.77785  0.71174  0.38798  1.0000
  H   H1459     1.0  0.99597  0.76568  0.40698  1.0000
  H   H1460     1.0  0.81704  0.77097  0.35195  1.0000
  Fe  Fe186     1.0  0.86216  0.66796  0.39647  1.0000
  S   S373      1.0  0.79738  0.92153  0.41090  1.0000
  C   C900      1.0  0.99688  0.98574  0.63163  1.0000
  C   C901      1.0  0.00092  0.79256  0.40199  1.0000
  C   C902      1.0  0.98463  0.88346  0.35687  1.0000
  C   C903      1.0  0.97144  0.84836  0.36690  1.0000
  C   C904      1.0  0.95686  0.82002  0.34239  1.0000
  H   H1461     1.0  0.92758  0.72832  0.33882  1.0000
  S   S374      1.0  0.83564  0.68841  0.43053  1.0000
  C   C905      1.0  0.95150  0.70665  0.36922  1.0000
  H   H1462     1.0  0.85734  0.75109  0.35710  1.0000
  H   H1463     1.0  0.99484  0.79335  0.37425  1.0000
  C   C906      1.0  0.94931  0.72524  0.34149  1.0000
  C   C907      1.0  0.97581  0.74119  0.31793  1.0000
  H   H1464     1.0  0.80450  0.84194  0.33583  1.0000
  C   C908      1.0  0.84239  0.96091  0.31743  1.0000
  H   H1465     1.0  0.97265  0.84311  0.39390  1.0000
  H   H1466     1.0  0.94888  0.91967  0.61497  1.0000
  C   C909      1.0  0.75271  0.85145  0.32375  1.0000
  Fe  Fe187     1.0  0.79638  0.67169  0.38792  1.0000
  S   S375      1.0  0.91905  0.68772  0.40045  1.0000
  C   C910      1.0  0.88275  0.95599  0.35337  1.0000
  C   C911      1.0  0.85881  0.94273  0.38014  1.0000
  C   C912      1.0  0.82637  0.93820  0.37580  1.0000
  C   C913      1.0  0.81849  0.94773  0.34422  1.0000
  C   C914      1.0  0.87470  0.96501  0.32159  1.0000
  H   H1467     1.0  0.90739  0.95898  0.35729  1.0000
  H   H1468     1.0  0.86549  0.93576  0.40443  1.0000
  H   H1469     1.0  0.82049  0.88695  0.32603  1.0000
  H   H1470     1.0  0.94725  0.79343  0.35069  1.0000
  H   H1471     1.0  0.98297  0.79662  0.41793  1.0000
  C   C915      1.0  0.95985  0.93794  0.59308  1.0000
  C   C916      1.0  0.98158  0.70588  0.37407  1.0000
  H   H1472     1.0  0.94057  0.92866  0.57193  1.0000
  H   H1473     1.0  0.88256  0.75327  0.32084  1.0000
  H   H1474     1.0  0.98416  0.69238  0.39592  1.0000
  H   H1475     1.0  0.79394  0.94498  0.34046  1.0000
  C   C917      1.0  0.98493  0.99767  0.57419  1.0000
  H   H1476     1.0  0.98701  0.91523  0.31442  1.0000
  H   H1477     1.0  0.93076  0.95948  0.64034  1.0000
  C   C918      1.0  0.94195  0.97676  0.61777  1.0000
  H   H1478     1.0  0.92181  0.96873  0.59771  1.0000
  C   C919      1.0  0.82616  0.78160  0.32591  1.0000
  N   N93       1.0  0.97088  0.97454  0.60413  1.0000
  H   H1479     1.0  0.98125  0.93522  0.58329  1.0000
  C   C920      1.0  0.97986  0.88907  0.32225  1.0000
  H   H1480     1.0  0.96591  0.99020  0.55299  1.0000
  H   H1481     1.0  0.88759  0.79296  0.34063  1.0000
  C   C921      1.0  0.86880  0.76549  0.33294  1.0000
  H   H1482     1.0  0.76368  0.87730  0.33772  1.0000
  H   H1483     1.0  0.78437  0.97108  0.64324  1.0000
  H   H1484     1.0  0.75842  0.67614  0.45480  1.0000
  H   H1485     1.0  0.80649  0.71208  0.32370  1.0000
  H   H1486     1.0  0.84371  0.81024  0.32990  1.0000
  C   C922      1.0  0.80814  0.86002  0.31441  1.0000
  H   H1487     1.0  0.88955  0.77194  0.85611  1.0000
  C   C923      1.0  0.83636  0.92673  0.80093  1.0000
  Fe  Fe188     1.0  0.84029  0.69811  0.86989  1.0000
  C   C924      1.0  0.98086  0.93495  0.94176  1.0000
  C   C925      1.0  0.98489  0.90553  0.93599  1.0000
  H   H1488     1.0  0.89804  0.81633  0.85465  1.0000
  S   S376      1.0  0.83432  0.94158  0.93344  1.0000
  H   H1489     1.0  0.77836  0.88681  0.83497  1.0000
  H   H1490     1.0  0.93916  0.83509  0.78920  1.0000
  H   H1491     1.0  0.95185  0.86225  0.82783  1.0000
  N   N94       1.0  0.93775  0.80837  0.83561  1.0000
  S   S377      1.0  0.96554  0.74689  0.89001  1.0000
  S   S378      1.0  0.87540  0.72334  0.91582  1.0000
  H   H1492     1.0  0.93092  0.75644  0.83314  1.0000
  H   H1493     1.0  0.84025  0.95316  0.80814  1.0000
  C   C926      1.0  0.96937  0.74127  0.73981  1.0000
  H   H1494     1.0  0.95644  0.93263  0.93851  1.0000
  H   H1495     1.0  0.98167  0.82261  0.86733  1.0000
  C   C927      1.0  0.78294  0.97607  0.71427  1.0000
  C   C928      1.0  0.79106  0.75692  0.86847  1.0000
  C   C929      1.0  0.79536  0.74428  0.83643  1.0000
  H   H1496     1.0  0.80091  0.75189  0.89181  1.0000
  C   C930      1.0  0.94497  0.96293  0.71730  1.0000
  C   C931      1.0  0.93811  0.71135  0.73229  1.0000
  H   H1497     1.0  0.78240  0.96773  0.74140  1.0000
  H   H1498     1.0  0.95579  0.83968  0.88280  1.0000
  C   C932      1.0  0.94810  0.77939  0.72244  1.0000
  C   C933      1.0  0.91684  0.74947  0.71487  1.0000
  C   C934      1.0  0.91201  0.71558  0.71920  1.0000
  C   C935      1.0  0.76060  0.78273  0.84038  1.0000
  H   H1499     1.0  0.89615  0.75255  0.70592  1.0000
  H   H1500     1.0  0.88779  0.69278  0.71349  1.0000
  C   C936      1.0  0.79635  0.94226  0.93813  1.0000
  H   H1501     1.0  0.82199  0.85393  0.84403  1.0000
  H   H1502     1.0  0.78349  0.95910  0.81402  1.0000
  H   H1503     1.0  0.92770  0.77297  0.79210  1.0000
  S   S379      1.0  0.93165  0.66943  0.74261  1.0000
  H   H1504     1.0  0.85874  0.93082  0.78608  1.0000
  H   H1505     1.0  0.80482  0.97390  0.89347  1.0000
  Fe  Fe189     1.0  0.90941  0.70678  0.88952  1.0000
  C   C937      1.0  0.95521  0.81670  0.86968  1.0000
  C   C938      1.0  0.76503  0.77026  0.80833  1.0000
  C   C939      1.0  0.97455  0.77517  0.73450  1.0000
  H   H1506     1.0  0.83964  0.68267  0.77471  1.0000
  H   H1507     1.0  0.94496  0.93836  0.71795  1.0000
  H   H1508     1.0  0.89087  0.93847  0.71599  1.0000
  N   N95       1.0  0.76156  0.94598  0.69082  1.0000
  C   C940      1.0  0.78237  0.75130  0.80642  1.0000
  H   H1509     1.0  0.96699  0.68464  0.92226  1.0000
  H   H1510     1.0  0.82554  0.67467  0.73030  1.0000
  H   H1511     1.0  0.81427  0.91384  0.78299  1.0000
  H   H1512     1.0  0.96878  0.70919  0.82775  1.0000
  H   H1513     1.0  0.88773  0.78969  0.81550  1.0000
  H   H1514     1.0  0.80459  0.92690  0.85889  1.0000
  H   H1515     1.0  0.96336  0.88061  0.92851  1.0000
  C   C941      1.0  0.98816  0.68496  0.93495  1.0000
  H   H1516     1.0  0.80241  0.93722  0.67827  1.0000
  S   S380      1.0  0.81709  0.72023  0.83202  1.0000
  C   C942      1.0  0.78139  0.98197  0.82025  1.0000
  H   H1517     1.0  0.84788  0.87271  0.80681  1.0000
  C   C943      1.0  0.91399  0.99483  0.71569  1.0000
  H   H1518     1.0  0.80337  0.85615  0.80410  1.0000
  H   H1519     1.0  0.78561  0.74186  0.78143  1.0000
  C   C944      1.0  0.90174  0.79619  0.84069  1.0000
  S   S381      1.0  0.87628  0.68532  0.84236  1.0000
  C   C945      1.0  0.77393  0.77611  0.87036  1.0000
  H   H1520     1.0  0.77463  0.99582  0.71468  1.0000
  H   H1521     1.0  0.86596  0.94983  0.86369  1.0000
  H   H1522     1.0  0.77091  0.78573  0.89533  1.0000
  Fe  Fe190     1.0  0.88342  0.98468  0.95702  1.0000
  S   S382      1.0  0.98880  0.90584  0.67290  1.0000
  Fe  Fe191     1.0  0.85034  0.66929  0.93845  1.0000
  C   C946      1.0  0.75957  0.95829  0.65598  1.0000
  H   H1523     1.0  0.80284  0.68427  0.76253  1.0000
  C   C947      1.0  0.95274  0.84012  0.81444  1.0000
  C   C948      1.0  0.78701  0.95821  0.91288  1.0000
  S   S383      1.0  0.95151  0.82120  0.72153  1.0000
  C   C949      1.0  0.82604  0.87062  0.82119  1.0000
  H   H1524     1.0  0.77695  0.91184  0.71326  1.0000
  C   C950      1.0  0.80173  0.90114  0.85092  1.0000
  H   H1525     1.0  0.97946  0.84893  0.80862  1.0000
  H   H1526     1.0  0.79777  0.88600  0.87495  1.0000
  C   C951      1.0  0.86143  0.92354  0.85482  1.0000
  H   H1527     1.0  0.88441  0.92735  0.84151  1.0000
  H   H1528     1.0  0.85840  0.90839  0.87865  1.0000
  C   C952      1.0  0.91436  0.96308  0.71628  1.0000
  N   N96       1.0  0.83140  0.90551  0.83192  1.0000
  C   C953      1.0  0.77618  0.92280  0.68787  1.0000
  C   C954      1.0  0.94124  0.78045  0.81755  1.0000
  H   H1529     1.0  0.96801  0.78871  0.81272  1.0000
  H   H1530     1.0  0.98957  0.73821  0.75008  1.0000
  H   H1531     1.0  0.99845  0.79797  0.74126  1.0000
  H   H1532     1.0  0.80954  0.98922  0.70638  1.0000
  H   H1533     1.0  0.94264  0.79442  0.88759  1.0000
  C   C955      1.0  0.77267  0.92159  0.96287  1.0000
  Fe  Fe192     1.0  0.99860  0.87179  0.70816  1.0000
  S   S384      1.0  0.87504  0.99407  0.71589  1.0000
  H   H1534     1.0  0.98707  0.96863  0.65437  1.0000
  C   C956      1.0  0.99349  0.73133  0.83316  1.0000
  H   H1535     1.0  0.75513  0.77518  0.78498  1.0000
  C   C957      1.0  0.99837  0.75388  0.86137  1.0000
  C   C958      1.0  0.81689  0.67010  0.75759  1.0000
  C   C959      1.0  0.97550  0.99464  0.71849  1.0000
  H   H1536     1.0  0.76150  0.90046  0.66936  1.0000
  C   C960      1.0  0.75415  0.95256  0.91147  1.0000
