data_image0
_chemical_formula_structural       FeS2FeS2FeSFeS3FeS2FeS2FeSFeS3FeS2FeS2FeSFeS3FeS2FeS2FeSFeS3FeS2FeS2FeSFeS3FeS2FeS2FeSFeS3FeS2FeS2FeSFeS3FeS2FeS2FeSFeS3FeS2FeS2FeSFeS3FeS2FeS2FeSFeS3FeS2FeS2FeSFeS3FeS2FeS2FeSFeS3FeS2FeS2FeSFeS3FeS2FeS2FeSFeS3FeS2FeS2FeSFeS3FeS2FeS2FeSFeS3FeS2FeS2FeSFeS3FeS2FeS2FeSFeS3FeS2FeS2FeSFeS3FeS2FeS2FeSFeS3FeS2FeS2FeSFeS3FeS2FeS2FeSFeS3FeS2FeS2FeSFeS3FeS2FeS2FeSFeS3FeS2FeS2FeSFeS3FeS2FeS2FeSFeS3FeS2FeS2FeSFeS3FeS2FeS2FeSFeS3FeS2FeS2FeSFeS3FeS2FeS2FeSFeS3FeS2FeS2FeSFeS3FeS2FeS2FeSFeS3C6H4C6H4C6H4C6H4C6H4C6H4C6H4C6H4C6H4C6H4C6H4C6H4C6H4C6H4C6H4C6H4C6H4C6H4C6H4C6H4C6H4C6H4C6H4C6H4C6H4C6H4C6H4C6H4C6H4C6H4C6H4C6H4C6H4C6H4C6H4C6H4C6H4C6H4C6H4C6H4C6H4C6H4C6H4C6H4C6H4C6H4C6H4C6H4C6H4C6H4C6H4C6H4C6H4C6H4C6H4C6H4C6H4C6H4C6H4C6H4C6H4C6H4C6H4C6H4NC4H12NC4H12NC4H12NC4H12NC4H12NC4H12NC4H12NC4H12NC4H12NC4H12NC4H12NC4H12NC4H12NC4H12NC4H12NC4H12NC4H12NC4H12NC4H12NC4H12NC4H12NC4H12NC4H12NC4H12NC4H12NC4H12NC4H12NC4H12NC4H12NC4H12NC4H12NC4H12NC4H12NC4H12NC4H12NC4H12NC4H12NC4H12NC4H12NC4H12NC4H12NC4H12NC4H12NC4H12NC4H12NC4H12NC4H12NC4H12NC4H12NC4H12NC4H12NC4H12NC4H12NC4H12NC4H12NC4H12NC4H12NC4H12NC4H12NC4H12NC4H12NC4H12NC4H12NC4H12
_chemical_formula_sum              "Fe128 S256 C640 H1024 N64"
_cell_length_a       36.391662581885555
_cell_length_b       54.44456007270641
_cell_length_c       66.40761688307555
_cell_angle_alpha    89.53063170272948
_cell_angle_beta     89.97422747235485
_cell_angle_gamma    85.94170522677308

_space_group_name_H-M_alt    "P 1"
_space_group_IT_number       1

loop_
  _space_group_symop_operation_xyz
  'x, y, z'

loop_
  _atom_site_type_symbol
  _atom_site_label
  _atom_site_symmetry_multiplicity
  _atom_site_fract_x
  _atom_site_fract_y
  _atom_site_fract_z
  _atom_site_occupancy
  Fe  Fe1       1.0  0.12182873751016852  0.4302388624604936  0.28332307345827396  1.0000
  S   S1        1.0  0.1459885830642057  0.4592011015863441  0.3017289485524059  1.0000
  S   S2        1.0  0.14574270834971914  0.39120293128852607  0.28589381035744066  1.0000
  Fe  Fe2       1.0  0.06185762554442126  0.46601554709774523  0.26659305775824704  1.0000
  S   S3        1.0  0.08217701871121068  0.4980854708014759  0.2835243260868013  1.0000
  S   S4        1.0  0.008858883687127506  0.4718179689515913  0.24907051005085637  1.0000
  Fe  Fe3       1.0  0.13858344779140006  0.4825563233336707  0.2738714467728496  1.0000
  S   S5        1.0  0.18799065878373197  0.5038276198539381  0.2659644136568412  1.0000
  Fe  Fe4       1.0  0.08776914811655037  0.47134014475305036  0.309416846488721  1.0000
  S   S6        1.0  0.07205412056170214  0.4755439154182924  0.3420856301472594  1.0000
  S   S7        1.0  0.11770231508816523  0.4525803917355862  0.25480541910838594  1.0000
  S   S8        1.0  0.06398592963629884  0.44038048206285413  0.2931706227491017  1.0000
  Fe  Fe5       1.0  0.818278258211489  0.3756866879865825  0.18256747761967074  1.0000
  S   S9        1.0  0.773901656615481  0.3701376402852285  0.20536972599345596  1.0000
  S   S10       1.0  0.8103016034510367  0.3771824306281327  0.14882334690910914  1.0000
  Fe  Fe6       1.0  0.8786734009337641  0.37578468941839177  0.21430348536189375  1.0000
  S   S11       1.0  0.8393777902888053  0.3703750571449911  0.23953099069639014  1.0000
  S   S12       1.0  0.9396951131944069  0.3746349981808151  0.22053585453093472  1.0000
  Fe  Fe7       1.0  0.8152789481575009  0.34281495401508816  0.21947294696092606  1.0000
  S   S13       1.0  0.7969339527921717  0.3083335559499975  0.23395655532167312  1.0000
  Fe  Fe8       1.0  0.8018183153045414  0.3982097739896191  0.22326631628468682  1.0000
  S   S14       1.0  0.7739598606939602  0.42814483563992034  0.2421403717987649  1.0000
  S   S15       1.0  0.8575839763870746  0.3458839777105314  0.19532801096383343  1.0000
  S   S16       1.0  0.8432652647159337  0.4060913055817791  0.19938981706113082  1.0000
  Fe  Fe9       1.0  0.33904411131799916  0.4822673423714638  0.18088625059815672  1.0000
  S   S17       1.0  0.35548162001932304  0.5211137277597312  0.17588771902641365  1.0000
  S   S18       1.0  0.2825687081729422  0.47027302127489384  0.18938668521930596  1.0000
  Fe  Fe10      1.0  0.41236220980431704  0.4588561063541114  0.16543212508828659  1.0000
  S   S19       1.0  0.4340675145193655  0.4953720576130321  0.1591554684508275  1.0000
  S   S20       1.0  0.45248603357586187  0.4257658957367761  0.16168204536564362  1.0000
  Fe  Fe11      1.0  0.4100313937923604  0.5063394768974743  0.18901419084942483  1.0000
  S   S21       1.0  0.4514236510480534  0.5254894752351037  0.2074074391136183  1.0000
  Fe  Fe12      1.0  0.378471509043478  0.5067786771303561  0.14644420814919334  1.0000
  S   S22       1.0  0.37685733057049214  0.5238705201884569  0.11519118316924076  1.0000
  S   S23       1.0  0.39181565914592115  0.4688480517399779  0.19638090500433528  1.0000
  S   S24       1.0  0.35840126918547904  0.46894756452321174  0.15035315199636698  1.0000
  Fe  Fe13      1.0  0.40272944931314913  0.6849393382230075  0.026721823696006286  1.0000
  S   S25       1.0  0.3532065619872384  0.6684123122064837  0.040043954407347426  1.0000
  S   S26       1.0  0.4088448731209085  0.7232207703443937  0.014000767261930225  1.0000
  Fe  Fe14      1.0  0.44576735174170906  0.6352924403421343  0.023316147172401047  1.0000
  S   S27       1.0  0.4000774028970525  0.6143009646796331  0.0359833908609275  1.0000
  S   S28       1.0  0.5028017522422994  0.6188642465565201  0.015961688830244736  1.0000
  Fe  Fe15      1.0  0.3626891429269575  0.6391191656930506  0.016676516171939326  1.0000
  S   S29       1.0  0.3120117043186437  0.6243061647435493  0.003029978859431459  1.0000
  Fe  Fe16      1.0  0.3937322968473343  0.6445986791854941  0.05861953938072881  1.0000
  S   S30       1.0  0.3821550800993061  0.6365034144983295  0.09150421389683948  1.0000
  S   S31       1.0  0.4090174267657132  0.6572168370167895  0.0017374750191971877  1.0000
  S   S32       1.0  0.44249147630811225  0.6639317384859932  0.04753661115054841  1.0000
  Fe  Fe17      1.0  0.583577701560602  0.5513674361046893  0.9205898128503639  1.0000
  S   S33       1.0  0.5710202945981739  0.5146181390901133  0.9085631900908284  1.0000
  S   S34       1.0  0.5318138641840718  0.5742509068823055  0.9292472886931032  1.0000
  Fe  Fe18      1.0  0.6651910900292212  0.5425559746488631  0.9098747102283721  1.0000
  S   S35       1.0  0.6580671797043787  0.5049120635601134  0.8974464819787051  1.0000
  S   S36       1.0  0.7174696340400863  0.5627227613291834  0.9070240704097794  1.0000
  Fe  Fe19      1.0  0.6074309670132418  0.5230270996380649  0.8826742642806247  1.0000
  S   S37       1.0  0.5932410093831476  0.5192982491220693  0.849684194497009  1.0000
  Fe  Fe20      1.0  0.6222208986755056  0.500110856965614  0.9248930557598193  1.0000
  S   S38       1.0  0.6130090765308942  0.46403601672110617  0.9411972015372955  1.0000
  S   S39       1.0  0.6165731528654594  0.5608194510254548  0.8934515957667233  1.0000
  S   S40       1.0  0.6329324157164133  0.536713310930606  0.9385373204449584  1.0000
  Fe  Fe21      1.0  0.5514089416657347  0.3819967765790416  0.06816345933336099  1.0000
  S   S41       1.0  0.592558809088487  0.40862969319224796  0.07621175675797473  1.0000
  S   S42       1.0  0.49143650800089894  0.39410808805709824  0.07194084653204445  1.0000
  Fe  Fe22      1.0  0.6099653500122072  0.34265085441769005  0.05612751610473793  1.0000
  S   S43       1.0  0.6563865237139594  0.3665911542203238  0.06315309199631902  1.0000
  S   S44       1.0  0.6235551148812613  0.303960090796508  0.04432284780101848  1.0000
  Fe  Fe23      1.0  0.6236743546413712  0.37644327180217  0.09092516017140324  1.0000
  S   S45       1.0  0.6426800131321554  0.38341513258931614  0.12255702827452208  1.0000
  Fe  Fe24      1.0  0.6216939968010868  0.3972073090894679  0.04767569757686907  1.0000
  S   S46       1.0  0.6469723861710526  0.42929977676129405  0.031733433060911365  1.0000
  S   S47       1.0  0.5798319579584796  0.35033021869599035  0.08512030759325151  1.0000
  S   S48       1.0  0.5777730283044823  0.3725398943447135  0.03827518802294039  1.0000
  Fe  Fe25      1.0  0.9622763589937466  0.5509038795227363  0.8142792078775112  1.0000
  S   S49       1.0  0.9548102856384169  0.5918592837755876  0.8108901717285671  1.0000
  S   S50       1.0  0.0193361037042441  0.537240020261198  0.8044702971466927  1.0000
  Fe  Fe26      1.0  0.886544262868885  0.5484540064536213  0.8345206829026419  1.0000
  S   S51       1.0  0.8742592219346264  0.5893368104210532  0.8325395334250407  1.0000
  S   S52       1.0  0.8468201748588098  0.5232765750783389  0.8488976881642495  1.0000
  Fe  Fe27      1.0  0.8974398927491756  0.5852467344494003  0.8013317034098211  1.0000
  S   S53       1.0  0.8738171109935962  0.6023165425738203  0.7728397295142472  1.0000
  Fe  Fe28      1.0  0.9331576484537301  0.5912302448079075  0.8423590074731265  1.0000
  S   S54       1.0  0.9511678014450372  0.6178985401546762  0.8655526485028056  1.0000
  S   S55       1.0  0.9061576730848534  0.5441164166449048  0.8024076246371329  1.0000
  S   S56       1.0  0.9439310129843077  0.5505703378275019  0.8465815501634885  1.0000
  Fe  Fe29      1.0  0.1658227394774585  0.6794611792897568  0.8987383825547393  1.0000
  S   S57       1.0  0.1799576992638348  0.6460826627475741  0.9179993006596303  1.0000
  S   S58       1.0  0.1481207595434293  0.7144722637638533  0.9148074766853784  1.0000
  Fe  Fe30      1.0  0.18561740698954174  0.6526170728013602  0.8600283599470412  1.0000
  S   S59       1.0  0.2024982234619928  0.6172658295942636  0.8758835072754256  1.0000
  S   S60       1.0  0.18445493576092759  0.6556116155338397  0.826359188169815  1.0000
  Fe  Fe31      1.0  0.15109777813723826  0.625808914999406  0.8940399247029768  1.0000
  S   S61       1.0  0.11343201626734692  0.5953007483208789  0.8987204480605102  1.0000
  Fe  Fe32      1.0  0.22968795241281528  0.6409209285877365  0.8981666291598093  1.0000
  S   S62       1.0  0.2883920988480409  0.6344350508118448  0.9088665016788625  1.0000
  S   S63       1.0  0.13229738352998316  0.6596888500265771  0.8765777689011064  1.0000
  S   S64       1.0  0.21755898562561476  0.6757889982987079  0.8804575591273776  1.0000
  Fe  Fe33      1.0  0.5886619986264936  0.4323756127623587  0.2888695917815295  1.0000
  S   S65       1.0  0.5838000628565511  0.47340294898878443  0.2907808644492216  1.0000
  S   S66       1.0  0.6060662413749484  0.4148778919057439  0.2595149457399929  1.0000
  Fe  Fe34      1.0  0.5589814204764258  0.42599788556005924  0.33123873613642035  1.0000
  S   S67       1.0  0.5521157718738675  0.4666625402539016  0.33675824219178124  1.0000
  S   S68       1.0  0.5407092827581585  0.39687680857289914  0.35255754814699247  1.0000
  Fe  Fe35      1.0  0.5293853922418977  0.468671524167126  0.305301890162473  1.0000
  S   S69       1.0  0.47574186132638213  0.4895958997385287  0.29753974447776665  1.0000
  Fe  Fe36      1.0  0.607706493988442  0.4675555819248646  0.3219082580308461  1.0000
  S   S70       1.0  0.6520249455962666  0.4934141806771818  0.32903717578512925  1.0000
  S   S71       1.0  0.5320626072370453  0.42799327655048086  0.3008926756378837  1.0000
  S   S72       1.0  0.6166587348460999  0.4264733822736151  0.3188076699462444  1.0000
  Fe  Fe37      1.0  0.3083895484432738  0.3754624062504984  0.3543481258002735  1.0000
  S   S73       1.0  0.29823263505003744  0.4075728819973632  0.37484064328475414  1.0000
  S   S74       1.0  0.3067314912913937  0.38483995873185606  0.32144571732532934  1.0000
  Fe  Fe38      1.0  0.3277662988184431  0.34041436187640356  0.3885719240137444  1.0000
  S   S75       1.0  0.32049037910890754  0.3698676526522858  0.41189294064199744  1.0000
  S   S76       1.0  0.34516724332128745  0.30325704121240654  0.40145613274196773  1.0000
  Fe  Fe39      1.0  0.26929469963424585  0.38166465839573105  0.39469807723730077  1.0000
  S   S77       1.0  0.2152132057111693  0.39534312619459017  0.4087812207108304  1.0000
  Fe  Fe40      1.0  0.35007974149224186  0.3929542436418843  0.39011120037595204  1.0000
  S   S78       1.0  0.3900731646179546  0.4207464815135389  0.39865676989167265  1.0000
  S   S79       1.0  0.2742742439912532  0.35058429694222565  0.3726111216200898  1.0000
  S   S80       1.0  0.36244161928986884  0.36246531452081016  0.3682377123006076  1.0000
  Fe  Fe41      1.0  0.07166879150862857  0.5093580028048457  0.6954890353556817  1.0000
  S   S81       1.0  0.08729922455210183  0.547825285173113  0.7011207338159493  1.0000
  S   S82       1.0  0.037274560026112846  0.48987868858106504  0.7179362830421128  1.0000
  Fe  Fe42      1.0  0.10041971697641441  0.5082850191629895  0.6522885711664885  1.0000
  S   S83       1.0  0.11640500280816317  0.5472604833711379  0.6546892727309528  1.0000
  S   S84       1.0  0.11813837563595822  0.4923498677372517  0.6219871697357652  1.0000
  Fe  Fe43      1.0  0.1396727600596553  0.5358992639572067  0.6848901540392522  1.0000
  S   S85       1.0  0.19704303107137439  0.5488459636996945  0.6889200361095271  1.0000
  Fe  Fe44      1.0  0.06286793969557689  0.5553775263643944  0.6705450525421406  1.0000
  S   S86       1.0  0.022642522654690904  0.5884589289818233  0.6668933206347947  1.0000
  S   S87       1.0  0.12638224795996203  0.49638427007178537  0.6818649115988519  1.0000
  S   S88       1.0  0.04435517785878276  0.5175922453725037  0.6655744007620785  1.0000
  Fe  Fe45      1.0  0.08704187386519553  0.3830284881214828  0.5512931113303473  1.0000
  S   S89       1.0  0.035366304751325635  0.3779156269376935  0.5336029526050641  1.0000
  S   S90       1.0  0.08051804431208057  0.3898184646619364  0.5848479656377492  1.0000
  Fe  Fe46      1.0  0.13565491854082448  0.37701436301771385  0.5138183709108811  1.0000
  S   S91       1.0  0.08769930573389015  0.3725829191408097  0.4934515074319503  1.0000
  S   S92       1.0  0.19367212246723733  0.37220351976196125  0.5015890620574123  1.0000
  Fe  Fe47      1.0  0.05930704805320124  0.4032560196045876  0.5111011469124138  1.0000
  S   S93       1.0  0.029807820403784973  0.4382387744109055  0.4992753703919034  1.0000
  Fe  Fe48      1.0  0.068740517116543  0.34735715170887727  0.5177814301834194  1.0000
  S   S94       1.0  0.04921007544781545  0.311164242787389  0.5064254697899078  1.0000
  S   S95       1.0  0.10921863023114589  0.4100229443672057  0.5296059944807846  1.0000
  S   S96       1.0  0.11836428694980708  0.35022402894659804  0.5373758988016981  1.0000
  Fe  Fe49      1.0  0.8661917929257064  0.5264495315874297  0.429296198923535  1.0000
  S   S97       1.0  0.8342573422923945  0.4951796791188635  0.4403123345045722  1.0000
  S   S98       1.0  0.8883050567671419  0.5588124860541651  0.4456372381179007  1.0000
  Fe  Fe50      1.0  0.8797755918917567  0.5037397617646985  0.3880477582474212  1.0000
  S   S99       1.0  0.8491296565675472  0.47048955551424837  0.3951054205791577  1.0000
  S   S100      1.0  0.9050727372884464  0.511282697056976  0.35765478234209447  1.0000
  Fe  Fe51      1.0  0.8071982250297011  0.49673398038770356  0.4097056958007739  1.0000
  S   S101      1.0  0.7478054220260001  0.4866861314784395  0.40920368698430076  1.0000
  Fe  Fe52      1.0  0.8774336928011336  0.47049103855387453  0.42511428117068806  1.0000
  S   S102      1.0  0.8959521586623912  0.43373727304126936  0.4388600805163072  1.0000
  S   S103      1.0  0.8351105306950851  0.5304998326204378  0.3999772207662871  1.0000
  S   S104      1.0  0.9121422780588895  0.5012420504237716  0.416713561155087  1.0000
  Fe  Fe53      1.0  0.91048232030397  0.6257872389954066  0.5721798682043487  1.0000
  S   S105      1.0  0.8507401826923383  0.6181537584635256  0.5732119591546175  1.0000
  S   S106      1.0  0.9578973302905134  0.5980948221012969  0.5787198506766096  1.0000
  Fe  Fe54      1.0  0.8953484903196717  0.6773433587738772  0.555032918110443  1.0000
  S   S107      1.0  0.8343017796320162  0.6738971513837804  0.5537260195845521  1.0000
  S   S108      1.0  0.9280934787549083  0.7105929705564814  0.5497912574716028  1.0000
  Fe  Fe55      1.0  0.8415289279722566  0.6568814929172355  0.5844613268602652  1.0000
  S   S109      1.0  0.8036980617366027  0.6732020238251594  0.6084415639762055  1.0000
  Fe  Fe56      1.0  0.8481819301500534  0.6353963412148151  0.5422944873218378  1.0000
  S   S110      1.0  0.8129000312242555  0.6166128597130708  0.5196757041309531  1.0000
  S   S111      1.0  0.9016539726564285  0.6627671012699249  0.5865409915743928  1.0000
  S   S112      1.0  0.9086579019102143  0.6405579834966926  0.5405151958301273  1.0000
  Fe  Fe57      1.0  0.4057534106323564  0.5629027000482701  0.8010190502185769  1.0000
  S   S113      1.0  0.42303830495153005  0.5957082535261212  0.7838421730353617  1.0000
  S   S114      1.0  0.4270691152991222  0.5566326993777715  0.8326311648454044  1.0000
  Fe  Fe58      1.0  0.3484151028395516  0.5508237480705954  0.769210496270735  1.0000
  S   S115      1.0  0.3615234040424405  0.5827434478770613  0.7495178610521167  1.0000
  S   S116      1.0  0.3008201989974968  0.5267900048820094  0.7643806306716486  1.0000
  Fe  Fe59      1.0  0.42054887884061204  0.5712963550193342  0.7569590112168763  1.0000
  S   S117      1.0  0.46641773106517487  0.5673208310430743  0.7342738252671221  1.0000
  Fe  Fe60      1.0  0.3626090261939551  0.6040459821036674  0.7783509835287962  1.0000
  S   S118      1.0  0.33597266292269434  0.6426257094591906  0.7803265019996761  1.0000
  S   S119      1.0  0.40763279172634265  0.5374623252661173  0.7746155004445905  1.0000
  S   S120      1.0  0.3452530348318764  0.5730547999317103  0.7975004997971943  1.0000
  Fe  Fe61      1.0  0.6871742223181811  0.619175506259979  0.7343756501310553  1.0000
  S   S121      1.0  0.6464990731556857  0.6073099268119375  0.7117111119858015  1.0000
  S   S122      1.0  0.7024324218820707  0.5975648654581184  0.762741612542057  1.0000
  Fe  Fe62      1.0  0.69554353531888  0.6682869225109369  0.7131815837360144  1.0000
  S   S123      1.0  0.654944270542205  0.6609984835392836  0.6890275648520439  1.0000
  S   S124      1.0  0.7278664614926046  0.7018421201050441  0.7115840023596125  1.0000
  Fe  Fe63      1.0  0.6213735384819208  0.6461486737401404  0.7141314453196645  1.0000
  S   S125      1.0  0.5614824800450376  0.6584459426443248  0.7189075159066316  1.0000
  Fe  Fe64      1.0  0.6838649339549994  0.6232094592611244  0.6885866177478214  1.0000
  S   S126      1.0  0.7049809004683737  0.6049873512091302  0.6600468113194673  1.0000
  S   S127      1.0  0.659649596540434  0.6569558830279396  0.7384581044773593  1.0000
  S   S128      1.0  0.7267365708606963  0.6315970106703522  0.711108444255941  1.0000
  Fe  Fe65      1.0  0.3777135891350498  0.9572695795600691  0.8046484040571247  1.0000
  S   S129      1.0  0.3719404514738804  0.9166813760166465  0.807553001998417  1.0000
  S   S130      1.0  0.3940481591990974  0.977495784694753  0.8326154706285488  1.0000
  Fe  Fe66      1.0  0.34859740075837115  0.9585425151654504  0.7611945277003793  1.0000
  S   S131      1.0  0.34295905523165277  0.9178250269604449  0.7605756202474042  1.0000
  S   S132      1.0  0.3248766010753034  0.9845069235122711  0.7369481083667005  1.0000
  Fe  Fe67      1.0  0.3184995885374896  0.9235729820931534  0.7911915818713606  1.0000
  S   S133      1.0  0.26501426545161993  0.9068929936429962  0.7975481777708227  1.0000
  Fe  Fe68      1.0  0.3973179498744373  0.9148915978663835  0.77672986303227  1.0000
  S   S134      1.0  0.44152308510167365  0.8840106066273764  0.7743078713559302  1.0000
  S   S135      1.0  0.3212211780529163  0.9643648803766417  0.791185260982395  1.0000
  S   S136      1.0  0.40606756616029327  0.9553658421878554  0.7745789158633953  1.0000
  Fe  Fe69      1.0  0.6755629138460088  0.8804293469918224  0.7298848176063043  1.0000
  S   S137      1.0  0.6556690591491462  0.8858483127228516  0.6980348871369809  1.0000
  S   S138      1.0  0.6927614897886506  0.9131335695458521  0.7472883570090505  1.0000
  Fe  Fe70      1.0  0.6522142130498503  0.8281706442822541  0.732143901684511  1.0000
  S   S139      1.0  0.629828754912075  0.8291935396593858  0.7007212873620695  1.0000
  S   S140      1.0  0.6467528298579771  0.7948524412438714  0.7517927700466399  1.0000
  Fe  Fe71      1.0  0.6814283272589108  0.8476706531490599  0.6930017969911116  1.0000
  S   S141      1.0  0.7117319800775896  0.8344319965632163  0.6649788166323161  1.0000
  Fe  Fe72      1.0  0.6061482478698448  0.8670089534961124  0.7085136638539337  1.0000
  S   S142      1.0  0.549483625671948  0.883058834462917  0.6999132846880667  1.0000
  S   S143      1.0  0.7058789316084144  0.8437095406186081  0.7240641760050381  1.0000
  S   S144      1.0  0.6240584978469821  0.8644566276288086  0.7407368642360688  1.0000
  Fe  Fe73      1.0  0.907197621352886  0.025587174039166438  0.3951663921524144  1.0000
  S   S145      1.0  0.8733642700005653  0.061331099947215834  0.3979889310682459  1.0000
  S   S146      1.0  0.9372581154622289  0.015472158059205654  0.3664946140753408  1.0000
  Fe  Fe74      1.0  0.8889024068266083  0.008716093751852672  0.43788678705813716  1.0000
  S   S147      1.0  0.8547212834366832  0.04378810446142922  0.4445017681249687  1.0000
  S   S148      1.0  0.9006008773082727  0.9742500563716481  0.45697106454770897  1.0000
  Fe  Fe75      1.0  0.8316826285195601  0.039221446746426025  0.4132662552496341  1.0000
  S   S149      1.0  0.7698656985334316  0.04322303668841965  0.4087499344665034  1.0000
  Fe  Fe76      1.0  0.8995990383338588  0.06274807556608719  0.4285584717403919  1.0000
  S   S150      1.0  0.9254473690662717  0.09840326741974596  0.43461419226913567  1.0000
  S   S151      1.0  0.8631975541312731  0.0030845381287532003  0.407679534935096  1.0000
  S   S152      1.0  0.9360678784953027  0.02811553410188128  0.42469571220834096  1.0000
  Fe  Fe77      1.0  0.9261921725932007  0.8851261416597747  0.574358973006228  1.0000
  S   S153      1.0  0.8864993829495765  0.9167948791431607  0.5821096900173237  1.0000
  S   S154      1.0  0.985858022784315  0.8940436249120294  0.5751748177654458  1.0000
  Fe  Fe78      1.0  0.8657589168799543  0.8512163436507231  0.5659747226044682  1.0000
  S   S155      1.0  0.8212746731266003  0.8807789746458318  0.5728528646528284  1.0000
  S   S156      1.0  0.8410777971442264  0.8152891843575184  0.5585689731350781  1.0000
  Fe  Fe79      1.0  0.854739675929211  0.9063147412410312  0.5550367846741289  1.0000
  S   S157      1.0  0.826736757009006  0.9387878101264456  0.5378550060844867  1.0000
  Fe  Fe80      1.0  0.8561728482208131  0.8890546888396139  0.5992344159816186  1.0000
  S   S158      1.0  0.8315979388851127  0.9011641054085452  0.6290040004794557  1.0000
  S   S159      1.0  0.8966610066199839  0.8762153619704828  0.5456962829904175  1.0000
  S   S160      1.0  0.8986008344109465  0.857847752960298  0.5939208697863411  1.0000
  Fe  Fe81      1.0  0.1455512574593919  0.9753203599689185  0.6765934019235184  1.0000
  S   S161      1.0  0.13244757810314475  0.013962238015263305  0.6872867765624134  1.0000
  S   S162      1.0  0.1973995020055369  0.9502074994767478  0.6803449626318004  1.0000
  Fe  Fe82      1.0  0.06635154960405279  0.9679640877370577  0.6649736547976841  1.0000
  S   S163      1.0  0.04621888537728558  0.005810349543655226  0.6745909969889174  1.0000
  S   S164      1.0  0.02645633929193525  0.9389719176699248  0.6591740999699244  1.0000
  Fe  Fe83      1.0  0.09699721567785921  0.01830995582743467  0.6594231253160209  1.0000
  S   S165      1.0  0.08573605954493113  0.05586224782747825  0.644864327898555  1.0000
  Fe  Fe84      1.0  0.08243267298296339  0.9992614339072925  0.7015238705411615  1.0000
  S   S166      1.0  0.06539031081853297  0.00949173234376244  0.7331709073270556  1.0000
  S   S167      1.0  0.1142693664029963  0.9806507276359856  0.6472543456286401  1.0000
  S   S168      1.0  0.09852053056460583  0.9604694585095247  0.6933411395950304  1.0000
  Fe  Fe85      1.0  0.032654352873992265  0.13517587793230124  0.5221727882124761  1.0000
  S   S169      1.0  0.07357133429055933  0.1049917558643416  0.5127017403304491  1.0000
  S   S170      1.0  0.9729952638153205  0.12717531256857292  0.5223694950095514  1.0000
  Fe  Fe86      1.0  0.0911433528926901  0.17045634435835672  0.5307567633170666  1.0000
  S   S171      1.0  0.13717856197125763  0.1428126686872909  0.5221173815030397  1.0000
  S   S172      1.0  0.1043467275059895  0.20717518470565985  0.5437864341774823  1.0000
  Fe  Fe87      1.0  0.10074286789105424  0.13466572008802571  0.4960840369485471  1.0000
  S   S173      1.0  0.11870863765547976  0.12507063149788714  0.46439823604351516  1.0000
  Fe  Fe88      1.0  0.10622201849388466  0.11530592075212602  0.5395235875847922  1.0000
  S   S174      1.0  0.13677862846125677  0.08374545788669513  0.5563778750367809  1.0000
  S   S175      1.0  0.05682698763013092  0.1644011307163017  0.5032998783459927  1.0000
  S   S176      1.0  0.06300471965555446  0.14350841644770537  0.5504482260361088  1.0000
  Fe  Fe89      1.0  0.5611693832160898  0.06715100255843491  0.3276342916958097  1.0000
  S   S177      1.0  0.59383606970612  0.04127568232055001  0.3069666205988655  1.0000
  S   S178      1.0  0.5159432178371585  0.05552387247406747  0.34771173774198766  1.0000
  Fe  Fe90      1.0  0.5988242662441567  0.1116633340583134  0.3138342000237203  1.0000
  S   S179      1.0  0.6343203477173059  0.08986007707436028  0.2920895332396167  1.0000
  S   S180      1.0  0.6039348429225928  0.15193169805367415  0.3188666533006987  1.0000
  Fe  Fe91      1.0  0.5831024042170668  0.0715964558010691  0.2841409066051961  1.0000
  S   S181      1.0  0.5691648288303746  0.06658806845060772  0.2513550624112599  1.0000
  Fe  Fe92      1.0  0.6421797690490992  0.06187337295518702  0.3168874540449948  1.0000
  S   S182      1.0  0.7016267511762324  0.0470344143342567  0.320530015470075  1.0000
  S   S183      1.0  0.5467212086144374  0.09584967515108804  0.3040215236035912  1.0000
  S   S184      1.0  0.6102419472201639  0.08519489292916287  0.33945251008054456  1.0000
  Fe  Fe93      1.0  0.31341983973266585  0.11933269830229042  0.37603371460068113  1.0000
  S   S185      1.0  0.34647784678352606  0.11370255698190011  0.4044259331600785  1.0000
  S   S186      1.0  0.299232144928552  0.08810901654212873  0.3564297459777024  1.0000
  Fe  Fe94      1.0  0.30757475948886415  0.17483264846532418  0.3789876087733384  1.0000
  S   S187      1.0  0.34074776197395334  0.17422065770331943  0.4073858555902359  1.0000
  S   S188      1.0  0.2860026233552743  0.20904103113326988  0.3623309294011602  1.0000
  Fe  Fe95      1.0  0.3772963521073922  0.14499269176288332  0.39255988942479725  1.0000
  S   S189      1.0  0.43840307797065026  0.14798189553755997  0.3912114816283813  1.0000
  Fe  Fe96      1.0  0.30661850299937526  0.1432986425951176  0.41670943764076634  1.0000
  S   S190      1.0  0.2851691964097685  0.14422319311382548  0.4484959485296851  1.0000
  S   S191      1.0  0.3473920659778119  0.14825428024852833  0.3631946231318757  1.0000
  S   S192      1.0  0.27046301251431104  0.1460781717215001  0.38930050474133926  1.0000
  Fe  Fe97      1.0  0.8577342578388192  0.9344745773512463  0.8087302738386883  1.0000
  S   S193      1.0  0.8314780041823233  0.9691668796308773  0.7952007958431591  1.0000
  S   S194      1.0  0.8360208524467244  0.8980545243378927  0.8008214707048908  1.0000
  Fe  Fe98      1.0  0.9163707883463991  0.961727007680619  0.8299634998902866  1.0000
  S   S195      1.0  0.8941896144308695  0.9983822193288747  0.8175319040725234  1.0000
  S   S196      1.0  0.9655529812973889  0.9648410524082236  0.8501402974618258  1.0000
  Fe  Fe99      1.0  0.8389675873275038  0.9851517916722679  0.8257312088482234  1.0000
  S   S197      1.0  0.7941615216700856  0.010327455791189433  0.8398706688541823  1.0000
  Fe  Fe100     1.0  0.8893096943514489  0.9782104987351228  0.7884793832680176  1.0000
  S   S198      1.0  0.9012836748263054  0.9889028982504132  0.7564056044303064  1.0000
  S   S199      1.0  0.8614159276968293  0.9497059373732328  0.8399178370126132  1.0000
  S   S200      1.0  0.9154294290937001  0.9424883624646823  0.8002144450488814  1.0000
  Fe  Fe101     1.0  0.1666700136530506  0.8711498384396781  0.931349837134179  1.0000
  S   S201      1.0  0.2076213767537284  0.8704061975442923  0.9061536833217421  1.0000
  S   S202      1.0  0.18323759602793144  0.8694841704367317  0.9641100587195555  1.0000
  Fe  Fe102     1.0  0.1012755286590742  0.8759579550619201  0.9023431074085562  1.0000
  S   S203      1.0  0.13768329874584126  0.875975663993245  0.8750875486682826  1.0000
  S   S204      1.0  0.0401987180778034  0.8735717654612833  0.8980124920883142  1.0000
  Fe  Fe103     1.0  0.1707322947891859  0.8453555322569895  0.8908824994075096  1.0000
  S   S205      1.0  0.19334163666478235  0.8124907214619361  0.873197252130671  1.0000
  Fe  Fe104     1.0  0.17082291897911112  0.9011248459007685  0.8932126582840902  1.0000
  S   S206      1.0  0.20046886806622805  0.9337467480632274  0.8829811225795104  1.0000
  S   S207      1.0  0.13211679957107583  0.8435809299800577  0.9170797426795675  1.0000
  S   S208      1.0  0.13178040571711377  0.9037043592777426  0.9193572274181463  1.0000
  Fe  Fe105     1.0  0.3789711473806613  0.04191785980915963  0.2087186426621645  1.0000
  S   S209      1.0  0.3437581594197879  0.07278712023321032  0.1944992838067445  1.0000
  S   S210      1.0  0.40033936786129654  0.0473475578566267  0.24029077163521365  1.0000
  Fe  Fe106     1.0  0.369698745580573  0.00790611470270286  0.1729909169771964  1.0000
  S   S211      1.0  0.33332723182605595  0.03612611526899756  0.1563415355022093  1.0000
  S   S212      1.0  0.3928083247931085  0.9722813467908866  0.15890912107873098  1.0000
  Fe  Fe107     1.0  0.3740026064654481  0.06269175222710244  0.16604500352355464  1.0000
  S   S213      1.0  0.3892441698760527  0.09107056255048696  0.1431472490550093  1.0000
  Fe  Fe108     1.0  0.3061312932713146  0.04354393251784194  0.18627849027951546  1.0000
  S   S214      1.0  0.24528370470384595  0.05499301384902755  0.18743423467285886  1.0000
  S   S215      1.0  0.4124921259471131  0.03409488465260413  0.18085515042672906  1.0000
  S   S216      1.0  0.33914576725036344  0.013013410544817416  0.202457889746244  1.0000
  Fe  Fe109     1.0  0.3704953525933261  0.9130673251880783  0.053153439168816416  1.0000
  S   S217      1.0  0.42278528127707166  0.8914716971565265  0.061859689556805764  1.0000
  S   S218      1.0  0.33589368913620005  0.9381602284007261  0.07393274266336762  1.0000
  Fe  Fe110     1.0  0.37202477056293637  0.8918934267025035  0.010632823685039927  1.0000
  S   S219      1.0  0.42434763923202085  0.8683230178354204  0.01627690779696267  1.0000
  S   S220      1.0  0.34833287438480814  0.892567531223344  0.9792640712260822  1.0000
  Fe  Fe111     1.0  0.3987011313796584  0.8597798051164044  0.046118499018635184  1.0000
  S   S221      1.0  0.3963529514257636  0.8234909980185282  0.06304748108191527  1.0000
  Fe  Fe112     1.0  0.44297032035323847  0.9021426063912967  0.03128929490648469  1.0000
  S   S222      1.0  0.4982163280599646  0.9176287286814034  0.026704454801878663  1.0000
  S   S223      1.0  0.34483649781021164  0.8808501005131544  0.03924469943021536  1.0000
  S   S224      1.0  0.392409550532991  0.926277288908687  0.023692412414736186  1.0000
  Fe  Fe113     1.0  0.578893502791815  0.024581824461830108  0.9282983008873845  1.0000
  S   S225      1.0  0.6059654952671751  0.9905022433578282  0.9428624277856711  1.0000
  S   S226      1.0  0.5573486036127074  0.05829112085246635  0.9460032598935303  1.0000
  Fe  Fe114     1.0  0.5730887458820397  0.9995380546065423  0.8869293957754341  1.0000
  S   S227      1.0  0.5995108554727875  0.9641237248006227  0.8989120309779192  1.0000
  S   S228      1.0  0.5599498556436258  0.9962401747090892  0.8536983674371934  1.0000
  Fe  Fe115     1.0  0.5638000179933836  0.970638107422182  0.9259507909422195  1.0000
  S   S229      1.0  0.5248855462491601  0.9422236062275908  0.9349422780618507  1.0000
  Fe  Fe116     1.0  0.6391986667203934  0.9875148883473467  0.9141446482330734  1.0000
  S   S230      1.0  0.699121696219834  0.9734631309586798  0.9127008710536578  1.0000
  S   S231      1.0  0.5345007773506487  0.0046326775064500225  0.9130715216392121  1.0000
  S   S232      1.0  0.6151468814965595  0.022988604313934236  0.900531491377612  1.0000
  Fe  Fe117     1.0  0.5730138535322884  0.12231082336961992  0.09539049826678658  1.0000
  S   S233      1.0  0.6263403983355186  0.10846022327047797  0.08164593371844578  1.0000
  S   S234      1.0  0.5571423426642239  0.09809908332392261  0.12126579154877773  1.0000
  Fe  Fe118     1.0  0.5721688611723963  0.1701477720916108  0.0710618048206118  1.0000
  S   S235      1.0  0.6255772162397187  0.15958121212203003  0.05534229892729359  1.0000
  S   S236      1.0  0.5439570231247155  0.2086824994837854  0.07090459413097148  1.0000
  Fe  Fe119     1.0  0.6031723336050923  0.12211270760815249  0.05193281492126944  1.0000
  S   S237      1.0  0.6247155247129612  0.09426172324833199  0.028454321921761894  1.0000
  Fe  Fe120     1.0  0.6442421513776724  0.1462650164338565  0.08586054458729478  1.0000
  S   S238      1.0  0.6990315795533365  0.15392267828127368  0.09891162487500607  1.0000
  S   S239      1.0  0.5474882190504144  0.13351840919212132  0.06548176944337211  1.0000
  S   S240      1.0  0.5928980426392608  0.15931507468935957  0.10190005759597545  1.0000
  Fe  Fe121     1.0  0.11207201532163158  0.0610977159608066  0.2728338322132997  1.0000
  S   S241      1.0  0.11592384715313102  0.09837120892242743  0.2586280102018356  1.0000
  S   S242      1.0  0.13621366077819572  0.027046677272204  0.25716563004283177  1.0000
  Fe  Fe122     1.0  0.0844245882104087  0.08207969916532787  0.3130186596924831  1.0000
  S   S243      1.0  0.08720331020564762  0.12071753183584297  0.30176390387437024  1.0000
  S   S244      1.0  0.06910822429679908  0.08075498417860305  0.34597548375598297  1.0000
  Fe  Fe123     1.0  0.06138322749448779  0.10747696936749353  0.2736356224868758  1.0000
  S   S245      1.0  0.016641926498003997  0.1342557811278034  0.26138453101625564  1.0000
  Fe  Fe124     1.0  0.14105937558087495  0.10780850625179673  0.2879959910794531  1.0000
  S   S246      1.0  0.190021239998556  0.13068625757154723  0.2896837234613628  1.0000
  S   S247      1.0  0.05483251357626863  0.06929189361562371  0.28567259332055556  1.0000
  S   S248      1.0  0.14059550607886437  0.07013036814077012  0.3015265980486318  1.0000
  Fe  Fe125     1.0  0.7451595001917395  0.13969105286447864  0.20823527750746068  1.0000
  S   S249      1.0  0.7413210327620421  0.18022865226497023  0.21453469832467767  1.0000
  S   S250      1.0  0.7014110475476274  0.12159658354299348  0.1907991733768669  1.0000
  Fe  Fe126     1.0  0.817415567617194  0.12998012937009817  0.2307641003997315  1.0000
  S   S251      1.0  0.8199926173307678  0.16960440375355265  0.23889221541609373  1.0000
  S   S252      1.0  0.8598904795101434  0.09935178137708936  0.23908989910615752  1.0000
  Fe  Fe127     1.0  0.7599078536300593  0.16883901977808446  0.24564192880654256  1.0000
  S   S253      1.0  0.741579991313039  0.18897934041432168  0.2736098841952799  1.0000
  Fe  Fe128     1.0  0.8016132461462006  0.17766939807525894  0.20728617848757108  1.0000
  S   S254      1.0  0.8284591640025903  0.2066763341279887  0.18945427129684897  1.0000
  S   S255      1.0  0.7584198485577488  0.12833194830659073  0.24019793518425406  1.0000
  S   S256      1.0  0.8042016730443683  0.13796618619385526  0.198271088386004  1.0000
  C   C1        1.0  0.9734750673271086  0.12363224787259292  0.2558573244783793  1.0000
  C   C2        1.0  0.9425622589854868  0.14040478664991338  0.25645974265381144  1.0000
  C   C3        1.0  0.9077586871346176  0.13299589774811077  0.25132957193523403  1.0000
  C   C4        1.0  0.9035545352015381  0.10876453849292397  0.24550140382323027  1.0000
  C   C5        1.0  0.934381305497905  0.09174976493018105  0.2453598856053693  1.0000
  C   C6        1.0  0.9693922511823183  0.09917724343947619  0.25053401883401144  1.0000
  H   H1        1.0  0.9455107117983813  0.15918552081629686  0.2610726645194475  1.0000
  H   H2        1.0  0.8841430081684418  0.1459483253191968  0.25235651376818463  1.0000
  H   H3        1.0  0.9312649289076328  0.07289612126613995  0.24099594071704528  1.0000
  H   H4        1.0  0.9932613754744296  0.08614912683043079  0.24999205990902135  1.0000
  C   C7        1.0  0.7003429283283517  0.1446026334232699  0.12435081196112562  1.0000
  C   C8        1.0  0.6749978576066914  0.12856575692296635  0.13169504099401635  1.0000
  C   C9        1.0  0.6760250676973465  0.12115632116429469  0.15197781528189883  1.0000
  C   C10       1.0  0.7016175415366356  0.13032464489556186  0.1652004953587944  1.0000
  C   C11       1.0  0.7268014848990585  0.14653249624988138  0.1578932104823441  1.0000
  C   C12       1.0  0.7264857827246275  0.15339857830738557  0.1374387090737259  1.0000
  H   H5        1.0  0.6547710483174173  0.12158580289944483  0.12174330629195883  1.0000
  H   H6        1.0  0.6569358456392214  0.10829254393407382  0.15736276963670245  1.0000
  H   H7        1.0  0.7465433559107032  0.1538237978515071  0.16798499725997207  1.0000
  H   H8        1.0  0.7462703551887084  0.16573315761451707  0.1318798610824718  1.0000
  C   C13       1.0  0.5759469024525015  0.06776507054839133  0.9691239281617122  1.0000
  C   C14       1.0  0.5577737089635616  0.08738503213918176  0.9796627012364263  1.0000
  C   C15       1.0  0.5718024411435579  0.0954930426769679  0.9980698385028318  1.0000
  C   C16       1.0  0.6043710134432667  0.08413276575470582  0.005998487345184822  1.0000
  C   C17       1.0  0.6222183098842052  0.0642935298440789  0.9955844682219412  1.0000
  C   C18       1.0  0.6080225396154636  0.056052039399589415  0.9773023549768808  1.0000
  H   H9        1.0  0.532946441279837  0.09657723727455146  0.9734303499718925  1.0000
  H   H10       1.0  0.5578679025061727  0.11083834774021302  0.005872977889490594  1.0000
  H   H11       1.0  0.6474282391967208  0.05537745859665496  0.001574212799995367  1.0000
  H   H12       1.0  0.6223031507147356  0.04095673712829559  0.9693515485546046  1.0000
  C   C19       1.0  0.5064807073982218  0.9237193214635173  0.0011687857185196382  1.0000
  C   C20       1.0  0.5395412917014827  0.9334205881609324  0.9952184016478125  1.0000
  C   C21       1.0  0.54570152874099  0.9391079760548846  0.9748584466042796  1.0000
  C   C22       1.0  0.5187824700142136  0.9350496382141145  0.9604745065526394  1.0000
  C   C23       1.0  0.4860084064611664  0.925077039601484  0.9664129851312903  1.0000
  C   C24       1.0  0.4797626227830438  0.9195615768754745  0.9867207186271796  1.0000
  H   H13       1.0  0.5603997653708809  0.9364196970444462  0.006364809263287086  1.0000
  H   H14       1.0  0.5714067087921517  0.9462855444966919  0.970265230778073  1.0000
  H   H15       1.0  0.4651817942003236  0.921741852791541  0.9553430099370582  1.0000
  H   H16       1.0  0.4542419650763529  0.9120220743932939  0.9911765128585097  1.0000
  C   C25       1.0  0.21480959906032268  0.0454118121186724  0.20609834740859015  1.0000
  C   C26       1.0  0.22370373112436065  0.025261366316500444  0.21886428733377455  1.0000
  C   C27       1.0  0.19897081409120407  0.01916038584815638  0.23416844778049  1.0000
  C   C28       1.0  0.16571848108372136  0.03347649256401719  0.2369961076603998  1.0000
  C   C29       1.0  0.15673304837805618  0.05329843920643529  0.2239806172537574  1.0000
  C   C30       1.0  0.18102819017560504  0.05910524100767778  0.2085229015822226  1.0000
  H   H17       1.0  0.24949718962782094  0.014392203746453669  0.21693172781464692  1.0000
  H   H18       1.0  0.20590595684143684  0.0036504828053891547  0.24407756908545553  1.0000
  H   H19       1.0  0.13076916214197448  0.06399282823010809  0.2256484395483466  1.0000
  H   H20       1.0  0.17380708155771357  0.07452688183996321  0.198565439311373  1.0000
  C   C31       1.0  0.43600809384263023  0.09315604178597778  0.1373461949627492  1.0000
  C   C32       1.0  0.46350626469920897  0.07924712259729909  0.14792227787864315  1.0000
  C   C33       1.0  0.5005613639807351  0.08056383484778694  0.14254148855217547  1.0000
  C   C34       1.0  0.5103445393536207  0.09609692856447295  0.12678815118530995  1.0000
  C   C35       1.0  0.48294753578803123  0.11007356879656731  0.11620685330832757  1.0000
  C   C36       1.0  0.44578321911388896  0.10854113103967909  0.12146933087218267  1.0000
  H   H21       1.0  0.45631483312106474  0.0675731858896303  0.1603010590283805  1.0000
  H   H22       1.0  0.5217231229856617  0.06969480776375199  0.15074513026290667  1.0000
  H   H23       1.0  0.49037527222844307  0.12218767339858352  0.10409558545228437  1.0000
  H   H24       1.0  0.4245617413644121  0.1193931999038227  0.11328109320141741  1.0000
  C   C37       1.0  0.3770910589654084  0.9635868276042012  0.1350670816462952  1.0000
  C   C38       1.0  0.34245187744505523  0.9721701336528636  0.12778852162423393  1.0000
  C   C39       1.0  0.3303273502375188  0.964367000025918  0.10893510353832651  1.0000
  C   C40       1.0  0.35300227948810214  0.9483730176955404  0.09705243877905306  1.0000
  C   C41       1.0  0.38811090054760977  0.9403994168719887  0.10407779569722005  1.0000
  C   C42       1.0  0.3998505484009065  0.9476859352906729  0.12315600990639625  1.0000
  H   H25       1.0  0.3246039710610209  0.9843116663648415  0.13690921118293486  1.0000
  H   H26       1.0  0.30312718602208577  0.9706341569581137  0.10360850924989652  1.0000
  H   H27       1.0  0.40616479668294964  0.9284756080884129  0.09493436273862668  1.0000
  H   H28       1.0  0.4267879022854598  0.9411120481829836  0.12867175392432162  1.0000
  C   C43       1.0  0.2302117506307715  0.8724131393116693  0.9692612165907666  1.0000
  C   C44       1.0  0.24116365213364258  0.8794630600934134  0.9885028167476729  1.0000
  C   C45       1.0  0.27790779435617696  0.8847035108804566  0.9921027416441814  1.0000
  C   C46       1.0  0.3036484450144176  0.8829078208374254  0.9764213999962592  1.0000
  C   C47       1.0  0.29299058059792715  0.874849289084187  0.9575007376804859  1.0000
  C   C48       1.0  0.25652669082710344  0.8693976081673566  0.9540083262171761  1.0000
  H   H29       1.0  0.22100254809113726  0.8816372998725155  0.0004536983649343629  1.0000
  H   H30       1.0  0.285949985020749  0.8909589747853555  0.006759086105063927  1.0000
  H   H31       1.0  0.313003912302362  0.8729729068195595  0.9454593956917726  1.0000
  H   H32       1.0  0.24897752804634332  0.8627352872527118  0.9395357476840164  1.0000
  C   C49       1.0  0.9862201494133144  0.9387042862402374  0.8624498118215262  1.0000
  C   C50       1.0  0.9678259599480503  0.9171499645195313  0.8648068361968438  1.0000
  C   C51       1.0  0.9844238302321431  0.8971768097721061  0.8758534010222131  1.0000
  C   C52       1.0  0.019691467594888268  0.8985543590697034  0.88414074059277  1.0000
  C   C53       1.0  0.03824135271415696  0.9199441071338997  0.8814464703043895  1.0000
  C   C54       1.0  0.02132998886672377  0.9400671767619422  0.8708464675830873  1.0000
  H   H33       1.0  0.9407354576116415  0.9159748288482564  0.8583392854452441  1.0000
  H   H34       1.0  0.9700148373310473  0.8806309383782788  0.8778918178363336  1.0000
  H   H35       1.0  0.06542544742523115  0.9211453128783148  0.8877838426807975  1.0000
  H   H36       1.0  0.035620094348067344  0.9567174748363997  0.8690535207559906  1.0000
  C   C55       1.0  0.769452843885031  0.0003603897125545874  0.8609046626955413  1.0000
  C   C56       1.0  0.7400969590588328  0.0156571202558391  0.8684584293085916  1.0000
  C   C57       1.0  0.7183889818701851  0.0076348934406189626  0.8843911219060394  1.0000
  C   C58       1.0  0.7263612972912508  0.9844155722870762  0.8931178100705022  1.0000
  C   C59       1.0  0.7562804456898289  0.9693520925679064  0.8858997301239352  1.0000
  C   C60       1.0  0.7774617732554184  0.9771554551232127  0.869674394606181  1.0000
  H   H37       1.0  0.7337606011932966  0.03366294807502605  0.861778169010137  1.0000
  H   H38       1.0  0.6957005423283522  0.01951790933773001  0.8900327147069352  1.0000
  H   H39       1.0  0.7624396175316981  0.9513142907258165  0.8925540868053212  1.0000
  H   H40       1.0  0.7995045910640873  0.9650289925177669  0.8638047583487983  1.0000
  C   C61       1.0  0.27308072656469323  0.09951291954966242  0.33590193862538964  1.0000
  C   C62       1.0  0.25365586665152123  0.08346059289379572  0.32433367519437056  1.0000
  C   C63       1.0  0.22896838571387965  0.09288152871226707  0.3095452851896031  1.0000
  C   C64       1.0  0.22421252734452574  0.1182732358525831  0.3060811610582332  1.0000
  C   C65       1.0  0.24582353913669763  0.1341058509407425  0.3165490540741994  1.0000
  C   C66       1.0  0.2698381053707647  0.12477233433221444  0.33167313244100166  1.0000
  H   H41       1.0  0.2563859877241628  0.06385920819584345  0.3274369842360924  1.0000
  H   H42       1.0  0.21338129189090987  0.0804629586586137  0.30104696222172406  1.0000
  H   H43       1.0  0.24256512926202498  0.1537680752764345  0.3137487997750315  1.0000
  H   H44       1.0  0.2847624466935394  0.13732583872386855  0.3404763030472939  1.0000
  C   C67       1.0  0.6389084554832717  0.16396007420744352  0.3044360034531033  1.0000
  C   C68       1.0  0.6563740228124065  0.1841540444193043  0.31170446363064686  1.0000
  C   C69       1.0  0.6873298408640948  0.19216476830291915  0.30175801018123755  1.0000
  C   C70       1.0  0.7007688792386416  0.18008979101237083  0.28446171215157895  1.0000
  C   C71       1.0  0.6823284278040497  0.16062793879692194  0.27661000912532624  1.0000
  C   C72       1.0  0.6512104645869363  0.15268447227616025  0.28655056648237914  1.0000
  H   H45       1.0  0.6465808373099214  0.1931950282903177  0.32533611432086834  1.0000
  H   H46       1.0  0.7013213621737641  0.20744848148673317  0.3076708869727213  1.0000
  H   H47       1.0  0.6920534500619673  0.15173532438329293  0.2629282667711169  1.0000
  H   H48       1.0  0.6364649802617558  0.13812522739735125  0.28021133895984046  1.0000
  C   C73       1.0  0.5226159850798696  0.060355864520940106  0.2480921491093195  1.0000
  C   C74       1.0  0.5070490304420918  0.0607797910184984  0.22874620770246445  1.0000
  C   C75       1.0  0.46961075803662766  0.05665465912544887  0.2261245984184585  1.0000
  C   C76       1.0  0.44774104430285616  0.051650371977566056  0.24280871922716457  1.0000
  C   C77       1.0  0.4636151865984003  0.05061986176495026  0.26205332848153584  1.0000
  C   C78       1.0  0.5007963734114974  0.05518425612936517  0.2647348469669637  1.0000
  H   H49       1.0  0.5238131974082112  0.06435229483294314  0.21576927984199779  1.0000
  H   H50       1.0  0.45765651748432024  0.05748344753013557  0.21123134480845585  1.0000
  H   H51       1.0  0.4472056326127686  0.04596582035545005  0.27489658406034095  1.0000
  H   H52       1.0  0.5127269317809464  0.054296961282582774  0.2796579872425653  1.0000
  C   C79       1.0  0.49586658024941044  0.08085222277703416  0.36090152887781846  1.0000
  C   C80       1.0  0.5102689267325253  0.10393143395236207  0.35915723701419794  1.0000
  C   C81       1.0  0.49305100234225574  0.12436467886762935  0.36896305935041174  1.0000
  C   C82       1.0  0.46084506319739793  0.12191972938472906  0.3801082103981564  1.0000
  C   C83       1.0  0.4463247122273499  0.09887046342234466  0.3818077052928128  1.0000
  C   C84       1.0  0.4641244889264537  0.0782805513274516  0.3724475235026125  1.0000
  H   H53       1.0  0.5346691408159285  0.10611436356428984  0.35024218271886026  1.0000
  H   H54       1.0  0.5043713876062659  0.14214876285061614  0.3675908963087124  1.0000
  H   H55       1.0  0.42167188017547647  0.0968164904038394  0.3905498305146171  1.0000
  H   H56       1.0  0.45299183397774134  0.060442788359845394  0.37392122814575945  1.0000
  C   C85       1.0  0.16382425019859612  0.13238872358377904  0.4587669056911782  1.0000
  C   C86       1.0  0.18244299963833782  0.14754201025304975  0.4715326112163473  1.0000
  C   C87       1.0  0.21946144500237322  0.15163070830297806  0.46788910693560953  1.0000
  C   C88       1.0  0.23783634783464944  0.14094323791199714  0.45126452076296303  1.0000
  C   C89       1.0  0.21879731068441394  0.12661494360365805  0.43794379049386883  1.0000
  C   C90       1.0  0.18179360317691026  0.12226918013133595  0.44174544807312766  1.0000
  H   H57       1.0  0.1684259209969169  0.15608471860171483  0.48427028626595126  1.0000
  H   H58       1.0  0.23402386714683782  0.16297803347633766  0.4780538129604437  1.0000
  H   H59       1.0  0.2330196071415895  0.11818074837108322  0.42517383816795773  1.0000
  H   H60       1.0  0.1674494275094548  0.11056972610581885  0.43180223261351613  1.0000
  C   C91       1.0  0.0993284763558971  0.06263272485066501  0.6199575758337508  1.0000
  C   C92       1.0  0.12403511453730753  0.046829934226049724  0.6092089678903079  1.0000
  C   C93       1.0  0.13524596416681317  0.05343578240487434  0.589695588735058  1.0000
  C   C94       1.0  0.12141215794087702  0.07565550103362957  0.5806927369965109  1.0000
  C   C95       1.0  0.0963076130326026  0.09123498266552149  0.5913516198948503  1.0000
  C   C96       1.0  0.0855484490741262  0.08482336981733957  0.6109428610455404  1.0000
  H   H61       1.0  0.1349694613800848  0.02975574936416393  0.6160498079072838  1.0000
  H   H62       1.0  0.15474401168879853  0.04130290167382224  0.5815835352222641  1.0000
  H   H63       1.0  0.0856411623192496  0.10843645387630772  0.584663791280076  1.0000
  H   H64       1.0  0.0665334733018255  0.09717925211889049  0.6191674121422659  1.0000
  C   C97       1.0  0.020568330445352112  0.0019844258077146306  0.7398828468162532  1.0000
  C   C98       1.0  0.9960167570877294  0.9946376104887037  0.7252744450156328  1.0000
  C   C99       1.0  0.9595135492536327  0.9906619724073409  0.7305195139185869  1.0000
  C   C100      1.0  0.9476321282329055  0.9931584361775608  0.7505280854618392  1.0000
  C   C101      1.0  0.9724849740832435  0.9996577631099917  0.765304921366805  1.0000
  C   C102      1.0  0.008740015629215003  0.0044062855665805145  0.7599259795110481  1.0000
  H   H65       1.0  0.004890989372645871  0.9923242389830707  0.7098561374715645  1.0000
  H   H66       1.0  0.9404748944359697  0.9855522162640461  0.7190353817044283  1.0000
  H   H67       1.0  0.9635209356111395  0.0016185574515041878  0.7807859351283609  1.0000
  H   H68       1.0  0.027581761076488576  0.010005290501814645  0.7713303578848832  1.0000
  C   C103      1.0  0.9968578735327344  0.9075163735135815  0.5981837856207666  1.0000
  C   C104      1.0  0.9748473696810375  0.9043284054132731  0.6150951899141572  1.0000
  C   C105      1.0  0.9841174855924464  0.9144650346474968  0.6335766100332302  1.0000
  C   C106      1.0  0.014807395718692495  0.9284653652849331  0.6351863404491873  1.0000
  C   C107      1.0  0.03636751561428908  0.9323323764888206  0.6181314702654893  1.0000
  C   C108      1.0  0.027643643211762603  0.9215602344352483  0.5996842523203172  1.0000
  H   H69       1.0  0.9510233908596307  0.8935970443668931  0.6140818572247237  1.0000
  H   H70       1.0  0.9673555787587325  0.9114109744695356  0.646710324394635  1.0000
  H   H71       1.0  0.059875249412587817  0.9433299404974744  0.6191791712191874  1.0000
  H   H72       1.0  0.044603359757096506  0.9241984221851419  0.5865724213371899  1.0000
  C   C109      1.0  0.7515222028937902  0.044021277954400695  0.38410622365856706  1.0000
  C   C110      1.0  0.713213348553181  0.04737017824127965  0.3814961346323147  1.0000
  C   C111      1.0  0.6976600127925027  0.048242404701678954  0.3620874692290187  1.0000
  C   C112      1.0  0.7203230596450354  0.045569302889031604  0.34511881379568926  1.0000
  C   C113      1.0  0.758647025590749  0.042073731437518136  0.3477215481872853  1.0000
  C   C114      1.0  0.7742450262375626  0.04139305816627026  0.3671473311987445  1.0000
  H   H73       1.0  0.6954363624544883  0.04934101536797602  0.39453838597421875  1.0000
  H   H74       1.0  0.6680872594302654  0.050677019119661305  0.3603011564975533  1.0000
  H   H75       1.0  0.776361376402381  0.03985842069406553  0.3346775899807517  1.0000
  H   H76       1.0  0.8038053639754171  0.03866583133349777  0.3689926442285015  1.0000
  C   C115      1.0  0.93660066762844  0.10643106595697503  0.45931120711715145  1.0000
  C   C116      1.0  0.9265763518713885  0.09249350621873048  0.47596297566576207  1.0000
  C   C117      1.0  0.9371661117462937  0.09916063402141326  0.49543784291312215  1.0000
  C   C118      1.0  0.9587962956791966  0.11920682922506586  0.4981586637867181  1.0000
  C   C119      1.0  0.969076315463813  0.13291587156265328  0.48146628790095175  1.0000
  C   C120      1.0  0.9573255680489914  0.1268641190956337  0.46216102160177147  1.0000
  H   H77       1.0  0.9104769923532496  0.07675285234624131  0.47385469506666233  1.0000
  H   H78       1.0  0.9291260816855291  0.08855844447961199  0.5083582968191158  1.0000
  H   H79       1.0  0.985454469851837  0.14852265607895807  0.483462203659025  1.0000
  H   H80       1.0  0.9646821093282493  0.13791714889161794  0.449362776352244  1.0000
  C   C121      1.0  0.8776308911268519  0.9647574666159893  0.4787967152858285  1.0000
  C   C122      1.0  0.8852832200261881  0.9405458424188082  0.48579108354299694  1.0000
  C   C123      1.0  0.8689055001572301  0.9322181938521662  0.5035005597917136  1.0000
  C   C124      1.0  0.8451202562830336  0.94817251013696  0.5145977868503546  1.0000
  C   C125      1.0  0.8366147085357729  0.972251770164972  0.507346678030673  1.0000
  C   C126      1.0  0.8529033875827818  0.9805776342686012  0.4895044850996607  1.0000
  H   H81       1.0  0.904125662863495  0.92813324081465  0.47746815056902103  1.0000
  H   H82       1.0  0.8750158336002878  0.913469784047054  0.5086692260851853  1.0000
  H   H83       1.0  0.8181084434433634  0.9846976012280488  0.5158218800965841  1.0000
  H   H84       1.0  0.847049372851505  0.9993385194842268  0.48431567385540086  1.0000
  C   C127      1.0  0.9765112900553592  0.03173611311894087  0.36212400452670285  1.0000
  C   C128      1.0  0.9970720152285945  0.0273496201643455  0.3444982043267428  1.0000
  C   C129      1.0  0.026182938391938235  0.04196099344187321  0.3396406201493941  1.0000
  C   C130      1.0  0.034973242299408916  0.06087077931299789  0.3524957893810343  1.0000
  C   C131      1.0  0.01523975789856499  0.06474289417220236  0.37046688354338797  1.0000
  C   C132      1.0  0.9859116152698507  0.050284630987323053  0.37524390576840844  1.0000
  H   H85       1.0  0.9899821050641672  0.012930896976765416  0.3343785606307783  1.0000
  H   H86       1.0  0.041672240854787976  0.038653003463095414  0.32589537458872475  1.0000
  H   H87       1.0  0.021746265121075144  0.07952174468597395  0.3803259945310245  1.0000
  H   H88       1.0  0.9697788699460523  0.054024276304869945  0.3886922677598433  1.0000
  C   C133      1.0  0.7454377820257941  0.8529434383066522  0.6553907448970493  1.0000
  C   C134      1.0  0.7639186598223204  0.8460097455818784  0.6375545346428751  1.0000
  C   C135      1.0  0.7908307347290408  0.8605230773428337  0.6294968041250383  1.0000
  C   C136      1.0  0.7993836495016164  0.8820172525482762  0.6393027523490505  1.0000
  C   C137      1.0  0.780970144444086  0.8889547532015911  0.6571493608759386  1.0000
  C   C138      1.0  0.7540077944962719  0.8744463742958516  0.6651936408424546  1.0000
  H   H89       1.0  0.7572501138628267  0.8294257773639728  0.6299233539247053  1.0000
  H   H90       1.0  0.8048865842251874  0.8550913274215955  0.6157047156535859  1.0000
  H   H91       1.0  0.7874253485895315  0.9056272226812555  0.6647218888485024  1.0000
  H   H92       1.0  0.7398387990709158  0.8798551100396551  0.6789588619237775  1.0000
  C   C139      1.0  0.7308428967386057  0.9076735089851143  0.763338019505638  1.0000
  C   C140      1.0  0.7399608148160987  0.9262455766171555  0.7765083128121713  1.0000
  C   C141      1.0  0.7710991152909232  0.922800570008902  0.7889007622476392  1.0000
  C   C142      1.0  0.7938709043434863  0.9010648453114279  0.7877833520018848  1.0000
  C   C143      1.0  0.7839930130462069  0.8821150500261232  0.7751764353934368  1.0000
  C   C144      1.0  0.7525233453334607  0.8854211933516195  0.7629421340286524  1.0000
  H   H93       1.0  0.7231133599811466  0.9434059621542151  0.7769940050462019  1.0000
  H   H94       1.0  0.7773707651135053  0.9369298539930115  0.7993668365093125  1.0000
  H   H95       1.0  0.8011551632768615  0.8650789677132936  0.7745031938365332  1.0000
  H   H96       1.0  0.7454679253233298  0.8709057593565998  0.7529947703230399  1.0000
  C   C145      1.0  0.4401610415598072  0.9838631512469456  0.837358416197471  1.0000
  C   C146      1.0  0.46884631039230595  0.9763161486159052  0.8242599798025443  1.0000
  C   C147      1.0  0.5054902297912602  0.9806140176628375  0.8291922504094459  1.0000
  C   C148      1.0  0.5136800562834072  0.992041633759023  0.8473896376391958  1.0000
  C   C149      1.0  0.4849908641225798  0.9994884491676338  0.8604597968946932  1.0000
  C   C150      1.0  0.4484017109216061  0.9955656232858604  0.8553900561965425  1.0000
  H   H97       1.0  0.4627473017754223  0.9671850959900072  0.8103729624836793  1.0000
  H   H98       1.0  0.5275355406159814  0.9748331200008176  0.8189990925728405  1.0000
  H   H99       1.0  0.49091238350478955  0.008614791652879594  0.8743615755013738  1.0000
  H   H100      1.0  0.42634540232761065  0.0015404879877203292  0.865546195459991  1.0000
  C   C151      1.0  0.24595853462853412  0.9167013596369473  0.8205140002400322  1.0000
  C   C152      1.0  0.21100484884723492  0.9097440349237954  0.8258840667988736  1.0000
  C   C153      1.0  0.19649620404339652  0.9157032058971524  0.8448776801620597  1.0000
  C   C154      1.0  0.21671080770113726  0.9288631246128444  0.858445616637165  1.0000
  C   C155      1.0  0.25101065620150975  0.9367913922787274  0.8527445049040328  1.0000
  C   C156      1.0  0.26577755441470935  0.9305757922135979  0.8337832761026601  1.0000
  H   H101      1.0  0.1953248396857241  0.8994016028182196  0.8154899185785814  1.0000
  H   H102      1.0  0.16953478326856458  0.9102410839716124  0.8489740411086109  1.0000
  H   H103      1.0  0.26663698738166747  0.9471038488020229  0.8631832204846814  1.0000
  H   H104      1.0  0.29273704579946713  0.9361471122498044  0.8296251431230548  1.0000
  C   C157      1.0  0.46878814993475554  0.8824146149034239  0.7525020082696435  1.0000
  C   C158      1.0  0.49963536359372523  0.8655132424359339  0.7519949750680299  1.0000
  C   C159      1.0  0.5238620271216627  0.8651407556134187  0.7355653802751405  1.0000
  C   C160      1.0  0.517211085973457  0.8815678741490165  0.7194926521702607  1.0000
  C   C161      1.0  0.4855917402859463  0.8978823406731579  0.7196151058414099  1.0000
  C   C162      1.0  0.46144275722925515  0.8984142401515617  0.7361725418825099  1.0000
  H   H105      1.0  0.505209975215747  0.8529783133936846  0.764531268839163  1.0000
  H   H106      1.0  0.5477015777533103  0.8521278568253436  0.7353672773327262  1.0000
  H   H107      1.0  0.480205446754589  0.9104906770243216  0.7071097795902527  1.0000
  H   H108      1.0  0.43750112427766913  0.9113892261280345  0.736435248907383  1.0000
  C   C163      1.0  0.29005154602838534  0.9746691930118763  0.7209465870522996  1.0000
  C   C164      1.0  0.2870297441602295  0.9497229897524886  0.7168516079291269  1.0000
  C   C165      1.0  0.2588450063061626  0.9424689822593414  0.704155444199737  1.0000
  C   C166      1.0  0.23283767681470813  0.9600163725053278  0.6959225838364748  1.0000
  C   C167      1.0  0.23573457945752915  0.984950018642833  0.700085046985448  1.0000
  C   C168      1.0  0.264698392504195  0.9922566413515481  0.7122018695015957  1.0000
  H   H109      1.0  0.30686241971670464  0.936044405044276  0.7230956461498874  1.0000
  H   H110      1.0  0.25708601670710435  0.9231722459857347  0.700831440261382  1.0000
  H   H111      1.0  0.2162567366025416  0.9986706213657445  0.6935455895022246  1.0000
  H   H112      1.0  0.267192362598871  0.01161415334696825  0.7150357089273982  1.0000
  C   C169      1.0  0.7068793917311315  0.7275966224928103  0.7235999768820515  1.0000
  C   C170      1.0  0.711059024606884  0.7510200686784334  0.7155169831879618  1.0000
  C   C171      1.0  0.6930779627700264  0.7718037480928486  0.724369638832637  1.0000
  C   C172      1.0  0.6716531261180556  0.7692297997833759  0.7416279254518249  1.0000
  C   C173      1.0  0.6683424814229101  0.7458364416203076  0.7500850391961322  1.0000
  C   C174      1.0  0.6857656040923799  0.7249711329861066  0.7409829950610533  1.0000
  H   H113      1.0  0.7274329918797713  0.7530917732800072  0.7020741257251548  1.0000
  H   H114      1.0  0.6955467288407835  0.7897882643485863  0.7176859254278057  1.0000
  H   H115      1.0  0.6517219023719623  0.743860925874659  0.7634401333100586  1.0000
  H   H116      1.0  0.68281699429045  0.70693179723744  0.7474090344522648  1.0000
  C   C175      1.0  0.4903281371570389  0.593470527432804  0.7286928092418822  1.0000
  C   C176      1.0  0.4786392468100203  0.6167563487691079  0.736041252005391  1.0000
  C   C177      1.0  0.4998929835384608  0.6369436700081172  0.7323580574880473  1.0000
  C   C178      1.0  0.53310922664789  0.633765220697488  0.7216289154868701  1.0000
  C   C179      1.0  0.5441971302715409  0.6106040960964242  0.7139294756230733  1.0000
  C   C180      1.0  0.5228046327520308  0.590559258171618  0.717376959236718  1.0000
  H   H117      1.0  0.4534023809228987  0.6191831243140922  0.7446297468951731  1.0000
  H   H118      1.0  0.49104785564127856  0.6548612010652332  0.7382548972956822  1.0000
  H   H119      1.0  0.5690765108223633  0.6081402203312609  0.7051098333269361  1.0000
  H   H120      1.0  0.5316992682232459  0.5726541326664198  0.7114470707591269  1.0000
  C   C181      1.0  0.9040621050136517  0.7397505658109027  0.5523054269084706  1.0000
  C   C182      1.0  0.8657163866447275  0.7423810354177758  0.5505884861999852  1.0000
  C   C183      1.0  0.8470558483298009  0.7657622689001781  0.5521489375662936  1.0000
  C   C184      1.0  0.8664156541111847  0.7866545195440933  0.5558724563649241  1.0000
  C   C185      1.0  0.9047615084188844  0.7840619176769872  0.5578522317704286  1.0000
  C   C186      1.0  0.9235616724223764  0.7606673629123701  0.5558674312330316  1.0000
  H   H121      1.0  0.8505043270348893  0.7265084898134614  0.547473594202417  1.0000
  H   H122      1.0  0.8174533272898021  0.7677203972933541  0.5503342591648834  1.0000
  H   H123      1.0  0.9199101592843357  0.8000757580689029  0.5606998845552766  1.0000
  H   H124      1.0  0.9532614240982145  0.7587942324425747  0.5571045200876773  1.0000
  C   C187      1.0  0.7786020734259643  0.6535212791324447  0.6234658287905134  1.0000
  C   C188      1.0  0.7807994729344805  0.6280347859429788  0.6205334820851748  1.0000
  C   C189      1.0  0.7582723142406811  0.6131035657557264  0.631853674084715  1.0000
  C   C190      1.0  0.7342521866346098  0.62355626074416  0.6464861865792332  1.0000
  C   C191      1.0  0.7332369412327316  0.6489053122340211  0.6498770760343694  1.0000
  C   C192      1.0  0.755027029473341  0.6638570302414915  0.638269262123467  1.0000
  H   H125      1.0  0.7997784208539506  0.6198618543005235  0.6095851499148185  1.0000
  H   H126      1.0  0.7596411056336521  0.5934314010357234  0.6294398288690379  1.0000
  H   H127      1.0  0.7152003028734292  0.6571287261636575  0.6612292604648684  1.0000
  H   H128      1.0  0.7534227950436537  0.6835119114900308  0.6407697923848814  1.0000
  C   C193      1.0  0.834479916434797  0.5997042865432456  0.49966523574192273  1.0000
  C   C194      1.0  0.8712295447311065  0.6024714735142984  0.49452892229767803  1.0000
  C   C195      1.0  0.887306843993628  0.5896295540591631  0.47806652699953955  1.0000
  C   C196      1.0  0.8670765409185983  0.5735612700442309  0.4667657592389604  1.0000
  C   C197      1.0  0.8304676608913772  0.5704232177268374  0.47207516844929903  1.0000
  C   C198      1.0  0.814160934909706  0.5836265792790161  0.48836643477812325  1.0000
  H   H129      1.0  0.8871161800262964  0.6148706782107697  0.5029749335601293  1.0000
  H   H130      1.0  0.9155882192025914  0.5922139305981899  0.4740541414853395  1.0000
  H   H131      1.0  0.8145433512685725  0.5582186484719338  0.4634059741953651  1.0000
  H   H132      1.0  0.7856812863259884  0.5814274459489868  0.4921632041812247  1.0000
  C   C199      1.0  0.06486833041745023  0.28243236525932913  0.5169978705807642  1.0000
  C   C200      1.0  0.0839695372895777  0.28075979788143757  0.5352658302733433  1.0000
  C   C201      1.0  0.09622007017047125  0.2575650620068844  0.5431717646938641  1.0000
  C   C202      1.0  0.08961697425183045  0.23589071396206707  0.5328777810215536  1.0000
  C   C203      1.0  0.07089284282000805  0.23755418215063986  0.5144852389997684  1.0000
  C   C204      1.0  0.05830822373355552  0.26074823558399746  0.5066643210825329  1.0000
  H   H133      1.0  0.08898245139490392  0.29730986153333144  0.5434355560107962  1.0000
  H   H134      1.0  0.11068727480551929  0.2564125844377835  0.5574274597141452  1.0000
  H   H135      1.0  0.06616487410797381  0.22099694010451648  0.5062895601861259  1.0000
  H   H136      1.0  0.04373135835310339  0.2619368783059804  0.49244973643318735  1.0000
  C   C205      1.0  0.9926388710773242  0.4363754844077824  0.4825820733942446  1.0000
  C   C206      1.0  0.9801402094194872  0.4137078699571589  0.47695691439528726  1.0000
  C   C207      1.0  0.9502896364336488  0.41298683673753916  0.4635670040948665  1.0000
  C   C208      1.0  0.9330570699766498  0.43488747631694524  0.4557355929364143  1.0000
  C   C209      1.0  0.9454302639138343  0.45750713393949  0.461518437159904  1.0000
  C   C210      1.0  0.9751229327627571  0.45823343622646845  0.4749162985217464  1.0000
  H   H137      1.0  0.9935200078648149  0.39677772978056786  0.4828524557933391  1.0000
  H   H138      1.0  0.9407884531469713  0.3954426805856067  0.4591394156203257  1.0000
  H   H139      1.0  0.9320994108530345  0.4744775379455446  0.4557258197089751  1.0000
  H   H140      1.0  0.9846537652260202  0.47580591461552585  0.47925884157106663  1.0000
  C   C211      1.0  0.22615196074161759  0.5404128146243481  0.7093635397720343  1.0000
  C   C212      1.0  0.21382661209618598  0.5275491663348585  0.7260729518201254  1.0000
  C   C213      1.0  0.2373709434795286  0.5227894010217402  0.7426839345814399  1.0000
  C   C214      1.0  0.2731565002525902  0.5309330583222437  0.7426700037791969  1.0000
  C   C215      1.0  0.28578571069505765  0.5430065308122266  0.7256569415516777  1.0000
  C   C216      1.0  0.26234146719657647  0.5477437389015669  0.7090688318544514  1.0000
  H   H141      1.0  0.18598385615292015  0.5217558295765071  0.7264123941735873  1.0000
  H   H142      1.0  0.22757183859695762  0.5132410759524759  0.755777836231566  1.0000
  H   H143      1.0  0.31358386739459104  0.5488503354080088  0.7253560203165244  1.0000
  H   H144      1.0  0.2721261192183643  0.5575242115691831  0.6960979998623122  1.0000
  C   C217      1.0  0.003359061229974092  0.5903845811365301  0.6426553218928338  1.0000
  C   C218      1.0  0.9733046731133483  0.6072644289395497  0.6386059853553695  1.0000
  C   C219      1.0  0.958134751937458  0.6091827172914361  0.619149057198648  1.0000
  C   C220      1.0  0.9735020300722785  0.5945261306718527  0.6036580500031962  1.0000
  C   C221      1.0  0.003365508909720205  0.5775718705574899  0.6077746246948528  1.0000
  C   C222      1.0  0.018119476195727957  0.5753722833353385  0.6272601474346242  1.0000
  H   H145      1.0  0.9617164234965929  0.6188118416837849  0.6505279053588631  1.0000
  H   H146      1.0  0.9349083197328661  0.6221751940532619  0.6160987915308226  1.0000
  H   H147      1.0  0.015319666996229664  0.566202470844672  0.5958331670084445  1.0000
  H   H148      1.0  0.041259762915996534  0.5622778353860205  0.6302895062196273  1.0000
  C   C223      1.0  0.10831237509419864  0.46328675432121547  0.6125733366359934  1.0000
  C   C224      1.0  0.08616343699875824  0.4475322390776197  0.6230348412567136  1.0000
  C   C225      1.0  0.078279121822664  0.42484659967141786  0.6145381270860351  1.0000
  C   C226      1.0  0.09229550318521498  0.41785488224568645  0.5955409019317619  1.0000
  C   C227      1.0  0.11477863321969539  0.4335152993108517  0.5852497278851613  1.0000
  C   C228      1.0  0.12270305239292195  0.4561247684165535  0.5937214411372292  1.0000
  H   H149      1.0  0.07493667464569079  0.45285389779379875  0.6375781517369229  1.0000
  H   H150      1.0  0.060980020669359494  0.41275648645580665  0.622636506102502  1.0000
  H   H151      1.0  0.12629493493399466  0.4281223630461703  0.5708142500246094  1.0000
  H   H152      1.0  0.14003308613458257  0.4681588574489483  0.5855939396433386  1.0000
  C   C229      1.0  0.32262638967153934  0.278845037303087  0.3912938359076897  1.0000
  C   C230      1.0  0.32015153688672604  0.25744323370048017  0.4028528956070735  1.0000
  C   C231      1.0  0.30674948791962897  0.2364311886587722  0.39429044797927143  1.0000
  C   C232      1.0  0.2966898479855465  0.23649000604408033  0.37399724132717005  1.0000
  C   C233      1.0  0.2977104924623568  0.2582277547702702  0.3626099626104205  1.0000
  C   C234      1.0  0.3105228127243306  0.27948589601073115  0.37128615238201784  1.0000
  H   H153      1.0  0.3290869613777778  0.2570059884449245  0.41840190315222797  1.0000
  H   H154      1.0  0.30434034785083325  0.2201763289705588  0.4034126381251374  1.0000
  H   H155      1.0  0.2897180315338295  0.25839757855450174  0.34691328745099503  1.0000
  H   H156      1.0  0.3125702459561418  0.29596313147815567  0.36225963133407885  1.0000
  C   C235      1.0  0.20895658158348884  0.3882391873456974  0.43445431094464537  1.0000
  C   C236      1.0  0.23590259201789898  0.37409325903728374  0.4452769034521296  1.0000
  C   C237      1.0  0.2311866131299756  0.36960876740470366  0.4659303622415114  1.0000
  C   C238      1.0  0.19905640381864478  0.3786910695752229  0.47579544357636316  1.0000
  C   C239      1.0  0.17178373720722273  0.39249556548092424  0.4649366805494751  1.0000
  C   C240      1.0  0.17685262828567194  0.39738702245074703  0.4443370018944875  1.0000
  H   H157      1.0  0.26025473108475405  0.366404022052283  0.4377616264191968  1.0000
  H   H158      1.0  0.2522818165975959  0.35878712043103744  0.4742300805975425  1.0000
  H   H159      1.0  0.14702066843571227  0.3997589968187704  0.4724579517795818  1.0000
  H   H160      1.0  0.15584850378480122  0.4083596273491834  0.436091867255466  1.0000
  C   C241      1.0  0.4998713647972081  0.40392080611466447  0.36621474342399984  1.0000
  C   C242      1.0  0.4794601494674466  0.3846903576296223  0.37317574704496487  1.0000
  C   C243      1.0  0.4460168438944008  0.38977724054900587  0.38338354452907103  1.0000
  C   C244      1.0  0.4331465361987929  0.41413652082218394  0.38706142693248746  1.0000
  C   C245      1.0  0.4541278413386008  0.43338854537149785  0.3807165685759786  1.0000
  C   C246      1.0  0.4872586134281121  0.428299403078976  0.3701357214435753  1.0000
  H   H161      1.0  0.4893013557009356  0.3657918987320981  0.37041589073013603  1.0000
  H   H162      1.0  0.43047985428045726  0.37477827722331014  0.3886301856565664  1.0000
  H   H163      1.0  0.44447327275143256  0.45226667530631987  0.3836608623987231  1.0000
  H   H164      1.0  0.5031801542104434  0.4432169487082317  0.36518418532438646  1.0000
  C   C247      1.0  0.6795430515855531  0.4898581642866209  0.3509583641807117  1.0000
  C   C248      1.0  0.6684807866156534  0.4763926470044769  0.3676477832998184  1.0000
  C   C249      1.0  0.6897985649873458  0.47542599720471623  0.3853719962930711  1.0000
  C   C250      1.0  0.722672956398216  0.4874440902326279  0.3863895468185049  1.0000
  C   C251      1.0  0.7341757486714809  0.5004065894584764  0.36953154817727096  1.0000
  C   C252      1.0  0.7124381161356333  0.5018383124869805  0.35197260572367656  1.0000
  H   H165      1.0  0.6431176012440049  0.46718648341943936  0.3670648303002001  1.0000
  H   H166      1.0  0.6806541494070482  0.4654288218421753  0.39836731156842276  1.0000
  H   H167      1.0  0.7593825281919556  0.5097798691713569  0.3701727831007365  1.0000
  H   H168      1.0  0.7211648874546482  0.5122964276598636  0.3391287728398502  1.0000
  C   C253      1.0  0.1630691674803693  0.7410298028316278  0.9032394443692585  1.0000
  C   C254      1.0  0.1741486930482729  0.741012528672033  0.8830557034581752  1.0000
  C   C255      1.0  0.18451212883220122  0.7628692813512958  0.8739466536211159  1.0000
  C   C256      1.0  0.18416637926273371  0.7846289968690944  0.8850827710143098  1.0000
  C   C257      1.0  0.1744055338911119  0.7842982179517896  0.9054250294164274  1.0000
  C   C258      1.0  0.16322415609383642  0.7626974071896346  0.9143873598429022  1.0000
  H   H169      1.0  0.17374989189174445  0.724374074168046  0.8742956273230659  1.0000
  H   H170      1.0  0.19207618577690685  0.7629895884687867  0.8581864218181573  1.0000
  H   H171      1.0  0.17580408113064164  0.8006243809261824  0.914368270349227  1.0000
  H   H172      1.0  0.15481301476099668  0.7628057376856314  0.9300212003007845  1.0000
  C   C259      1.0  0.2287978402031821  0.6532084435298693  0.8158917167199851  1.0000
  C   C260      1.0  0.25356648687379024  0.6330537332845789  0.8204125353780848  1.0000
  C   C261      1.0  0.28731963668174926  0.6300117446602157  0.8100966111798207  1.0000
  C   C262      1.0  0.29661572010715304  0.6473689625237484  0.7956122125985593  1.0000
  C   C263      1.0  0.27272915980353807  0.6682415072546508  0.7920932161867421  1.0000
  C   C264      1.0  0.2385340704792142  0.6708431200173937  0.8018220628512895  1.0000
  H   H173      1.0  0.2461401489351123  0.619396294156709  0.8313232849541636  1.0000
  H   H174      1.0  0.30593866032290024  0.6142173165769733  0.8132576210632961  1.0000
  H   H175      1.0  0.2799607229587512  0.6818891436064394  0.781112869749185  1.0000
  H   H176      1.0  0.2195581383249539  0.6865295698013648  0.7984042088692123  1.0000
  C   C265      1.0  0.8268203613206568  0.5977240023068842  0.7703569167977212  1.0000
  C   C266      1.0  0.8041792357301192  0.5964799612669622  0.7873321357386891  1.0000
  C   C267      1.0  0.7659734234067546  0.5953768410269611  0.7850074471667938  1.0000
  C   C268      1.0  0.7504925436659501  0.5952061043724315  0.7657065580665496  1.0000
  C   C269      1.0  0.7734554663305581  0.5949560323761167  0.7488182600230815  1.0000
  C   C270      1.0  0.8114567082782063  0.5967022331125944  0.7511119678626372  1.0000
  H   H177      1.0  0.8158801362254102  0.5973131815776602  0.8022289323556393  1.0000
  H   H178      1.0  0.7483849114123339  0.5955775189351187  0.7981280540356805  1.0000
  H   H179      1.0  0.7618979154078985  0.5936417054217297  0.7339347012912363  1.0000
  H   H180      1.0  0.8288830660115668  0.597317561396236  0.7379386095372825  1.0000
  C   C271      1.0  0.023608248188611514  0.524450905276004  0.7802796167932237  1.0000
  C   C272      1.0  0.05508110697254276  0.5282023941490247  0.7687702598809615  1.0000
  C   C273      1.0  0.05945082970737725  0.517776848609695  0.7495590808643936  1.0000
  C   C274      1.0  0.03291305266836431  0.5028819192051566  0.7420669737849108  1.0000
  C   C275      1.0  0.0018480381056447115  0.498704612151913  0.7537705484455313  1.0000
  C   C276      1.0  0.9967525888164229  0.509918861028298  0.7726471079991175  1.0000
  H   H181      1.0  0.0761357257530264  0.5391759583991567  0.774720757430009  1.0000
  H   H182      1.0  0.0838019034827473  0.5207131692921654  0.7407870970465756  1.0000
  H   H183      1.0  0.9815491092934735  0.4868717232179677  0.7481643839853825  1.0000
  H   H184      1.0  0.972724052847123  0.5066076242388332  0.7816027267938215  1.0000
  C   C277      1.0  0.9964230598605047  0.6116508585438782  0.8746177002259671  1.0000
  C   C278      1.0  0.014839525654316343  0.6303730573475794  0.883789090642601  1.0000
  C   C279      1.0  0.0509074123154003  0.6256055314664793  0.8911487195413876  1.0000
  C   C280      1.0  0.06820751308404027  0.6018738514470785  0.8899384108938717  1.0000
  C   C281      1.0  0.04948775793058413  0.5830673379321047  0.8811795921621527  1.0000
  C   C282      1.0  0.014060239346216807  0.5880601692059522  0.8731586178556838  1.0000
  H   H185      1.0  0.0013502912053096061  0.6486562749321956  0.885043556259165  1.0000
  H   H186      1.0  0.06504075086424425  0.6401666826225534  0.8981018084642334  1.0000
  H   H187      1.0  0.06275247983283183  0.5646784238341258  0.8802100665875761  1.0000
  H   H188      1.0  0.00045148691164986765  0.5735054697154743  0.8660300660215765  1.0000
  C   C283      1.0  0.6030836170616205  0.27735731258493107  0.05308083123842785  1.0000
  C   C284      1.0  0.6131661319165574  0.2545801322937139  0.044135964517402204  1.0000
  C   C285      1.0  0.5964036714502956  0.2331573718033452  0.05009440531390785  1.0000
  C   C286      1.0  0.5687746857693865  0.23446864354577618  0.06475739853203853  1.0000
  C   C287      1.0  0.5592700581818226  0.257124593443659  0.07403945272365954  1.0000
  C   C288      1.0  0.5766999365643687  0.27842912162371863  0.06843334858259113  1.0000
  H   H189      1.0  0.6336276043341833  0.25356813266542755  0.03227815486171748  1.0000
  H   H190      1.0  0.603737974166335  0.2158557226634297  0.042714941276492224  1.0000
  H   H191      1.0  0.5381951359046504  0.25818224793673084  0.08556684822467284  1.0000
  H   H192      1.0  0.5694547988852837  0.2956929510390086  0.07585029033224643  1.0000
  C   C289      1.0  0.7530336072812155  0.5514894316425497  0.8907580703479985  1.0000
  C   C290      1.0  0.7759065264658973  0.568142887948762  0.8817376407466072  1.0000
  C   C291      1.0  0.8044371377661019  0.5597743907794696  0.8686603309874243  1.0000
  C   C292      1.0  0.8108915385507526  0.5346042534127875  0.8649079420823138  1.0000
  C   C293      1.0  0.7881864433301506  0.5179454451887031  0.8740456738629834  1.0000
  C   C294      1.0  0.7591880750009744  0.5263509662088349  0.886808913386124  1.0000
  H   H193      1.0  0.7711722387114164  0.5876300179448658  0.8846916742025468  1.0000
  H   H194      1.0  0.8213829949026346  0.5727884301343356  0.8615186169401499  1.0000
  H   H195      1.0  0.7930583645949408  0.49841984843340714  0.8712594056010541  1.0000
  H   H196      1.0  0.7420229061711942  0.5133250821551815  0.8938824353299933  1.0000
  C   C295      1.0  0.622564602767811  0.455092681336922  0.9665179281617744  1.0000
  C   C296      1.0  0.643049418003288  0.4690597883204587  0.9793935148885264  1.0000
  C   C297      1.0  0.6500757581346025  0.46100286883134406  0.9993598644333619  1.0000
  C   C298      1.0  0.6364373019018303  0.43908343792901317  0.006696509057509292  1.0000
  C   C299      1.0  0.6154341684594615  0.4253717948436252  0.9939101499898607  1.0000
  C   C300      1.0  0.6087535616964816  0.43328016122702157  0.9739044845664738  1.0000
  H   H197      1.0  0.6539817141885166  0.48581628788043785  0.9738800518597651  1.0000
  H   H198      1.0  0.6664536196865101  0.471698737674245  0.00911186504973216  1.0000
  H   H199      1.0  0.6049492913330018  0.4084205175038968  0.9993066210793956  1.0000
  H   H200      1.0  0.5930344774618548  0.42228730119487473  0.9640272262450976  1.0000
  C   C301      1.0  0.5471596078491267  0.5297288179088178  0.8446553244643071  1.0000
  C   C302      1.0  0.52563632824934  0.5414507398450512  0.8596555112433952  1.0000
  C   C303      1.0  0.48892792877372426  0.5496303210712871  0.8556987079054656  1.0000
  C   C304      1.0  0.4735916179735327  0.5465957158340238  0.8366057611797453  1.0000
  C   C305      1.0  0.49522979189193883  0.535278513155392  0.8213961413042219  1.0000
  C   C306      1.0  0.531885742133674  0.5266161403876931  0.8254997513952965  1.0000
  H   H201      1.0  0.5371743460295719  0.5441727193559844  0.8743990556201618  1.0000
  H   H202      1.0  0.4724553330855333  0.558357314134661  0.8675374023423337  1.0000
  H   H203      1.0  0.48336975478841115  0.5325529652325031  0.8067139776643165  1.0000
  H   H204      1.0  0.5482287049917072  0.5172109553049722  0.8139280151585055  1.0000
  C   C307      1.0  0.40478833517922186  0.7507469245754704  0.028074269542410102  1.0000
  C   C308      1.0  0.40699981783361944  0.7733038266686031  0.017884183309352153  1.0000
  C   C309      1.0  0.4043059737115447  0.7956655234154907  0.02843286438185011  1.0000
  C   C310      1.0  0.3995794504303819  0.7956632361344014  0.04932745161701768  1.0000
  C   C311      1.0  0.39740369640885403  0.7730883738495036  0.05955342519937856  1.0000
  C   C312      1.0  0.39993638663081094  0.7506805545449308  0.04897312197551629  1.0000
  H   H205      1.0  0.41066937853344027  0.7735480313077635  0.0017238444399207964  1.0000
  H   H206      1.0  0.40591375355655557  0.8129064637124245  0.020386381763705334  1.0000
  H   H207      1.0  0.3937936224452353  0.7729284832175588  0.07571833566915509  1.0000
  H   H208      1.0  0.3982601552010935  0.7334213224044077  0.05698759119605867  1.0000
  C   C313      1.0  0.30633008327138544  0.6266469660003506  0.9767891340224478  1.0000
  C   C314      1.0  0.33508494159604446  0.6329502853183306  0.9642087042069276  1.0000
  C   C315      1.0  0.3295148621345363  0.6349066868092758  0.9433010190651908  1.0000
  C   C316      1.0  0.2950962170075656  0.6308578285939804  0.9349603074831929  1.0000
  C   C317      1.0  0.26647559430634926  0.624385893597543  0.9475223635386935  1.0000
  C   C318      1.0  0.27212222793775054  0.6222174820773654  0.9683846325200042  1.0000
  H   H209      1.0  0.36166031837496887  0.6361226164108823  0.9705419437387766  1.0000
  H   H210      1.0  0.3518304928356819  0.6397916323483274  0.933621781579218  1.0000
  H   H211      1.0  0.24013113614148365  0.6206702014964117  0.9411672198552639  1.0000
  H   H212      1.0  0.2498898645006499  0.617106691658082  0.9780326831680102  1.0000
  C   C319      1.0  0.5244799573018862  0.5861590898206054  0.9535435828015713  1.0000
  C   C320      1.0  0.489432295769189  0.5968228632164765  0.9584539356906289  1.0000
  C   C321      1.0  0.4822769398775675  0.6064011767024533  0.9777257997928813  1.0000
  C   C322      1.0  0.5103234460222481  0.6056011980830124  0.9921218182965924  1.0000
  C   C323      1.0  0.5453551302242202  0.5948211312373007  0.9872651353033188  1.0000
  C   C324      1.0  0.5524176480119765  0.5849931445152616  0.9680205152988934  1.0000
  H   H213      1.0  0.4677033003626185  0.5976458363515089  0.9472954506516791  1.0000
  H   H214      1.0  0.4551559013536156  0.6145491344073885  0.9813677030940131  1.0000
  H   H215      1.0  0.5671627373574737  0.5942381156002665  0.998370295055116  1.0000
  H   H216      1.0  0.5795467853846504  0.576881281314415  0.9642967643999797  1.0000
  C   C325      1.0  0.463421706300594  0.41786964491805273  0.1365620592602593  1.0000
  C   C326      1.0  0.4399603139494689  0.4254708586424362  0.12065471145416277  1.0000
  C   C327      1.0  0.4485707159483338  0.4180627209741681  0.10084637180415222  1.0000
  C   C328      1.0  0.4811365052589975  0.4036022451112837  0.09679042668291081  1.0000
  C   C329      1.0  0.5049946710663921  0.3965297163736929  0.1126548142198879  1.0000
  C   C330      1.0  0.49590502680345655  0.4033577177060889  0.13249922745211307  1.0000
  H   H217      1.0  0.41483635499284954  0.4366608054380237  0.12363844919180877  1.0000
  H   H218      1.0  0.430067660309692  0.4236778846412523  0.0886517507573169  1.0000
  H   H219      1.0  0.5302411559153769  0.3854798156131455  0.1097232359821767  1.0000
  H   H220      1.0  0.5142232714855512  0.397447480572518  0.1446956048860083  1.0000
  C   C331      1.0  0.3824607300448244  0.6052950390659372  0.09880297926828034  1.0000
  C   C332      1.0  0.4000026739767245  0.5868856028041046  0.08697921163365616  1.0000
  C   C333      1.0  0.39829854077869953  0.5620250357614921  0.0923504789247949  1.0000
  C   C334      1.0  0.3798009076135686  0.5553528594843117  0.10985308048737427  1.0000
  C   C335      1.0  0.36259031289093185  0.5737380070730067  0.12190543766075611  1.0000
  C   C336      1.0  0.3640482523597155  0.5986828965476795  0.11640888147639272  1.0000
  H   H221      1.0  0.4152004509322314  0.5917579293525915  0.07375543704977111  1.0000
  H   H222      1.0  0.41160319796735173  0.547869471956773  0.08295275838608636  1.0000
  H   H223      1.0  0.34736978399961943  0.5686929862906198  0.1351385477041922  1.0000
  H   H224      1.0  0.3501971967849327  0.6128630052113346  0.12556092937576788  1.0000
  C   C337      1.0  0.4585436989459575  0.513852384321659  0.2319877819705228  1.0000
  C   C338      1.0  0.49306930674745136  0.5152227315576918  0.24112543727397023  1.0000
  C   C339      1.0  0.4990123627167055  0.5067465314451264  0.2609758468010352  1.0000
  C   C340      1.0  0.47006879101902305  0.4976353490186041  0.2719725432487689  1.0000
  C   C341      1.0  0.4356127585197964  0.49615676036013395  0.2627998734396084  1.0000
  C   C342      1.0  0.43003489537748774  0.5038232040577509  0.24270908721482123  1.0000
  H   H225      1.0  0.5152024334285232  0.5229370748483236  0.23285749027218364  1.0000
  H   H226      1.0  0.525587374637924  0.5080092368905428  0.2679771638011227  1.0000
  H   H227      1.0  0.4130493741199166  0.4893216531579647  0.2712986569406279  1.0000
  H   H228      1.0  0.4032353905557165  0.5029036300142349  0.23580234130089495  1.0000
  C   C343      1.0  0.8061020527493069  0.2804571943513058  0.22111744975288472  1.0000
  C   C344      1.0  0.7941935383167481  0.2588232235039451  0.2296515385266053  1.0000
  C   C345      1.0  0.8009254607174999  0.23625377727134472  0.2198747241100629  1.0000
  C   C346      1.0  0.8198052184605396  0.23512277639572654  0.20152895971622597  1.0000
  C   C347      1.0  0.8318628388246972  0.256735630065549  0.19294262258294062  1.0000
  C   C348      1.0  0.8248681509317806  0.27942911571768225  0.20269429544678458  1.0000
  H   H229      1.0  0.7796413972411647  0.25946272832736333  0.24387362758345252  1.0000
  H   H230      1.0  0.7913780392336325  0.2197741794605462  0.22663635562867507  1.0000
  H   H231      1.0  0.8463046115819727  0.2559859163711203  0.17870398256081957  1.0000
  H   H232      1.0  0.833880336488822  0.29605238585702176  0.1959341405509733  1.0000
  C   C349      1.0  0.7637343870160413  0.3782331623412015  0.1415111742079472  1.0000
  C   C350      1.0  0.7541506480953815  0.37060714844668585  0.12218699527332308  1.0000
  C   C351      1.0  0.7169497240089765  0.371351382122708  0.1162906267465073  1.0000
  C   C352      1.0  0.6893655269968079  0.3802158068092884  0.12959385735618606  1.0000
  C   C353      1.0  0.6990612906499819  0.38798536734523825  0.148805340555265  1.0000
  C   C354      1.0  0.7360881545781293  0.3870124528394555  0.15474499566402308  1.0000
  H   H233      1.0  0.7754692110060426  0.3637163144053069  0.11191723444080517  1.0000
  H   H234      1.0  0.7096555057935666  0.3650050563269934  0.10153332582140519  1.0000
  H   H235      1.0  0.6778473467225036  0.3949757494814929  0.15911205344407092  1.0000
  H   H236      1.0  0.7432114712618888  0.393473073394667  0.1694681893837335  1.0000
  C   C355      1.0  0.7264075092941962  0.42635280320989133  0.2457455367460368  1.0000
  C   C356      1.0  0.7052741566063643  0.4139202990660913  0.232082740665116  1.0000
  C   C357      1.0  0.6678286669880991  0.4112584210422261  0.23597103873059022  1.0000
  C   C358      1.0  0.6515356353516314  0.4209061572802711  0.25358354437442343  1.0000
  C   C359      1.0  0.6723879701885022  0.43393170432735945  0.26696181283300285  1.0000
  C   C360      1.0  0.7097232093742514  0.4367439261749231  0.26298573298992256  1.0000
  H   H237      1.0  0.7177216420651212  0.40642516854045024  0.21849591021198886  1.0000
  H   H238      1.0  0.651710882353285  0.4013055771219397  0.22552110236758222  1.0000
  H   H239      1.0  0.6600276135032545  0.4414665352948585  0.28059114743986324  1.0000
  H   H240      1.0  0.7259171085342074  0.4464809679267627  0.27355692574781937  1.0000
  C   C361      1.0  0.02571386455480425  0.48558376573147427  0.34634511143829316  1.0000
  C   C362      1.0  0.009429455201194203  0.48081140270226114  0.36498215276527024  1.0000
  C   C363      1.0  0.9723108775509011  0.4883982640771628  0.36857443553075125  1.0000
  C   C364      1.0  0.9516028728303085  0.5013550038345049  0.35370801611419156  1.0000
  C   C365      1.0  0.968075962173127  0.5064868403641383  0.3351890629507678  1.0000
  C   C366      1.0  0.004910156558372014  0.4983600665511888  0.3314077158339863  1.0000
  H   H241      1.0  0.02539530126127265  0.4708909604304838  0.3765759611124107  1.0000
  H   H242      1.0  0.959793229842159  0.4840691159969431  0.38280734202537026  1.0000
  H   H243      1.0  0.9522825150071412  0.5167264695262788  0.32371179855572163  1.0000
  H   H244      1.0  0.017407725166785463  0.5022975361132188  0.3170542228113203  1.0000
  C   C367      1.0  0.19016334907784835  0.3896237558820755  0.29620411169457644  1.0000
  C   C368      1.0  0.21183446060930594  0.4097727343166038  0.29471207266738  1.0000
  C   C369      1.0  0.2476378054634505  0.40821990819464915  0.3025567948171112  1.0000
  C   C370      1.0  0.2615563483467705  0.38671513192222123  0.3123462809149568  1.0000
  C   C371      1.0  0.23973386390957377  0.3666816386124818  0.31421526177961207  1.0000
  C   C372      1.0  0.20421878846364144  0.3680112351993865  0.3058546661589149  1.0000
  H   H245      1.0  0.2015714524736638  0.42633621926652604  0.2869520678915798  1.0000
  H   H246      1.0  0.264484862518757  0.42374114665895646  0.3010834752212614  1.0000
  H   H247      1.0  0.2505797754140546  0.34995261949020795  0.3216685382995059  1.0000
  H   H248      1.0  0.1875850169751318  0.35234022867550374  0.3069697315335733  1.0000
  C   C373      1.0  0.9899815030113898  0.44479913865764775  0.24096561707607903  1.0000
  C   C374      1.0  0.9546150642310176  0.44618427422707596  0.23246077156211714  1.0000
  C   C375      1.0  0.938471167421346  0.42466837865623436  0.22661719346040807  1.0000
  C   C376      1.0  0.9581024907041039  0.4017728571112321  0.22879321719438317  1.0000
  C   C377      1.0  0.9935996529832858  0.4004485253670735  0.23708549859555458  1.0000
  C   C378      1.0  0.009375410165125993  0.42188807327805694  0.24337743192004999  1.0000
  H   H249      1.0  0.9395506059728843  0.46391273724739157  0.23056753759901832  1.0000
  H   H250      1.0  0.9110249538719338  0.4258572756192752  0.22030172526468164  1.0000
  H   H251      1.0  0.008890865106118582  0.3827636939401098  0.23876978080219333  1.0000
  H   H252      1.0  0.036687167259085066  0.42069323759679644  0.24990989624609425  1.0000
  C   C379      1.0  0.2137549677496855  0.4957070931768243  0.244177025305494  1.0000
  C   C380      1.0  0.19809483925892382  0.4832552595378915  0.22838511847421467  1.0000
  C   C381      1.0  0.21927782377997082  0.4764003259962613  0.21139087824898814  1.0000
  C   C382      1.0  0.2563268499786018  0.4818586492831423  0.21002697643105944  1.0000
  C   C383      1.0  0.2719232628878615  0.49473174112558843  0.22563096006166505  1.0000
  C   C384      1.0  0.25058258881987844  0.5017335979220436  0.24262714148085782  1.0000
  H   H253      1.0  0.1694992404715878  0.47917898580301244  0.22916064100887856  1.0000
  H   H254      1.0  0.20689091264899068  0.4667724037732107  0.19923436391196772  1.0000
  H   H255      1.0  0.30045428736459867  0.499017240084776  0.22472892410031065  1.0000
  H   H256      1.0  0.2627410869965529  0.5115952246817626  0.2547265341935242  1.0000
  N   N1        1.0  0.23401616325265853  0.9471496757667802  0.9423705286892473  1.0000
  C   C385      1.0  0.20206090697996987  0.9592666612012387  0.9315798811345009  1.0000
  C   C386      1.0  0.22133945369514976  0.9357260745789189  0.9611603810919859  1.0000
  C   C387      1.0  0.26055099174694923  0.9655414179210721  0.9472842504060186  1.0000
  C   C388      1.0  0.25220005639903675  0.9279518694756654  0.929452188034808  1.0000
  H   H257      1.0  0.1873343944273507  0.9737062126220173  0.9409007065870962  1.0000
  H   H258      1.0  0.18186681202118826  0.9457185432381806  0.927410095656815  1.0000
  H   H259      1.0  0.2106014603927374  0.9680506242694096  0.9172691389129367  1.0000
  H   H260      1.0  0.20140785108350845  0.9216040494570262  0.9580138023799475  1.0000
  H   H261      1.0  0.24481484459209654  0.9263709581873031  0.9696261846164459  1.0000
  H   H262      1.0  0.20740983571726201  0.949572556171036  0.9713412289558212  1.0000
  H   H263      1.0  0.28489791350148325  0.956854051832687  0.9555204006134534  1.0000
  H   H264      1.0  0.24776397875957573  0.9803512793572963  0.9570044647895357  1.0000
  H   H265      1.0  0.27087047830406175  0.9743659966397468  0.9333997862702524  1.0000
  H   H266      1.0  0.2607015148640321  0.9356872562195216  0.9147307102186352  1.0000
  H   H267      1.0  0.23332930728813536  0.91332299101838  0.9261136861549516  1.0000
  H   H268      1.0  0.2771629272460061  0.9189690435860735  0.9368364889695271  1.0000
  N   N2        1.0  0.2417002717990958  0.703064782532797  0.9520594531885385  1.0000
  C   C389      1.0  0.2287835341581434  0.7291032662593705  0.9552087167680414  1.0000
  C   C390      1.0  0.2505876673816048  0.699226805350548  0.930540445291772  1.0000
  C   C391      1.0  0.21234936992589976  0.6870546368362881  0.958072380345506  1.0000
  C   C392      1.0  0.2749706351431277  0.6968537104219139  0.9643682926425976  1.0000
  H   H269      1.0  0.22208962118299314  0.7327731847649691  0.9713109973823754  1.0000
  H   H270      1.0  0.20343507843851297  0.7341566972760659  0.9462670133275151  1.0000
  H   H271      1.0  0.2499748346716087  0.7417854664451399  0.950532067096796  1.0000
  H   H272      1.0  0.25968517135889846  0.679678571012255  0.9275141854452635  1.0000
  H   H273      1.0  0.22622459894125616  0.7040683332980401  0.9208048545133358  1.0000
  H   H274      1.0  0.27300999350355687  0.7107042081350633  0.9254975845443736  1.0000
  H   H275      1.0  0.18682208408940246  0.6912258394725347  0.9490550705250684  1.0000
  H   H276      1.0  0.20493483337434668  0.6894183823697516  0.9742278555957617  1.0000
  H   H277      1.0  0.22105432486545323  0.66727847464652  0.9557871708772241  1.0000
  H   H278      1.0  0.2854532671644414  0.6773588727405391  0.962195060161086  1.0000
  H   H279      1.0  0.2692584122843674  0.6992691559233397  0.9807345684312475  1.0000
  H   H280      1.0  0.2976926381713709  0.7086336863214472  0.9603282774474654  1.0000
  N   N3        1.0  0.733199048477247  0.6162727625774052  0.5643632025949273  1.0000
  C   C393      1.0  0.7153997543705235  0.6136962009496765  0.5445545832245113  1.0000
  C   C394      1.0  0.751915837769409  0.6394905226545243  0.5646446907577011  1.0000
  C   C395      1.0  0.7605107789598814  0.5952159538465314  0.5677176505083272  1.0000
  C   C396      1.0  0.7050792601351651  0.6167074511890599  0.5804662790259962  1.0000
  H   H281      1.0  0.7009540354323901  0.5963913556421417  0.5437507416024829  1.0000
  H   H282      1.0  0.7361034650929286  0.6131918593805856  0.5321321800452788  1.0000
  H   H283      1.0  0.6949287067694983  0.6293974607159671  0.5413564577186275  1.0000
  H   H284      1.0  0.7663545063857727  0.6418822108337411  0.5791769892291176  1.0000
  H   H285      1.0  0.7728481100972836  0.6399216729924018  0.5524588624752955  1.0000
  H   H286      1.0  0.732146546869524  0.6558235872870526  0.5624704418981458  1.0000
  H   H287      1.0  0.77445666725141  0.5964457968535034  0.5825411942779444  1.0000
  H   H288      1.0  0.7823066454287855  0.5944711952289314  0.5558847086738828  1.0000
  H   H289      1.0  0.7474274464364272  0.5773680029221292  0.5674187222519617  1.0000
  H   H290      1.0  0.7176239053055344  0.6190344460095693  0.5955676441889257  1.0000
  H   H291      1.0  0.6907840365344974  0.5993049458786399  0.5809712045446215  1.0000
  H   H292      1.0  0.6838241605517388  0.632226648974575  0.578314315293188  1.0000
  N   N4        1.0  0.9364246548834569  0.17525130263556468  0.19856505062315707  1.0000
  C   C397      1.0  0.9636347099285003  0.17418272671936402  0.2151334431686726  1.0000
  C   C398      1.0  0.9037232150952278  0.16248206634925258  0.2048207651243292  1.0000
  C   C399      1.0  0.9530630556202684  0.1630482533133754  0.18061868695517216  1.0000
  C   C400      1.0  0.9251752609191912  0.20125885195204263  0.1936900276686093  1.0000
  H   H293      1.0  0.9887008169729522  0.18366613595047923  0.211010066119834  1.0000
  H   H294      1.0  0.9728402140005061  0.15481087094030244  0.21918203376933834  1.0000
  H   H295      1.0  0.9519002746032917  0.18310991978029176  0.22896185239085395  1.0000
  H   H296      1.0  0.8824129363915254  0.16317468557333986  0.1927528684085404  1.0000
  H   H297      1.0  0.9109298916946283  0.142753773746228  0.20858249452839717  1.0000
  H   H298      1.0  0.8905443269312594  0.17124804620839737  0.21832449936784243  1.0000
  H   H299      1.0  0.9618893618117917  0.14339978384605512  0.18388527023488582  1.0000
  H   H300      1.0  0.9777440332694256  0.17226343031243851  0.1754096404033196  1.0000
  H   H301      1.0  0.9330930263033426  0.16337968538236247  0.1678939102777423  1.0000
  H   H302      1.0  0.9106622341071146  0.21065294014559355  0.20660138997460678  1.0000
  H   H303      1.0  0.9056596122671332  0.20274678387412304  0.18074732847022035  1.0000
  H   H304      1.0  0.9492239024942504  0.21183927032651215  0.18971137737667335  1.0000
  N   N5        1.0  0.9416328683873761  0.38619633013502264  0.15922632556059435  1.0000
  C   C401      1.0  0.9414807805293024  0.4062941897275268  0.17407265539688951  1.0000
  C   C402      1.0  0.9044032309828429  0.3854049766152653  0.1504730109195137  1.0000
  C   C403      1.0  0.9521352061792635  0.3624032471316599  0.16929349188096715  1.0000
  C   C404      1.0  0.9684151589447935  0.3906700137221895  0.14311434868045875  1.0000
  H   H305      1.0  0.9206922768788838  0.40387528619213614  0.18604357011138184  1.0000
  H   H306      1.0  0.9346733656107468  0.4246219358404082  0.16696787185380366  1.0000
  H   H307      1.0  0.9686075831010592  0.4067969143040155  0.18178174890782497  1.0000
  H   H308      1.0  0.9030497332879402  0.3703407662324542  0.13932383045696414  1.0000
  H   H309      1.0  0.8836853738959587  0.38205639500921484  0.16232630935537143  1.0000
  H   H310      1.0  0.8951286388121285  0.4030323511218624  0.14284456778782942  1.0000
  H   H311      1.0  0.953909403076632  0.3469137901062982  0.158441191375189  1.0000
  H   H312      1.0  0.9315759747694021  0.35794876725305924  0.18092041614971927  1.0000
  H   H313      1.0  0.9791093557116788  0.36271832404303506  0.17717689803861086  1.0000
  H   H314      1.0  0.9691639039166688  0.37587041875844984  0.1316191790963586  1.0000
  H   H315      1.0  0.9967522929503738  0.3913392550003978  0.14932959046650313  1.0000
  H   H316      1.0  0.9612743207811001  0.40848959276165875  0.13521974982809123  1.0000
  N   N6        1.0  0.15912023578595963  0.12906835379638806  0.3610226859204209  1.0000
  C   C405      1.0  0.11982879330590578  0.13750750723781463  0.3587682454786418  1.0000
  C   C406      1.0  0.1668588157304932  0.10634176171542169  0.34928009415172484  1.0000
  C   C407      1.0  0.16760004226913278  0.12396748226296596  0.38249470409013026  1.0000
  C   C408      1.0  0.18223454823157867  0.1484197687475642  0.35347201037527287  1.0000
  H   H317      1.0  0.10156406341100854  0.12325950472719284  0.36417073986460785  1.0000
  H   H318      1.0  0.11270732272523971  0.1413693193090351  0.34268169280623034  1.0000
  H   H319      1.0  0.11288546646126414  0.15464651896558296  0.36738793879209874  1.0000
  H   H320      1.0  0.19608317240183462  0.09912313448149065  0.3509615849949214  1.0000
  H   H321      1.0  0.1491645197133962  0.09150096493064276  0.3541480286027094  1.0000
  H   H322      1.0  0.1616117409381722  0.10967742297104888  0.3329303789028211  1.0000
  H   H323      1.0  0.1504854835199151  0.10953958137034273  0.3886946993557168  1.0000
  H   H324      1.0  0.16258257134608706  0.14079020057405822  0.39181408955735597  1.0000
  H   H325      1.0  0.19705581139027867  0.11732704576367214  0.3845945427666295  1.0000
  H   H326      1.0  0.21202676659048617  0.1428948083473953  0.35542839783274227  1.0000
  H   H327      1.0  0.1766314923467267  0.16605090331783148  0.36164986339639554  1.0000
  H   H328      1.0  0.1774359374721648  0.1522063131261464  0.3371169043605997  1.0000
  N   N7        1.0  0.5640250260422477  0.57866277508759  0.7791342795453681  1.0000
  C   C409      1.0  0.5662252739111274  0.5760877717910505  0.8012873292766649  1.0000
  C   C410      1.0  0.5471743360549441  0.6033539345691685  0.7738469643308078  1.0000
  C   C411      1.0  0.5411479194698323  0.5596608765360052  0.7709702599443972  1.0000
  C   C412      1.0  0.6014410409014616  0.5756352976680932  0.7703540606440813  1.0000
  H   H329      1.0  0.5794395757251642  0.5578307085196427  0.8058609561751301  1.0000
  H   H330      1.0  0.5382872813718677  0.5777586175455753  0.8082684568935713  1.0000
  H   H331      1.0  0.5825070852059235  0.5904765933901056  0.8080317623119949  1.0000
  H   H332      1.0  0.5468293982144489  0.6062210215653664  0.7572887610437131  1.0000
  H   H333      1.0  0.518127004997387  0.6059093276263705  0.7791803313932887  1.0000
  H   H334      1.0  0.5627853301789706  0.6182405475282898  0.7803523855975841  1.0000
  H   H335      1.0  0.5122318085663562  0.5619803044129241  0.7765737436526056  1.0000
  H   H336      1.0  0.5522169133573458  0.5407581970204091  0.7752139173560543  1.0000
  H   H337      1.0  0.5396998693157895  0.5606163013198383  0.7542247315746523  1.0000
  H   H338      1.0  0.6006155636669791  0.5776025585157676  0.7536208571450378  1.0000
  H   H339      1.0  0.615048937650632  0.5571673288687876  0.773891954001735  1.0000
  H   H340      1.0  0.6194811565690398  0.5897742484148734  0.7760227967142846  1.0000
  N   N8        1.0  0.2452257174128482  0.6106640435267255  0.7479635630544186  1.0000
  C   C413      1.0  0.23325425984872314  0.6360648773309283  0.7539183712773745  1.0000
  C   C414      1.0  0.27192107936181525  0.611572097428816  0.7312280293258726  1.0000
  C   C415      1.0  0.21294081535912376  0.5977505236698896  0.7414512537150225  1.0000
  C   C416      1.0  0.26295074653537553  0.5973377636273901  0.7652767100772967  1.0000
  H   H341      1.0  0.21751746564359728  0.6461016296665963  0.7416684885115472  1.0000
  H   H342      1.0  0.25741041493869826  0.6467446589362472  0.7573401602117001  1.0000
  H   H343      1.0  0.21557937334325125  0.636351063826834  0.7676267492368419  1.0000
  H   H344      1.0  0.2965584710880387  0.6213120888646364  0.7357341597000447  1.0000
  H   H345      1.0  0.2820725885214974  0.5928183622475065  0.726480573233103  1.0000
  H   H346      1.0  0.2594495977510182  0.6212494871506719  0.7178009401518171  1.0000
  H   H347      1.0  0.19974884608595989  0.6064834466711455  0.7277997062684802  1.0000
  H   H348      1.0  0.19179492278698362  0.5975116216917482  0.7535349768996241  1.0000
  H   H349      1.0  0.22093413797783187  0.5782696486062973  0.7376534259762623  1.0000
  H   H350      1.0  0.2880457494702168  0.6060719607366427  0.7701749081136569  1.0000
  H   H351      1.0  0.27169520195687635  0.5779563259606961  0.761431687446307  1.0000
  H   H352      1.0  0.2441716800513644  0.5968989830805947  0.7784763606489133  1.0000
  N   N9        1.0  0.509301902980443  0.6945374675891081  0.9895464350567456  1.0000
  C   C417      1.0  0.5133338924820819  0.6694887181263015  0.9810061721308629  1.0000
  C   C418      1.0  0.5443509568851136  0.7064435994755227  0.9874075551104429  1.0000
  C   C419      1.0  0.49969283144909  0.6928963834501459  0.011099240486518669  1.0000
  C   C420      1.0  0.4796737631224447  0.7092965244725231  0.9787891150116347  1.0000
  H   H353      1.0  0.4873845446362563  0.6599620395242766  0.9825546255269212  1.0000
  H   H354      1.0  0.5351922551903184  0.6577260279589842  0.988928617538832  1.0000
  H   H355      1.0  0.5205160298363999  0.6698331771045559  0.9647290748344697  1.0000
  H   H356      1.0  0.5420822274238075  0.7253931234879836  0.9937172955558586  1.0000
  H   H357      1.0  0.5671302037266422  0.6957842422226059  0.9955115300718984  1.0000
  H   H358      1.0  0.552547290136144  0.7079056982385459  0.9713166130806095  1.0000
  H   H359      1.0  0.47299073434087247  0.6845768398074847  0.013037942301169947  1.0000
  H   H360      1.0  0.4965332851741926  0.7114090818157345  0.01819147165461299  1.0000
  H   H361      1.0  0.5206849296100091  0.6812366252634285  0.019725962010932463  1.0000
  H   H362      1.0  0.486072389821249  0.7113402726935613  0.9625153409640795  1.0000
  H   H363      1.0  0.47506228727353833  0.7280746224654177  0.9853108855060569  1.0000
  H   H364      1.0  0.452901855780761  0.7006330497317856  0.9800046883154194  1.0000
  N   N10       1.0  0.4695100118403526  0.9243062641697217  0.8834934261093449  1.0000
  C   C421      1.0  0.48279846428049905  0.9011085631930383  0.8736343481956055  1.0000
  C   C422      1.0  0.4588523666122124  0.9190916792782503  0.9045052822721233  1.0000
  C   C423      1.0  0.43724877447206856  0.9355137045888052  0.8724040082211062  1.0000
  C   C424      1.0  0.49922918430561636  0.9414802922474799  0.8833848801020818  1.0000
  H   H365      1.0  0.46111824345742114  0.8876869094561098  0.8734747883254274  1.0000
  H   H366      1.0  0.5072752128170842  0.8922459443184915  0.8815979654428437  1.0000
  H   H367      1.0  0.4909873289978823  0.9044395957290877  0.8577282324862464  1.0000
  H   H368      1.0  0.4504911011816957  0.936365215277668  0.9127098886924768  1.0000
  H   H369      1.0  0.43553265496167326  0.906972736768506  0.9052411938014285  1.0000
  H   H370      1.0  0.48222186424418195  0.9097449979389127  0.9130872988199442  1.0000
  H   H371      1.0  0.4138336582821633  0.9234563763052575  0.8725943887496312  1.0000
  H   H372      1.0  0.444024271147252  0.9389100314538746  0.856319883321595  1.0000
  H   H373      1.0  0.4272645719084951  0.9535458437659333  0.8789352167486596  1.0000
  H   H374      1.0  0.49043040768389123  0.9591178238832154  0.8909452560363558  1.0000
  H   H375      1.0  0.5077294004517061  0.9460547004604652  0.8677801057792353  1.0000
  H   H376      1.0  0.5241197460166162  0.9335678612796551  0.891530226772102  1.0000
  N   N11       1.0  0.9527208259060378  0.5569803859917662  0.7181416441790682  1.0000
  C   C425      1.0  0.9426208690510433  0.5312554955701935  0.7201913785062329  1.0000
  C   C426      1.0  0.9260816297394336  0.5733956208194219  0.7294344254709  1.0000
  C   C427      1.0  0.9522242269718371  0.5641673062592826  0.6966156590290263  1.0000
  C   C428      1.0  0.9901187577067715  0.5590218503665263  0.7263336260156539  1.0000
  H   H377      1.0  0.9630235317721038  0.5182210729613594  0.7125222887375768  1.0000
  H   H378      1.0  0.9150857524532031  0.5287841871452784  0.7135488594224635  1.0000
  H   H379      1.0  0.9416319222419989  0.5255173562274662  0.7362945042171019  1.0000
  H   H380      1.0  0.925912079849066  0.5685026768859556  0.7457773740495723  1.0000
  H   H381      1.0  0.9328336465657731  0.5929722708991254  0.7282601417826053  1.0000
  H   H382      1.0  0.8974804519699584  0.5722445604691323  0.7237683473514855  1.0000
  H   H383      1.0  0.9724083352315934  0.5522717698679348  0.6877488061454707  1.0000
  H   H384      1.0  0.9597704591743959  0.5834871771971933  0.6944644624418844  1.0000
  H   H385      1.0  0.9245763513020213  0.562711981549014  0.6897763164134644  1.0000
  H   H386      1.0  0.9991199976868289  0.5780311645409546  0.724581954772244  1.0000
  H   H387      1.0  0.010688847832546422  0.5464525654442288  0.7183869618473011  1.0000
  H   H388      1.0  0.9915060332242933  0.554030613924919  0.7426281503030312  1.0000
  N   N12       1.0  0.6700578371039559  0.23114273308376715  0.10489129075948277  1.0000
  C   C429      1.0  0.7073345144215295  0.21856782545223255  0.10365284181093604  1.0000
  C   C430      1.0  0.6638577346103482  0.24089933496187022  0.1254197906160336  1.0000
  C   C431      1.0  0.6423217300534817  0.21338549716308183  0.10040631226492777  1.0000
  C   C432      1.0  0.6667078062687372  0.25164494298950996  0.09012969550275  1.0000
  H   H389      1.0  0.7109392774480343  0.2032901296179175  0.11489676687717387  1.0000
  H   H390      1.0  0.7291026231952563  0.2314600913243824  0.1065528252463586  1.0000
  H   H391      1.0  0.7125006047558695  0.21026463182593444  0.08855016259503735  1.0000
  H   H392      1.0  0.6359097116025119  0.25046264720233247  0.1268921223107434  1.0000
  H   H393      1.0  0.6662279564256335  0.22586047547845708  0.1369328477087693  1.0000
  H   H394      1.0  0.6843344393102989  0.25436857941957935  0.12932603975816848  1.0000
  H   H395      1.0  0.6137190271718197  0.22207125394379296  0.10130721755779128  1.0000
  H   H396      1.0  0.6445068309212214  0.19753555340141002  0.1111479022422801  1.0000
  H   H397      1.0  0.6459770682477963  0.20571342117171312  0.08497860693342273  1.0000
  H   H398      1.0  0.6874372667296944  0.2653286199176608  0.0928713466214778  1.0000
  H   H399      1.0  0.639042514482211  0.26168012411743596  0.0908760567285283  1.0000
  H   H400      1.0  0.6706166351397531  0.2449144101953515  0.07442885653418689  1.0000
  N   N13       1.0  0.02023628473723747  0.6629805317922552  0.5758788364332488  1.0000
  C   C433      1.0  0.05930381776843063  0.6629053538761691  0.5698177898769042  1.0000
  C   C434      1.0  0.005010204517066338  0.6886065931318783  0.5788321965791717  1.0000
  C   C435      1.0  0.01724570968619309  0.6488994415618347  0.5948683804536775  1.0000
  C   C436      1.0  0.9991685318583127  0.6514367971553429  0.5599537701718591  1.0000
  H   H401      1.0  0.0714500355526925  0.6437729727661112  0.5675027368763093  1.0000
  H   H402      1.0  0.07603944387753031  0.6715123430137546  0.5814952417371065  1.0000
  H   H403      1.0  0.0623583102390631  0.6732804197749468  0.5554594718388242  1.0000
  H   H404      1.0  0.020161640231265435  0.6980194827268881  0.5907111736234699  1.0000
  H   H405      1.0  0.00617825187627073  0.6996872445604911  0.5646850966139971  1.0000
  H   H406      1.0  0.975462461171925  0.6892474851519717  0.5833458153121318  1.0000
  H   H407      1.0  0.03316036606891365  0.6567304907950522  0.6072710350726148  1.0000
  H   H408      1.0  0.02752469443126117  0.6292661509972444  0.5930454303702863  1.0000
  H   H409      1.0  0.9880593342908052  0.6488631930123281  0.5998888211397267  1.0000
  H   H410      1.0  0.9995838451190331  0.6619209522375451  0.5454947270366463  1.0000
  H   H411      1.0  0.9699071520354555  0.6507096530879457  0.5643870088633433  1.0000
  H   H412      1.0  0.009844291954963934  0.6320811363073311  0.5571370547949192  1.0000
  N   N14       1.0  0.6707146324786509  0.9701775363197925  0.8321451839070522  1.0000
  C   C437      1.0  0.6400450364415463  0.9838524010302665  0.8213811184422833  1.0000
  C   C438      1.0  0.6635410721120377  0.9711861046544166  0.8540529458670394  1.0000
  C   C439      1.0  0.7055733365721195  0.9814565376309249  0.82758274712665  1.0000
  C   C440      1.0  0.6736615979240279  0.94421764565501  0.8255956288147349  1.0000
  H   H413      1.0  0.6133905354785952  0.9755735177586569  0.8242563577003874  1.0000
  H   H414      1.0  0.6448054288779614  0.9841267477967082  0.8048435296729817  1.0000
  H   H415      1.0  0.6364018879422151  0.0033164925879580766  0.8265407037332176  1.0000
  H   H416      1.0  0.6858749967294138  0.9609410182474345  0.86279674149372  1.0000
  H   H417      1.0  0.6613453323433736  0.9905014121487999  0.8595713712333807  1.0000
  H   H418      1.0  0.6371354807320894  0.9631574336098404  0.8579562922269514  1.0000
  H   H419      1.0  0.7046372104888284  0.0010066324528090736  0.8324850524920603  1.0000
  H   H420      1.0  0.7118547151126033  0.9811667927743449  0.811182117811611  1.0000
  H   H421      1.0  0.7293227855677927  0.9714787872002916  0.8353663371982215  1.0000
  H   H422      1.0  0.6967331060339743  0.9334931637972301  0.83343455076785  1.0000
  H   H423      1.0  0.679046700225687  0.9427268132341147  0.8091232268480122  1.0000
  H   H424      1.0  0.6479599458908532  0.9350288170223119  0.8289510547756359  1.0000
  N   N15       1.0  0.23718815509119362  0.40479757878725176  0.23398171381322802  1.0000
  C   C441      1.0  0.2071558616288337  0.4219650601326257  0.24157566083941223  1.0000
  C   C442      1.0  0.25868845694892256  0.39393103482028546  0.2511386151636258  1.0000
  C   C443      1.0  0.26161578968271093  0.41827977256142623  0.22071448093040616  1.0000
  C   C444      1.0  0.22118681508807805  0.3849934497874542  0.22251375429577563  1.0000
  H   H425      1.0  0.18806119111222944  0.4123905849064278  0.25157682185955077  1.0000
  H   H426      1.0  0.1903923427839634  0.43053089698944547  0.2290230706166514  1.0000
  H   H427      1.0  0.2180568391728114  0.43723732867685966  0.2503457402168031  1.0000
  H   H428      1.0  0.2704341658072026  0.4084475620582986  0.2603808151214946  1.0000
  H   H429      1.0  0.24123365522109877  0.3832078607616504  0.2612566133120942  1.0000
  H   H430      1.0  0.2819828693760541  0.3811880245271454  0.2459844393704944  1.0000
  H   H431      1.0  0.28513908347080286  0.4061386498225917  0.2150094236912678  1.0000
  H   H432      1.0  0.27325653323546295  0.4338883369617018  0.2287088678547737  1.0000
  H   H433      1.0  0.2465720867414208  0.4262445345938196  0.2073141731228914  1.0000
  H   H434      1.0  0.24302282934478311  0.37163286179613325  0.21657318816381843  1.0000
  H   H435      1.0  0.2047710720401361  0.39261110471403016  0.20945303653376138  1.0000
  H   H436      1.0  0.20244927014748623  0.37457556563630084  0.23213952955031666  1.0000
  N   N16       1.0  0.8606142378698188  0.9194441417167568  0.7360202587445694  1.0000
  C   C445      1.0  0.8515649060295268  0.9248562988005455  0.7146699431265376  1.0000
  C   C446      1.0  0.8997593221401399  0.9235554723942624  0.7397540904126115  1.0000
  C   C447      1.0  0.8539428892476638  0.8935529694621581  0.740743422801114  1.0000
  C   C448      1.0  0.8371125847420503  0.9358598119361377  0.7490351201978677  1.0000
  H   H437      1.0  0.8221901334038368  0.9219136160951866  0.7113697294057375  1.0000
  H   H438      1.0  0.8688820353984533  0.9128413045959555  0.7043848049124387  1.0000
  H   H439      1.0  0.8561807638142154  0.9443315773967248  0.7107231763061085  1.0000
  H   H440      1.0  0.9058680936552708  0.9428257854564117  0.7360040313137416  1.0000
  H   H441      1.0  0.9071661789897162  0.9203954543500763  0.7558938542295969  1.0000
  H   H442      1.0  0.9184741109814241  0.9111370125210101  0.730539103270569  1.0000
  H   H443      1.0  0.8602125808611737  0.8890114617275201  0.756847965718788  1.0000
  H   H444      1.0  0.8712686585961594  0.88053620429973  0.7312981254171118  1.0000
  H   H445      1.0  0.8245954801987536  0.8898850270172218  0.7381390211118888  1.0000
  H   H446      1.0  0.8431834213836885  0.9319610910496686  0.765195061035024  1.0000
  H   H447      1.0  0.8073068472872879  0.9333607176485451  0.7466909489043131  1.0000
  H   H448      1.0  0.8417804356888045  0.9556052418504619  0.7462177196772924  1.0000
  N   N17       1.0  0.5770964488667943  0.5483530688665254  0.31004489556688075  1.0000
  C   C449      1.0  0.5578651204820089  0.5286008057776798  0.3200538486499492  1.0000
  C   C450      1.0  0.5985390078129187  0.5380870917720234  0.2927574576095648  1.0000
  C   C451      1.0  0.602343587960743  0.5588916997448834  0.3245687224657078  1.0000
  C   C452      1.0  0.5496268858530993  0.5677253583650115  0.30282215191922746  1.0000
  H   H449      1.0  0.5410204649612929  0.5356597156128247  0.33303180308173086  1.0000
  H   H450      1.0  0.5779043058611931  0.5139705902787344  0.32601101072110034  1.0000
  H   H451      1.0  0.5390532157930562  0.5197926252810764  0.3095054148840146  1.0000
  H   H452      1.0  0.6136268111753176  0.5524373064440222  0.2849127708670648  1.0000
  H   H453      1.0  0.6194880576292715  0.5233379028686325  0.29767903169544385  1.0000
  H   H454      1.0  0.5804771570676588  0.5298179270149885  0.2815336258201932  1.0000
  H   H455      1.0  0.6234504805771584  0.5446065451939621  0.3302124907341719  1.0000
  H   H456      1.0  0.5872548020309746  0.5665492414274094  0.3379518309935771  1.0000
  H   H457      1.0  0.6174413265717689  0.5738604956359128  0.31759311030930315  1.0000
  H   H458      1.0  0.530004033013718  0.5601452856163234  0.29199718849392126  1.0000
  H   H459      1.0  0.5630825288567475  0.5828984915619974  0.2950482588678324  1.0000
  H   H460      1.0  0.5330445984140799  0.5759092967734837  0.3155081097410985  1.0000
  N   N18       1.0  0.578007112035159  0.7376057760895304  0.7097575374458273  1.0000
  C   C453      1.0  0.5441470215852345  0.7286189074271725  0.718648857967956  1.0000
  C   C454      1.0  0.6086137228639152  0.7185009426592409  0.7122479475002753  1.0000
  C   C455      1.0  0.587213445350492  0.7603908269874752  0.7200040758642823  1.0000
  C   C456      1.0  0.5721109036270778  0.742813158205115  0.6880765103458317  1.0000
  H   H461      1.0  0.5203884434949204  0.7425408097297223  0.7171566700226075  1.0000
  H   H462      1.0  0.5479181216063788  0.724219007303219  0.7349572106588983  1.0000
  H   H463      1.0  0.536494367807422  0.7113922338229329  0.7112373618470686  1.0000
  H   H464      1.0  0.6347446681396635  0.7245396303143604  0.7057396312284538  1.0000
  H   H465      1.0  0.6136894060138592  0.7139355055642279  0.7284147865851494  1.0000
  H   H466      1.0  0.6024104389840268  0.7010899818562492  0.7047024588326132  1.0000
  H   H467      1.0  0.6126240477626728  0.7676998505499044  0.7136333208885612  1.0000
  H   H468      1.0  0.5921601662024472  0.757202635752739  0.7363963237060196  1.0000
  H   H469      1.0  0.5647497854128897  0.7752595156450476  0.718500979036364  1.0000
  H   H470      1.0  0.5972851198665169  0.7495690642954091  0.680961980081298  1.0000
  H   H471      1.0  0.5492096558315762  0.7571878203134754  0.6856091315662456  1.0000
  H   H472      1.0  0.565197264160857  0.7259711903399197  0.6798803444968754  1.0000
  N   N19       1.0  0.8104105317594281  0.7514821628169704  0.6110107078700524  1.0000
  C   C457      1.0  0.7798054469141784  0.7664241691342176  0.6206137921716981  1.0000
  C   C458      1.0  0.7964559161054521  0.7388035671049622  0.5932670905658634  1.0000
  C   C459      1.0  0.8261881732754945  0.7329228683800202  0.6255571109921195  1.0000
  C   C460      1.0  0.8391718344431455  0.7677429388795334  0.60456921281032  1.0000
  H   H473      1.0  0.7672400245084929  0.7806049080631408  0.6100200095276056  1.0000
  H   H474      1.0  0.7893752201167713  0.7763291228161724  0.6340404926898127  1.0000
  H   H475      1.0  0.7575854554722056  0.7547637819902507  0.6257132379021817  1.0000
  H   H476      1.0  0.8188688748304971  0.7272371480826045  0.5857603372216302  1.0000
  H   H477      1.0  0.7748112702398902  0.7262711708607464  0.5975940542268663  1.0000
  H   H478      1.0  0.7845252057682014  0.752193511078313  0.5818728847076664  1.0000
  H   H479      1.0  0.84883215524565  0.7209773899882644  0.6186350700469379  1.0000
  H   H480      1.0  0.8050607987319217  0.7204559217864329  0.630808336211365  1.0000
  H   H481      1.0  0.8374093532965219  0.741717585681848  0.6390776009447091  1.0000
  H   H482      1.0  0.8623349777690774  0.7572326432165478  0.5967771946648056  1.0000
  H   H483      1.0  0.8508333892879469  0.777345168041811  0.617568587919855  1.0000
  H   H484      1.0  0.8279175682586204  0.7822612608968715  0.5938727268308825  1.0000
  N   N20       1.0  0.8967942472980941  0.5700313361820414  0.9055522647285416  1.0000
  C   C461      1.0  0.937342254175816  0.5700480056352203  0.9041339853690324  1.0000
  C   C462      1.0  0.8797242997646243  0.5896049784883433  0.8923320615131038  1.0000
  C   C463      1.0  0.8851148931058604  0.574690424005244  0.9265746845540166  1.0000
  C   C464      1.0  0.8849520556986746  0.5458573486775837  0.8991447240063236  1.0000
  H   H485      1.0  0.951382933283281  0.5557290148051501  0.9140437978133278  1.0000
  H   H486      1.0  0.9472180226429084  0.5882275150493737  0.9083577855356147  1.0000
  H   H487      1.0  0.9469650454977249  0.5663960470033329  0.8884918270116511  1.0000
  H   H488      1.0  0.8491351473256111  0.590559385685595  0.8933040580221945  1.0000
  H   H489      1.0  0.8889620319039793  0.6080377679960678  0.8962893152393447  1.0000
  H   H490      1.0  0.8874800749945136  0.5863777800486529  0.876325404899322  1.0000
  H   H491      1.0  0.8936105685992728  0.5928092223287713  0.9318504300815792  1.0000
  H   H492      1.0  0.8974447311427968  0.5602294904797497  0.9369716388714632  1.0000
  H   H493      1.0  0.8545907396019766  0.5748495280292536  0.9281165532508858  1.0000
  H   H494      1.0  0.8981776688292893  0.5305164033452472  0.9083424260207543  1.0000
  H   H495      1.0  0.8921359645549183  0.5420600979343531  0.883099003956507  1.0000
  H   H496      1.0  0.8545797371435867  0.5449537176632879  0.9005588090080953  1.0000
  N   N21       1.0  0.45688236179876435  0.5723616586241076  0.15645841576458117  1.0000
  C   C465      1.0  0.41997396386611374  0.5640163313738686  0.16088974220979554  1.0000
  C   C466      1.0  0.45569905298843816  0.5864719059713398  0.1373155979807851  1.0000
  C   C467      1.0  0.4835311679560686  0.550702592972018  0.1546525576705177  1.0000
  C   C468      1.0  0.4681969102134424  0.5881374167193729  0.17302965173335266  1.0000
  H   H497      1.0  0.4193308593920548  0.5545343712732252  0.17575740213801438  1.0000
  H   H498      1.0  0.41155390841061185  0.550736371373244  0.14942618031956534  1.0000
  H   H499      1.0  0.3986333828844633  0.5796888282632389  0.16123346037853029  1.0000
  H   H500      1.0  0.4829744061161937  0.5933183704992483  0.1335520955031984  1.0000
  H   H501      1.0  0.4475750608307114  0.5749176907653301  0.12452609176008526  1.0000
  H   H502      1.0  0.43533364906565764  0.6027259331377456  0.13792938805915272  1.0000
  H   H503      1.0  0.47574649835233807  0.5384516928609828  0.1422132647684899  1.0000
  H   H504      1.0  0.484679702734436  0.5394500331704138  0.16876394498582215  1.0000
  H   H505      1.0  0.511804553972517  0.5562464187122204  0.1514892791246024  1.0000
  H   H506      1.0  0.4959292678518442  0.5948587641391851  0.17024322742985717  1.0000
  H   H507      1.0  0.4693333740207873  0.5778571201032224  0.18765527462212173  1.0000
  H   H508      1.0  0.4483997367209899  0.6045181932990389  0.174881749871066  1.0000
  N   N22       1.0  0.31037803079616244  0.43183898731157283  0.4485214279816141  1.0000
  C   C469      1.0  0.2942587929494442  0.43105913810875496  0.4281449621963229  1.0000
  C   C470      1.0  0.3322884775774979  0.40846060516071714  0.4527697689187243  1.0000
  C   C471      1.0  0.28043660820862837  0.43530051424156163  0.46352452154855406  1.0000
  C   C472      1.0  0.3345994931901452  0.45247394406836033  0.44952692186391396  1.0000
  H   H509      1.0  0.31604669783909745  0.42879065017552115  0.4163997574060856  1.0000
  H   H510      1.0  0.27693523089079025  0.4481754981776583  0.4245064192894378  1.0000
  H   H511      1.0  0.276410312204916  0.41544681606293254  0.42671756481388456  1.0000
  H   H512      1.0  0.34549573873764927  0.40857991497071117  0.46787097576925485  1.0000
  H   H513      1.0  0.31476450088152275  0.3925001912491818  0.4525003160385506  1.0000
  H   H514      1.0  0.3546533331450066  0.40499906772461125  0.4414200075812288  1.0000
  H   H515      1.0  0.261489398571104  0.42008690153902967  0.46288997151279365  1.0000
  H   H516      1.0  0.2633764571769191  0.45280229837597574  0.46083410617283255  1.0000
  H   H517      1.0  0.2914611311301434  0.43566596652095385  0.4791409371393761  1.0000
  H   H518      1.0  0.3473221071032492  0.4536976757406136  0.46468847548756376  1.0000
  H   H519      1.0  0.3191032583108604  0.47041019133469625  0.4462111782831433  1.0000
  H   H520      1.0  0.35746388570830595  0.45015730117026254  0.4383238689157795  1.0000
  N   N23       1.0  0.1266846161611889  0.8940208089004005  0.6564096733705024  1.0000
  C   C473      1.0  0.1179280085830967  0.8993461091434218  0.677735802510876  1.0000
  C   C474      1.0  0.0977544496019815  0.8795730802916611  0.6476920326737531  1.0000
  C   C475      1.0  0.16289548388172234  0.8800129134594745  0.6551162703443855  1.0000
  C   C476      1.0  0.1281307198201461  0.9173974040772123  0.6451197207698475  1.0000
  H   H521      1.0  0.1387627801273128  0.9107954721329392  0.6846282197115481  1.0000
  H   H522      1.0  0.11718470416744273  0.8821700523023351  0.686850935861308  1.0000
  H   H523      1.0  0.09046085730289864  0.90962003081374  0.6792381881657671  1.0000
  H   H524      1.0  0.07013672063091679  0.889812329556474  0.6486155524166316  1.0000
  H   H525      1.0  0.10305596171845592  0.875571692196784  0.6314957631448798  1.0000
  H   H526      1.0  0.09582555041228989  0.8617446647410867  0.6557821450180497  1.0000
  H   H527      1.0  0.185091344324597  0.8906927087911191  0.6616109642502245  1.0000
  H   H528      1.0  0.17050650873500334  0.875854435760212  0.6392070548473421  1.0000
  H   H529      1.0  0.16297717335395287  0.8622484238597935  0.6635220143907604  1.0000
  H   H530      1.0  0.1014926517789568  0.9285930441837639  0.6461960620823419  1.0000
  H   H531      1.0  0.13392451475104272  0.9142453218378056  0.6288624424693444  1.0000
  H   H532      1.0  0.14995317457425195  0.9286952421009265  0.651118712935954  1.0000
  N   N24       1.0  0.7818763992854983  0.4274865233932756  0.44762201178772926  1.0000
  C   C477      1.0  0.7539043131262919  0.44794693100149297  0.45148603509114626  1.0000
  C   C478      1.0  0.8115425036501083  0.4277428902166839  0.4628206748563832  1.0000
  C   C479      1.0  0.7976269799135255  0.4305144631065864  0.42732898834968036  1.0000
  C   C480      1.0  0.7645148461762418  0.40379450528686167  0.44874812178162293  1.0000
  H   H533      1.0  0.731433787214891  0.4485752625514292  0.44005010601793504  1.0000
  H   H534      1.0  0.7661598021190984  0.46611600509353796  0.4506243565107123  1.0000
  H   H535      1.0  0.7412228595605007  0.4463480815444302  0.4666276827901572  1.0000
  H   H536      1.0  0.8333958029059431  0.4127122956723385  0.4602019281461002  1.0000
  H   H537      1.0  0.8254740591805885  0.44531760894983435  0.46219208613619844  1.0000
  H   H538      1.0  0.8008428295133911  0.42557583081868705  0.4783671586158356  1.0000
  H   H539      1.0  0.8194021983069175  0.41572348006538834  0.4239036769732788  1.0000
  H   H540      1.0  0.8106664916609599  0.44823428403351634  0.4260816949837286  1.0000
  H   H541      1.0  0.7761261821465937  0.4307103838245776  0.41537887563779397  1.0000
  H   H542      1.0  0.7849824869384449  0.3880418998204293  0.44579964045590537  1.0000
  H   H543      1.0  0.7420900613998238  0.40308555389677697  0.43739391128328586  1.0000
  H   H544      1.0  0.7523179255023104  0.40086409013573643  0.46387254043817067  1.0000
  N   N25       1.0  0.022279225777395155  0.46741685282882806  0.556036763251302  1.0000
  C   C481      1.0  0.9921298864294609  0.4800911898472379  0.5441648452239627  1.0000
  C   C482      1.0  0.021483388533543476  0.476896739615745  0.5768506441430951  1.0000
  C   C483      1.0  0.05801138009051369  0.47194773939168105  0.546610696848867  1.0000
  C   C484      1.0  0.017544555392651203  0.44067680867533965  0.5564800125462805  1.0000
  H   H545      1.0  0.992259757751313  0.47335492473464474  0.5283327761973563  1.0000
  H   H546      1.0  0.9946957865860718  0.50033508576287  0.543546508310428  1.0000
  H   H547      1.0  0.9647059712495678  0.4768723797958821  0.5506934503851397  1.0000
  H   H548      1.0  0.02570439321241985  0.49694568707046827  0.5772038897291457  1.0000
  H   H549      1.0  0.9947793134388911  0.47405323151078876  0.5843794484479856  1.0000
  H   H550      1.0  0.04354735954230798  0.4673386394890056  0.5862326585914283  1.0000
  H   H551      1.0  0.08136121244727028  0.46247447831079125  0.5550245302163456  1.0000
  H   H552      1.0  0.06257043056073439  0.49192601378297623  0.5460866989233745  1.0000
  H   H553      1.0  0.05959356111907851  0.4650076814390363  0.5308928590264881  1.0000
  H   H554      1.0  0.04042973561861797  0.4304029161041078  0.564708376179575  1.0000
  H   H555      1.0  0.017078442041161813  0.43300233948311717  0.5410298252427607  1.0000
  H   H556      1.0  0.9914155076553874  0.4364311315349634  0.5640097809651553  1.0000
  N   N26       1.0  0.504444004032833  0.010947456739801133  0.9881685159275106  1.0000
  C   C485      1.0  0.4812382928343004  0.0252824886007268  0.9733457100868733  1.0000
  C   C486      1.0  0.513829496403415  0.027085109021480758  0.004926625705206522  1.0000
  C   C487      1.0  0.5386582673929583  0.0011819935464905129  0.978254570137425  1.0000
  C   C488      1.0  0.48430022825908475  0.9902312881732152  0.9960205077403302  1.0000
  H   H557      1.0  0.4744622111569529  0.01377299843276436  0.9602463630192194  1.0000
  H   H558      1.0  0.49560887798460124  0.041168861249612755  0.9672690947907541  1.0000
  H   H559      1.0  0.4549173112781589  0.03277506611419718  0.9801620966512551  1.0000
  H   H560      1.0  0.531637282412118  0.01685873462351628  0.01627136349475289  1.0000
  H   H561      1.0  0.5292028450441459  0.04283134157760029  0.9994150975740428  1.0000
  H   H562      1.0  0.4886954751474532  0.03490648995041443  0.01275936258888355  1.0000
  H   H563      1.0  0.5565321755792899  0.9896469516527853  0.9887509696774064  1.0000
  H   H564      1.0  0.5550347720912254  0.01631768488575669  0.9726646007325371  1.0000
  H   H565      1.0  0.5325897175773624  0.989649735763095  0.9650545736567743  1.0000
  H   H566      1.0  0.4776058282632724  0.9774136086430151  0.9837641962380088  1.0000
  H   H567      1.0  0.45796477258120394  0.9967709995174292  0.0033493276122757987  1.0000
  H   H568      1.0  0.5009063607142492  0.9791211760032  0.007391266134254337  1.0000
  N   N27       1.0  0.09903110547814688  0.6002092607071969  0.8263046819696754  1.0000
  C   C489      1.0  0.07964324142734082  0.6229192677950728  0.8341552243643358  1.0000
  C   C490      1.0  0.07265374953792593  0.5809557734735685  0.8240841173145649  1.0000
  C   C491      1.0  0.12856706040492635  0.591558455135066  0.8404744096914876  1.0000
  C   C492      1.0  0.11537977602568485  0.6054715119481138  0.8064959442239252  1.0000
  H   H569      1.0  0.0988056109506332  0.6378467396635161  0.8359615493414556  1.0000
  H   H570      1.0  0.06723439985299419  0.619639880766416  0.8491458064634549  1.0000
  H   H571      1.0  0.056877666937290204  0.62988019336275  0.8239862357219434  1.0000
  H   H572      1.0  0.04968547627656294  0.586870068166747  0.813660706523795  1.0000
  H   H573      1.0  0.08616075665156175  0.5635521711076859  0.818034883702587  1.0000
  H   H574      1.0  0.05999742693470469  0.576285865755638  0.8387371339292696  1.0000
  H   H575      1.0  0.1488345313744637  0.6057355256794901  0.8425266883709617  1.0000
  H   H576      1.0  0.1438257368419078  0.5744281141335612  0.83509784005774  1.0000
  H   H577      1.0  0.11724416845456442  0.5874209494672568  0.8556018420797501  1.0000
  H   H578      1.0  0.13025382092314183  0.588704865905096  0.8001644444765854  1.0000
  H   H579      1.0  0.13545139819097385  0.6199516930017743  0.8076989750513885  1.0000
  H   H580      1.0  0.0938192875543467  0.612072592190105  0.7954532553957816  1.0000
  N   N28       1.0  0.6959304677836181  0.44248958437697994  0.08973194275423584  1.0000
  C   C493      1.0  0.6576104027178004  0.45325932717900685  0.08793377300479281  1.0000
  C   C494      1.0  0.706998912235207  0.4417613668355557  0.11117015037853017  1.0000
  C   C495      1.0  0.7206930187687488  0.4575270430155974  0.07799766921148196  1.0000
  C   C496      1.0  0.6982577243276966  0.4172135413347825  0.08175000267369914  1.0000
  H   H581      1.0  0.6477878225263417  0.4530702465314433  0.07202681070273388  1.0000
  H   H582      1.0  0.6549171134333209  0.4726354478716124  0.09318447614449296  1.0000
  H   H583      1.0  0.6384106322936511  0.44267924800387504  0.0971163894205987  1.0000
  H   H584      1.0  0.7352070901145152  0.43274326547286895  0.1132541143351834  1.0000
  H   H585      1.0  0.7065320969754812  0.46054669146781374  0.11764554082795353  1.0000
  H   H586      1.0  0.688031658022583  0.4310217191100065  0.12037824143755686  1.0000
  H   H587      1.0  0.7497528360715034  0.44970057211931136  0.07888414893201194  1.0000
  H   H588      1.0  0.7197565907572293  0.47677693799124443  0.08356047397187821  1.0000
  H   H589      1.0  0.7126989078346154  0.4582892236738129  0.061762113334511655  1.0000
  H   H590      1.0  0.7263040826883737  0.4079626943298797  0.08366088680516055  1.0000
  H   H591      1.0  0.6914945418860674  0.41701976732816987  0.06542395177115655  1.0000
  H   H592      1.0  0.6785392746305295  0.4057846962493654  0.08960197455207747  1.0000
  N   N29       1.0  0.14661480034272417  0.4093013277046344  0.35692678332211386  1.0000
  C   C497      1.0  0.1518251745361139  0.435222920359676  0.36196943814261634  1.0000
  C   C498      1.0  0.12904929958148662  0.3972618395624838  0.3740960316222952  1.0000
  C   C499      1.0  0.18282121016183686  0.39632848632377077  0.3526751091772805  1.0000
  C   C500      1.0  0.12275874834436702  0.4084432979700557  0.33897167050764065  1.0000
  H   H593      1.0  0.1251447658005866  0.44544918801274824  0.3657381969736942  1.0000
  H   H594      1.0  0.1638901217429585  0.44513403207130336  0.3490953068970871  1.0000
  H   H595      1.0  0.17044217426799702  0.4364835105518353  0.3751767522719864  1.0000
  H   H596      1.0  0.12536820538904803  0.37753715788085784  0.37098197823347895  1.0000
  H   H597      1.0  0.14601672061820978  0.3979522986094234  0.3880027962531369  1.0000
  H   H598      1.0  0.10146030339249622  0.40646625558043087  0.3774925641883604  1.0000
  H   H599      1.0  0.20133907599703224  0.3962174616848277  0.3660051059332504  1.0000
  H   H600      1.0  0.1970824338498412  0.4053101781641143  0.34006254446226075  1.0000
  H   H601      1.0  0.17998303580987252  0.37682182770745665  0.34842682957677895  1.0000
  H   H602      1.0  0.13584837601241354  0.4164862429834914  0.3255863197122854  1.0000
  H   H603      1.0  0.09575739420125076  0.41902617178387197  0.3412822981195931  1.0000
  H   H604      1.0  0.11738687497969057  0.3892024290282643  0.3349876255507837  1.0000
  N   N30       1.0  0.7741720824885867  0.9732862615567969  0.436912242636078  1.0000
  C   C501      1.0  0.7808873506203062  0.9966049379435354  0.4470507221294538  1.0000
  C   C502      1.0  0.7426312360758479  0.9622234723756503  0.4465881745255817  1.0000
  C   C503      1.0  0.8073787529174471  0.9560868834240124  0.4386674877654296  1.0000
  C   C504      1.0  0.7657054478203754  0.9782937463383173  0.4154155086413894  1.0000
  H   H605      1.0  0.8046378158729683  0.005278008812614976  0.440177262032405  1.0000
  H   H606      1.0  0.7871290974742862  0.9936581998330521  0.46332533822376315  1.0000
  H   H607      1.0  0.7567366233187158  0.010287425124805072  0.44568792419689635  1.0000
  H   H608      1.0  0.7367416063034113  0.9445891616480485  0.4392892969668006  1.0000
  H   H609      1.0  0.7481226095773251  0.9582377124833104  0.4628344204260946  1.0000
  H   H610      1.0  0.7171772031198429  0.9748031095803205  0.44557371530733925  1.0000
  H   H611      1.0  0.8036307219455799  0.9383709616707882  0.4309673716575359  1.0000
  H   H612      1.0  0.8144081458994988  0.9518308510511555  0.4547021302895186  1.0000
  H   H613      1.0  0.8319511898913063  0.9639878275754977  0.43186243805674096  1.0000
  H   H614      1.0  0.7604150488393524  0.9611765502481526  0.4072008726688571  1.0000
  H   H615      1.0  0.7887804778883818  0.98680936219947  0.40763912365460486  1.0000
  H   H616      1.0  0.7410643620673948  0.9914934722013543  0.4135741641896152  1.0000
  N   N31       1.0  0.7166956743928077  0.1259924889600721  0.34551890181069217  1.0000
  C   C505      1.0  0.7402787789409435  0.14445064944131558  0.3369207245859794  1.0000
  C   C506      1.0  0.6847236570436319  0.1386141802843952  0.3558110706753192  1.0000
  C   C507      1.0  0.7381256796381918  0.11014455175743021  0.3601402940194861  1.0000
  C   C508      1.0  0.7034749443089591  0.11068615916138791  0.32914767596169886  1.0000
  H   H617      1.0  0.7501529504068443  0.1567625057364368  0.3487422503567699  1.0000
  H   H618      1.0  0.7250535551511428  0.15631556990201978  0.3255155642149562  1.0000
  H   H619      1.0  0.7648246042433565  0.13551359402427599  0.32921684684463515  1.0000
  H   H620      1.0  0.6657325886848648  0.12518845109830967  0.3619063053243027  1.0000
  H   H621      1.0  0.6934617396946222  0.1500049118241309  0.3685371460625973  1.0000
  H   H622      1.0  0.6682261302284415  0.15100615100409653  0.3453030503641084  1.0000
  H   H623      1.0  0.7206447627748827  0.09664697752489126  0.3674157494004326  1.0000
  H   H624      1.0  0.7496742755447352  0.12112188715455918  0.3723778112833557  1.0000
  H   H625      1.0  0.761439285416867  0.09934613259778136  0.3527499471885352  1.0000
  H   H626      1.0  0.7266845310957643  0.1008448834443858  0.3209334892346782  1.0000
  H   H627      1.0  0.6866585704258662  0.1219715690467944  0.3180130194592947  1.0000
  H   H628      1.0  0.6859563831166366  0.09644023231905674  0.3351608951927676  1.0000
  N   N32       1.0  0.39864831600328926  0.4279828543713307  0.32351513505177826  1.0000
  C   C509      1.0  0.4139129645351404  0.40245947800070064  0.32723047912393316  1.0000
  C   C510      1.0  0.37995423285660057  0.42948382089814857  0.30374222331462364  1.0000
  C   C511      1.0  0.4287981608409264  0.44479786403562993  0.3235572773037117  1.0000
  C   C512      1.0  0.3718934810872593  0.435185039372468  0.33953190160512425  1.0000
  H   H629      1.0  0.39184508987849587  0.38925813039064266  0.32715875186385196  1.0000
  H   H630      1.0  0.427862531372204  0.4006745146303595  0.34212316019659694  1.0000
  H   H631      1.0  0.4346767510239316  0.3964449537163083  0.3156501212041551  1.0000
  H   H632      1.0  0.3994143078504505  0.4241702504858041  0.2913371740232393  1.0000
  H   H633      1.0  0.35703139674969947  0.4169904175792073  0.30317931954508087  1.0000
  H   H634      1.0  0.36801964234452894  0.4485018948654129  0.30050876330199044  1.0000
  H   H635      1.0  0.4495884952540261  0.43989341277796373  0.3116964219009904  1.0000
  H   H636      1.0  0.44355989276630636  0.44419946425970674  0.33820339245694064  1.0000
  H   H637      1.0  0.4183497274971905  0.46424588093207775  0.32076769979068975  1.0000
  H   H638      1.0  0.38506521477385336  0.4341382781379725  0.35467151181744627  1.0000
  H   H639      1.0  0.3487994089807714  0.42282868987784  0.33987779147029445  1.0000
  H   H640      1.0  0.35978994224444516  0.45434572468601453  0.337287291350721  1.0000
  N   N33       1.0  0.4887867392738531  0.31611390751972834  0.040358433229597424  1.0000
  C   C513      1.0  0.47550518240887163  0.33939441921744823  0.05009917253453877  1.0000
  C   C514      1.0  0.527784347476107  0.31746785041608727  0.034513846279670135  1.0000
  C   C515      1.0  0.4665315005998848  0.312223289499715  0.022206117928553537  1.0000
  C   C516      1.0  0.485426293901195  0.2954244574368135  0.054649602392124796  1.0000
  H   H641      1.0  0.4459643750273299  0.3394524289260831  0.054425856975484965  1.0000
  H   H642      1.0  0.47865939652742295  0.3556246258799647  0.04007431437042408  1.0000
  H   H643      1.0  0.49129694146311365  0.3425746396469376  0.0641053430832399  1.0000
  H   H644      1.0  0.5450468823257572  0.3217208255732364  0.04766926449874087  1.0000
  H   H645      1.0  0.5396444628833403  0.29978678424120914  0.02810944283452277  1.0000
  H   H646      1.0  0.5312097347302465  0.3321475458452447  0.023046614746243366  1.0000
  H   H647      1.0  0.4761508927798839  0.2948475963887339  0.014481830798312778  1.0000
  H   H648      1.0  0.46834473015354944  0.32761732655203807  0.01117881483281713  1.0000
  H   H649      1.0  0.4369262659964249  0.31103872982851005  0.02605019718056867  1.0000
  H   H650      1.0  0.5009372945688365  0.29824403429136104  0.06878676150563612  1.0000
  H   H651      1.0  0.49649786408721985  0.27759203883153666  0.048134117650367125  1.0000
  H   H652      1.0  0.4562232144677468  0.2934390095119011  0.05895660802466951  1.0000
  N   N34       1.0  0.06099133245603579  0.7996256103740056  0.8846062272210132  1.0000
  C   C517      1.0  0.07050128018681533  0.773542662006833  0.8795608411201713  1.0000
  C   C518      1.0  0.06367178194106372  0.8027835148326514  0.9066354212564075  1.0000
  C   C519      1.0  0.02301230772191308  0.8069589475080454  0.87793412326937  1.0000
  C   C520      1.0  0.0868736303942798  0.8152847370977433  0.8743211481937236  1.0000
  H   H653      1.0  0.05188781420653629  0.7610848979444927  0.8872569712136776  1.0000
  H   H654      1.0  0.09916470729836996  0.7676476617332697  0.8842966752001157  1.0000
  H   H655      1.0  0.0687031375636871  0.7703867049146912  0.8630686576832881  1.0000
  H   H656      1.0  0.044295283557641195  0.7913894203095241  0.9148720439859956  1.0000
  H   H657      1.0  0.0919404927888687  0.7972971311271184  0.9122204294379915  1.0000
  H   H658      1.0  0.05700516406907826  0.8223282768599438  0.9109820716297375  1.0000
  H   H659      1.0  0.01518985054128551  0.8265926896810994  0.8816734295142212  1.0000
  H   H660      1.0  0.0026419041406033944  0.7955511687630398  0.8853542879410048  1.0000
  H   H661      1.0  0.020034806961166874  0.8050772414058918  0.8613532222881042  1.0000
  H   H662      1.0  0.08007091870580337  0.8351389874435383  0.8773849806757589  1.0000
  H   H663      1.0  0.0864108062248495  0.8129101801139373  0.8577087044506962  1.0000
  H   H664      1.0  0.11560168434509142  0.8108370401214013  0.8794590990379405  1.0000
  N   N35       1.0  0.9431517166993166  0.0888544483874043  0.3125516706115447  1.0000
  C   C521      1.0  0.9115309047643291  0.10221059651351005  0.302420028533717  1.0000
  C   C522      1.0  0.9751623697966534  0.1041644241420503  0.3123093556213459  1.0000
  C   C523      1.0  0.9528040929153028  0.06555748389382932  0.3018669324398639  1.0000
  C   C524      1.0  0.9330838919696944  0.08347636723538554  0.33360162325273945  1.0000
  H   H665      1.0  0.8870029133653266  0.09109992174152204  0.3022047852856461  1.0000
  H   H666      1.0  0.9182457174968348  0.10647934037454032  0.286561923804364  1.0000
  H   H667      1.0  0.90359850241771  0.12001310268103715  0.30990123055489477  1.0000
  H   H668      1.0  0.9994997448635716  0.09461558574833351  0.31994084080616314  1.0000
  H   H669      1.0  0.9837330970811193  0.10843069166950237  0.29664990484890286  1.0000
  H   H670      1.0  0.9689417000142757  0.12199377541864287  0.3200786665637263  1.0000
  H   H671      1.0  0.9769312181534766  0.0551672642467147  0.30889451140238583  1.0000
  H   H672      1.0  0.960096731417134  0.06897713762225033  0.2858543993004999  1.0000
  H   H673      1.0  0.9296000945389169  0.05328799446531507  0.30201952442899827  1.0000
  H   H674      1.0  0.9569489898486081  0.07473085350363129  0.3419204170584548  1.0000
  H   H675      1.0  0.9106750874158931  0.0705845398101439  0.33449289203395627  1.0000
  H   H676      1.0  0.9239432675510414  0.10051840217972252  0.34186595599118225  1.0000
  N   N36       1.0  0.5679889973845917  0.9374633897734388  0.7528401395006278  1.0000
  C   C525      1.0  0.543103089583051  0.9206287760267544  0.7625507379093902  1.0000
  C   C526      1.0  0.5725117105216295  0.931103259342374  0.7313417950996404  1.0000
  C   C527      1.0  0.6043013955284654  0.934943146811259  0.7628859083752683  1.0000
  C   C528      1.0  0.5520077144951884  0.9630874695895435  0.7545448821799722  1.0000
  H   H677      1.0  0.5394749767187149  0.9244846142016713  0.7788777512926363  1.0000
  H   H678      1.0  0.5537659214046878  0.901042676744792  0.7610566177741133  1.0000
  H   H679      1.0  0.515243147375806  0.9224116325731588  0.7555994826167961  1.0000
  H   H680      1.0  0.5910299069586626  0.9434179755058436  0.7234346732627962  1.0000
  H   H681      1.0  0.5847655237835895  0.9119599601921901  0.7295009089147108  1.0000
  H   H682      1.0  0.5456210247602189  0.9322748453729133  0.7232554977012362  1.0000
  H   H683      1.0  0.6242839242878581  0.946747844863942  0.7555305030309536  1.0000
  H   H684      1.0  0.6166211480946028  0.9156324131306172  0.7621144163966179  1.0000
  H   H685      1.0  0.602206759786778  0.9399784393086884  0.7790454928595865  1.0000
  H   H686      1.0  0.5701667247622954  0.9763215148947801  0.7474560602846765  1.0000
  H   H687      1.0  0.5477186188908502  0.9684356646290053  0.7705676809237507  1.0000
  H   H688      1.0  0.5246724472663002  0.9654802911993174  0.7469242754553757  1.0000
  N   N37       1.0  0.04431197217990746  0.07744478561948975  0.44008344184331  1.0000
  C   C529      1.0  0.08307378398269895  0.06899506560453683  0.4360051182277763  1.0000
  C   C530      1.0  0.01977016546669973  0.05906666026469587  0.4325451855039628  1.0000
  C   C531      1.0  0.035483343148900046  0.10128381743171899  0.42975073727105473  1.0000
  C   C532      1.0  0.03887619135221485  0.08048479438595812  0.46201658039055443  1.0000
  H   H689      1.0  0.102249588515735  0.08255701812121785  0.4414603120721277  1.0000
  H   H690      1.0  0.08805514152868105  0.06644831520207894  0.41958208004906095  1.0000
  H   H691      1.0  0.09076156567401486  0.051116548761378944  0.44366285645458253  1.0000
  H   H692      1.0  0.9903194569857785  0.06506496032078402  0.43528068013011173  1.0000
  H   H693      1.0  0.023059513843463286  0.05625049553022654  0.41604228821725103  1.0000
  H   H694      1.0  0.025293083600591838  0.04087627329968324  0.4401153670242771  1.0000
  H   H695      1.0  0.052536513329072165  0.1158591806052316  0.43565328865148695  1.0000
  H   H696      1.0  0.006039414551294765  0.10770009633279232  0.43187423443182166  1.0000
  H   H697      1.0  0.04028540701992274  0.09986464617394075  0.4132467421277368  1.0000
  H   H698      1.0  0.009685039230659751  0.0860993420021261  0.46567460318043197  1.0000
  H   H699      1.0  0.05591289399132073  0.0949221785646297  0.46808493232698495  1.0000
  H   H700      1.0  0.046349481372293555  0.06310204465958069  0.4704201913959925  1.0000
  N   N38       1.0  0.42070210800383795  0.026534317624154813  0.10558425074532299  1.0000
  C   C533      1.0  0.39066902897384775  0.044810901392998925  0.09951769743699924  1.0000
  C   C534      1.0  0.4184082602095935  0.021897017863788282  0.1274618396195051  1.0000
  C   C535      1.0  0.45668913239439207  0.036168350666475835  0.10080183530637953  1.0000
  C   C536      1.0  0.416867135097557  0.0032679765076411016  0.09470700972424591  1.0000
  H   H701      1.0  0.39316176950258225  0.06275041893956979  0.10716328805065649  1.0000
  H   H702      1.0  0.36316839099849463  0.03847509022487383  0.10363543052730417  1.0000
  H   H703      1.0  0.39082652074667323  0.04838644614165455  0.08301484297128965  1.0000
  H   H704      1.0  0.44051690449793657  0.008200016889519102  0.1328028485320418  1.0000
  H   H705      1.0  0.4205811849062002  0.03909624540296952  0.1361412657294116  1.0000
  H   H706      1.0  0.39173114628141936  0.014477098332367433  0.13153582005229517  1.0000
  H   H707      1.0  0.47992173560655643  0.022912728919171954  0.1054093873932916  1.0000
  H   H708      1.0  0.46027840277118626  0.05373545424208759  0.10882098427385654  1.0000
  H   H709      1.0  0.45945222153990023  0.039959947103378246  0.08441344209624618  1.0000
  H   H710      1.0  0.38950615185122617  0.996001443461122  0.09761801025404446  1.0000
  H   H711      1.0  0.43811736959354325  0.98869355342248  0.0995639068376588  1.0000
  H   H712      1.0  0.41942076537858647  0.005786120086851421  0.07814575525140338  1.0000
  N   N39       1.0  0.956081721172422  0.9560019934501062  0.5391377494962767  1.0000
  C   C537      1.0  0.948562557178893  0.9612057861247756  0.5606281938945846  1.0000
  C   C538      1.0  0.9383556685880848  0.9759993770862258  0.5265354916222875  1.0000
  C   C539      1.0  0.9410145721113755  0.9324596865347708  0.5337211849446548  1.0000
  C   C540      1.0  0.9962952877536019  0.9541963610693895  0.5356677996398836  1.0000
  H   H713      1.0  0.9608221776294553  0.9461427824776595  0.5705142796544952  1.0000
  H   H714      1.0  0.9184300816679344  0.9629779392901814  0.5637442060783842  1.0000
  H   H715      1.0  0.9602210234755838  0.9785945931378358  0.5653902382311232  1.0000
  H   H716      1.0  0.9432118795283774  0.9725795341359061  0.5101832892810096  1.0000
  H   H717      1.0  0.9079432255666393  0.9776242506465108  0.5287994864233069  1.0000
  H   H718      1.0  0.9489522601409062  0.9941265419129302  0.5301511308565445  1.0000
  H   H719      1.0  0.9553858122784166  0.9166639989285238  0.5418020313830213  1.0000
  H   H720      1.0  0.9440174398683706  0.9286744852585629  0.5173395329470668  1.0000
  H   H721      1.0  0.9113364233104589  0.9324543319996554  0.5376720471212915  1.0000
  H   H722      1.0  0.008679582023547017  0.9716768033449797  0.5395123053091555  1.0000
  H   H723      1.0  0.002943369408328289  0.9499699629336672  0.5196434506520962  1.0000
  H   H724      1.0  0.010239193790120726  0.9392505161034791  0.5451127770149435  1.0000
  N   N40       1.0  0.9253608701786405  0.4540109141421927  0.29548566906955714  1.0000
  C   C541      1.0  0.9076884266070957  0.43542970324217734  0.2833946361896156  1.0000
  C   C542      1.0  0.9056940510676683  0.45741867234561745  0.3148661098625251  1.0000
  C   C543      1.0  0.9238854837944094  0.47767320962981663  0.2843336360789358  1.0000
  C   C544      1.0  0.9642496652339256  0.4455431140048703  0.29930464383087846  1.0000
  H   H725      1.0  0.922419933744387  0.4319697567025821  0.2688975444805297  1.0000
  H   H726      1.0  0.8785575626429127  0.44146859065536004  0.2797163124232487  1.0000
  H   H727      1.0  0.9077261814623164  0.41744912104179727  0.2914899799382898  1.0000
  H   H728      1.0  0.9066077615762989  0.44002540396441353  0.323825283042175  1.0000
  H   H729      1.0  0.9180732037316877  0.4714592361667548  0.3243104987407405  1.0000
  H   H730      1.0  0.8762178143278033  0.4637488297089391  0.3125527076562435  1.0000
  H   H731      1.0  0.9377061045888615  0.49194925735987804  0.2928417353026516  1.0000
  H   H732      1.0  0.8949900017321808  0.484847204718842  0.28136238913677286  1.0000
  H   H733      1.0  0.9381345789546198  0.4757006397205055  0.2695371983297649  1.0000
  H   H734      1.0  0.9666303744675016  0.4276373661956197  0.30755152668047436  1.0000
  H   H735      1.0  0.9784684981951062  0.45907587484709056  0.3084302416290904  1.0000
  H   H736      1.0  0.9798944386301707  0.443067834393316  0.28495144601356914  1.0000
  N   N41       1.0  0.16293533227487061  0.3012277919288941  0.4831411861798714  1.0000
  C   C545      1.0  0.1614593186627147  0.3051744842736119  0.5051198976583171  1.0000
  C   C546      1.0  0.13999095340297385  0.32100259997461994  0.4728511496512773  1.0000
  C   C547      1.0  0.1486967069627632  0.27714939016171386  0.47849386809621963  1.0000
  C   C548      1.0  0.20146557311773175  0.3016878984208494  0.4761737369264299  1.0000
  H   H737      1.0  0.17726542798111417  0.2901391985279068  0.5135125608095478  1.0000
  H   H738      1.0  0.13261791794489405  0.3059693086451426  0.5107160221540032  1.0000
  H   H739      1.0  0.17304873383419095  0.32282772516150693  0.5092608334767242  1.0000
  H   H740      1.0  0.14970326677014412  0.33944574639412145  0.47625343991069957  1.0000
  H   H741      1.0  0.14068089702055397  0.31883463401926515  0.45621428867174985  1.0000
  H   H742      1.0  0.11065399813435997  0.3211317620001841  0.47771773928318273  1.0000
  H   H743      1.0  0.11951681244798629  0.27650094921925833  0.48344369070964127  1.0000
  H   H744      1.0  0.1649066638849627  0.2617826368042901  0.48630081193409674  1.0000
  H   H745      1.0  0.14965782359044835  0.2734272912519497  0.46204390126059375  1.0000
  H   H746      1.0  0.2036662877100715  0.29905011976854384  0.4595976443297482  1.0000
  H   H747      1.0  0.2195654232342903  0.2869682107316672  0.4836051529532193  1.0000
  H   H748      1.0  0.21283645798303835  0.3196589745609339  0.47966496833177286  1.0000
  N   N42       1.0  0.8871904643942624  0.9875601511407187  0.8929684215960167  1.0000
  C   C549      1.0  0.8584090956235272  0.9960569844177944  0.9075497318672561  1.0000
  C   C550      1.0  0.9238571415158533  0.9932482768997861  0.9004708521149871  1.0000
  C   C551      1.0  0.8800359170280737  0.00024336877753960984  0.8734583391974765  1.0000
  C   C552      1.0  0.8864899537759263  0.9606647672261538  0.890300788421724  1.0000
  H   H749      1.0  0.8582256882219846  0.016268865147957  0.909984374762896  1.0000
  H   H750      1.0  0.862616795152682  0.9866998880706354  0.9224159071524484  1.0000
  H   H751      1.0  0.8304080074843567  0.9922108894569683  0.9020943259440756  1.0000
  H   H752      1.0  0.9460432115098832  0.9868215897215624  0.8897281653465128  1.0000
  H   H753      1.0  0.9256612727214554  0.013406024820530993  0.9024074563922561  1.0000
  H   H754      1.0  0.9302934057656524  0.9840363515595847  0.915194478366647  1.0000
  H   H755      1.0  0.901573778032348  0.9946492157332876  0.8621905232207726  1.0000
  H   H756      1.0  0.879622956039908  0.020602975148813707  0.8749062907922518  1.0000
  H   H757      1.0  0.8530248871256804  0.9959642726006707  0.8670825023775989  1.0000
  H   H758      1.0  0.9073324490333504  0.9537488814992137  0.879027259786431  1.0000
  H   H759      1.0  0.859049514783657  0.9555896314424998  0.8849970441904665  1.0000
  H   H760      1.0  0.8927363554286853  0.9504605680486216  0.9046166896065514  1.0000
  N   N43       1.0  0.27858606456276186  0.8452027875647773  0.8420944571388008  1.0000
  C   C553      1.0  0.2901645860579665  0.8203269953383598  0.8498607953507444  1.0000
  C   C554      1.0  0.24927606117944823  0.8433417406172622  0.8268880983178055  1.0000
  C   C555      1.0  0.31044886843740604  0.8563273615639568  0.8327641631369387  1.0000
  C   C556      1.0  0.26432392095738283  0.8607880001673064  0.8588846374395821  1.0000
  H   H761      1.0  0.31195281262125524  0.820999533547465  0.8615509032658236  1.0000
  H   H762      1.0  0.30114585697412966  0.8080643335945559  0.8376045057463681  1.0000
  H   H763      1.0  0.2666117155118821  0.8114182519184214  0.8568834125945002  1.0000
  H   H764      1.0  0.2587657934422609  0.831296835977855  0.8141856078818639  1.0000
  H   H765      1.0  0.22439585471490242  0.8356464237994942  0.8335907666074913  1.0000
  H   H766      1.0  0.24057506048763358  0.8616811045301775  0.8203103543357597  1.0000
  H   H767      1.0  0.302745642670089  0.8752911259450743  0.8270700581155277  1.0000
  H   H768      1.0  0.321360696871969  0.8454268425250832  0.8196787136312675  1.0000
  H   H769      1.0  0.33331604130281806  0.8577042999947943  0.843710708199454  1.0000
  H   H770      1.0  0.2395506731851581  0.8533325355006366  0.8658298948296023  1.0000
  H   H771      1.0  0.2561491102374144  0.8798343734231137  0.8536719581380514  1.0000
  H   H772      1.0  0.2852453993456528  0.8621028194089587  0.8709554979105752  1.0000
  N   N44       1.0  0.7158709850872381  0.3459274864249515  0.265512924130011  1.0000
  C   C557      1.0  0.7500569481051436  0.3590051968468289  0.2666062425955108  1.0000
  C   C558      1.0  0.7045907324345753  0.34395767329905574  0.24423092436179736  1.0000
  C   C559      1.0  0.68639262638157  0.35978486592109155  0.2769001012945092  1.0000
  C   C560      1.0  0.7224768443633578  0.3209630356990191  0.274301406564656  1.0000
  H   H773      1.0  0.7463994291451782  0.3776925300566872  0.2596511857973276  1.0000
  H   H774      1.0  0.7730488906823876  0.3488063667527521  0.2585099633558505  1.0000
  H   H775      1.0  0.7590633272611209  0.36128711746254427  0.2824366990234618  1.0000
  H   H776      1.0  0.6787383176300414  0.33437209664496775  0.2428045795233739  1.0000
  H   H777      1.0  0.6998808725775331  0.3623923822667074  0.23702070046588017  1.0000
  H   H778      1.0  0.7261325323872195  0.33346793808009895  0.23523225119439278  1.0000
  H   H779      1.0  0.6597759655465791  0.3509764978747989  0.27590403466216396  1.0000
  H   H780      1.0  0.6815144808454878  0.3788877038555177  0.2709992607609885  1.0000
  H   H781      1.0  0.6935955040442553  0.3612048849013857  0.2931121001195428  1.0000
  H   H782      1.0  0.7444795535099175  0.3099728140010162  0.26596719413198044  1.0000
  H   H783      1.0  0.6972510886414864  0.31056872966536453  0.27372064158236226  1.0000
  H   H784      1.0  0.7314161169768173  0.3216831853498142  0.2902888774916531  1.0000
  N   N45       1.0  0.7950772983124889  0.6777212932459584  0.7598651088188915  1.0000
  C   C561      1.0  0.7689500160612895  0.6639907471611008  0.7481662016634049  1.0000
  C   C562      1.0  0.8331652750568392  0.6685698636692536  0.7548331763424908  1.0000
  C   C563      1.0  0.7884464076831418  0.6739439079464928  0.7815949311802098  1.0000
  C   C564      1.0  0.7896249863941643  0.7042209612468069  0.7547599752884008  1.0000
  H   H785      1.0  0.7399690698196053  0.6713306977590049  0.7505564727333556  1.0000
  H   H786      1.0  0.7706491907492856  0.6442132237194139  0.7524414598293148  1.0000
  H   H787      1.0  0.7746883090873191  0.6651379793558723  0.7317298078602059  1.0000
  H   H788      1.0  0.8378816123024864  0.6485155408915569  0.758156364696377  1.0000
  H   H789      1.0  0.8391210609448122  0.6712369657228552  0.738542522507315  1.0000
  H   H790      1.0  0.8537706955834701  0.6781709039812012  0.7636251585887656  1.0000
  H   H791      1.0  0.8074643044248448  0.6842201574691679  0.790942639154598  1.0000
  H   H792      1.0  0.7927300618269816  0.6540761873529585  0.785841791818722  1.0000
  H   H793      1.0  0.7596945434982064  0.6802371157088737  0.7857862268601686  1.0000
  H   H794      1.0  0.8091539012179376  0.7152575181367291  0.7630657048298177  1.0000
  H   H795      1.0  0.7611367832054104  0.71171523345363  0.7584019640461269  1.0000
  H   H796      1.0  0.793583918570384  0.7075123984129272  0.7383288039269146  1.0000
  N   N46       1.0  0.33170059175370603  0.8693709522236334  0.10700619971013312  1.0000
  C   C565      1.0  0.3696567409046072  0.8757478007576057  0.10266297037829406  1.0000
  C   C566      1.0  0.332916049021071  0.8456921452975117  0.11810088175748111  1.0000
  C   C567      1.0  0.3116017768318406  0.867059848747415  0.08785427662120697  1.0000
  C   C568      1.0  0.3128691659235441  0.8890526962677692  0.11924265546798708  1.0000
  H   H797      1.0  0.3694657618515854  0.8930373741640218  0.09369672705080967  1.0000
  H   H798      1.0  0.38508081386012644  0.8610758314539066  0.09382182097583427  1.0000
  H   H799      1.0  0.3854915096259883  0.8785383405560302  0.11668959878546974  1.0000
  H   H800      1.0  0.348232778641506  0.8467448139363675  0.13253854644855204  1.0000
  H   H801      1.0  0.3047307848641458  0.8402291172842141  0.1216454894918406  1.0000
  H   H802      1.0  0.3470344635634094  0.8306127194801869  0.109054118022723  1.0000
  H   H803      1.0  0.3096160152824321  0.8848217156976657  0.07931229330704999  1.0000
  H   H804      1.0  0.28303824239026093  0.8617224989761599  0.09043565393796697  1.0000
  H   H805      1.0  0.325780530674371  0.8528704601718371  0.07796764680069458  1.0000
  H   H806      1.0  0.32764561214150156  0.8916632565817149  0.13366532168933576  1.0000
  H   H807      1.0  0.28411342481253266  0.8849057592079164  0.12289109248906335  1.0000
  H   H808      1.0  0.3115213126179892  0.9070898742084715  0.1110790038768246  1.0000
  N   N47       1.0  0.2343775885927811  0.4839431726486299  0.6605863659118211  1.0000
  C   C569      1.0  0.2634824402997039  0.5015405717856668  0.6612333492312783  1.0000
  C   C570      1.0  0.20264500038027772  0.49485309297940605  0.6488948487418659  1.0000
  C   C571      1.0  0.22245093886783324  0.47844991327438713  0.6813327243284524  1.0000
  C   C572      1.0  0.2488308718182671  0.4609041601785696  0.6508802842992474  1.0000
  H   H809      1.0  0.28767841156667934  0.4941004224963864  0.6701897923784434  1.0000
  H   H810      1.0  0.2532035247386009  0.5191831408560933  0.668319926212928  1.0000
  H   H811      1.0  0.27322653966645927  0.5060651763722146  0.6458526973533791  1.0000
  H   H812      1.0  0.19110614952205218  0.5124061935956084  0.6556434308413716  1.0000
  H   H813      1.0  0.21029153418421512  0.4990253796625136  0.6330728934982691  1.0000
  H   H814      1.0  0.1800100329627111  0.48214939653254774  0.6482460175264863  1.0000
  H   H815      1.0  0.21072220459571012  0.49535750363369613  0.6889583309263191  1.0000
  H   H816      1.0  0.2458121283734518  0.4706771107083085  0.6907576217097363  1.0000
  H   H817      1.0  0.20076666683167324  0.4650059319523062  0.6814589194764104  1.0000
  H   H818      1.0  0.22731389828463222  0.4473502762636431  0.6500633810023619  1.0000
  H   H819      1.0  0.2726879340023649  0.4520540263738512  0.6593546781415923  1.0000
  H   H820      1.0  0.258062119418293  0.46436398167805437  0.6351887210016469  1.0000
  N   N48       1.0  0.7014454342592591  0.5412664941407919  0.8290844771643414  1.0000
  C   C573      1.0  0.742066289532983  0.5383469785893497  0.8276023406986212  1.0000
  C   C574      1.0  0.6855321687233354  0.5192438998238407  0.8207870238160203  1.0000
  C   C575      1.0  0.6876500266922545  0.5633469810154126  0.8175280515259608  1.0000
  C   C576      1.0  0.6904572052452221  0.5440961005133458  0.8504317814459637  1.0000
  H   H821      1.0  0.7514301569452898  0.5366878830879338  0.8116721950772553  1.0000
  H   H822      1.0  0.7534216190959668  0.5215580600488612  0.8357844388079856  1.0000
  H   H823      1.0  0.75508980898585  0.5543479765184209  0.8341802305924814  1.0000
  H   H824      1.0  0.6933932995501345  0.5163619849706723  0.8047372758657299  1.0000
  H   H825      1.0  0.6950751399859589  0.5023019598246143  0.829359218489818  1.0000
  H   H826      1.0  0.6548849806012295  0.5208099634721204  0.8216939642109979  1.0000
  H   H827      1.0  0.6570880035207632  0.5660296175638764  0.818312626191273  1.0000
  H   H828      1.0  0.6956258870655981  0.5619502393371304  0.8013334341452651  1.0000
  H   H829      1.0  0.6990568104768707  0.5802739250182218  0.8235107340097448  1.0000
  H   H830      1.0  0.6599758880946882  0.5465661348967916  0.8521000397369586  1.0000
  H   H831      1.0  0.7023156640522606  0.5602912601197545  0.8574219706611922  1.0000
  H   H832      1.0  0.6998274155391551  0.5275732771482162  0.8595310803544062  1.0000
  N   N49       1.0  0.42074312938996283  0.22188778581309784  0.37859725098320934  1.0000
  C   C577      1.0  0.4138271867751795  0.24836959360890742  0.37378531221102046  1.0000
  C   C578      1.0  0.412482208851629  0.21756530171193852  0.400084268631087  1.0000
  C   C579      1.0  0.4597786140679607  0.2140843681885013  0.3745773326711428  1.0000
  C   C580      1.0  0.39682347300461973  0.2074913601700261  0.36595261693243797  1.0000
  H   H833      1.0  0.420524289963355  0.2524533747756856  0.3578147019704456  1.0000
  H   H834      1.0  0.4303117334697979  0.2599783530812534  0.3835359844821012  1.0000
  H   H835      1.0  0.38438803916448416  0.2545639548220374  0.3761024963451791  1.0000
  H   H836      1.0  0.41753722179477537  0.19775304092092985  0.40425550218179995  1.0000
  H   H837      1.0  0.429774793527064  0.22827714233496016  0.41009632454321115  1.0000
  H   H838      1.0  0.3831727318932579  0.22301349527272624  0.403613833546825  1.0000
  H   H839      1.0  0.47861150750604275  0.22462745421510655  0.38382131841432887  1.0000
  H   H840      1.0  0.46691623791647896  0.2167783871254646  0.35845268787843415  1.0000
  H   H841      1.0  0.465873771498159  0.19418095352656065  0.3782154365375983  1.0000
  H   H842      1.0  0.40180929699738754  0.18741110354693322  0.36892563857385774  1.0000
  H   H843      1.0  0.401600537695  0.210691061927644  0.3496331052168958  1.0000
  H   H844      1.0  0.3671546348511114  0.21241758392921228  0.36896793121940236  1.0000
  N   N50       1.0  0.9451322919414475  0.5722675107149338  0.39039133361793305  1.0000
  C   C581      1.0  0.9538806886668655  0.5936933956884924  0.40257226271492597  1.0000
  C   C582      1.0  0.9047135796554042  0.5716580006565063  0.38872926863076074  1.0000
  C   C583      1.0  0.9606242495152152  0.5494568484038973  0.4003031073813751  1.0000
  C   C584      1.0  0.961185054810832  0.5741188016436702  0.37002366644185686  1.0000
  H   H845      1.0  0.9841509656585258  0.5946755756498969  0.40430526245296816  1.0000
  H   H846      1.0  0.9418378185417342  0.5925806991172837  0.4180057303600065  1.0000
  H   H847      1.0  0.9425484426340122  0.6112803982238983  0.3956056701706261  1.0000
  H   H848      1.0  0.8970394829500206  0.5557104536383044  0.37967415565833407  1.0000
  H   H849      1.0  0.8916738884827402  0.570037246382238  0.40380337899892643  1.0000
  H   H850      1.0  0.892007103158906  0.5886126968205538  0.3813879746469574  1.0000
  H   H851      1.0  0.9543019187109373  0.5329256558548299  0.39155706412766034  1.0000
  H   H852      1.0  0.9491706329053922  0.5474605771738057  0.4157579543100839  1.0000
  H   H853      1.0  0.9911067810956883  0.5491522879631211  0.40171975935530896  1.0000
  H   H854      1.0  0.9547486803214699  0.5580823526581534  0.36059891308746195  1.0000
  H   H855      1.0  0.9917207709497122  0.5743735656816625  0.3706473615426261  1.0000
  H   H856      1.0  0.9501475131754715  0.5910979650348415  0.36202550960684393  1.0000
  N   N51       1.0  0.22641732082797572  0.08828644885939951  0.5174845523531881  1.0000
  C   C585      1.0  0.25577119481776545  0.06834740862218158  0.5150590882984039  1.0000
  C   C586      1.0  0.235148510272234  0.10973247898592153  0.5050340034716732  1.0000
  C   C587      1.0  0.22394909182958114  0.09555274369194122  0.5388808897458667  1.0000
  C   C588      1.0  0.19081950095199945  0.07949305127613915  0.5109454663685505  1.0000
  H   H857      1.0  0.249938831752826  0.05183163853324624  0.524207057138504  1.0000
  H   H858      1.0  0.28300088783955485  0.07433747370900279  0.519919393653657  1.0000
  H   H859      1.0  0.2585018801144937  0.06256905671991841  0.49904321065138274  1.0000
  H   H860      1.0  0.21398554684829907  0.12531586305885756  0.5068876242491318  1.0000
  H   H861      1.0  0.2622114109394384  0.11659845851585438  0.5091705207148547  1.0000
  H   H862      1.0  0.23635716602924262  0.10513445099052587  0.48870898027386184  1.0000
  H   H863      1.0  0.20170988640274945  0.11037384633144987  0.5413058817039141  1.0000
  H   H864      1.0  0.2501651506018701  0.10247770609125828  0.5443403483299267  1.0000
  H   H865      1.0  0.2172899611414075  0.07981306314858139  0.5487463995477949  1.0000
  H   H866      1.0  0.1680339731372416  0.09404598500655892  0.5125582740908036  1.0000
  H   H867      1.0  0.18307098139352124  0.06353164230361008  0.5202437344196846  1.0000
  H   H868      1.0  0.19156040237495597  0.07390946950687227  0.49485977154713806  1.0000
  N   N52       1.0  0.5125896775864603  0.44032849445212574  0.2130887674668791  1.0000
  C   C589      1.0  0.47409283519499057  0.4364144355637641  0.21863405821255877  1.0000
  C   C590      1.0  0.533484033693342  0.445844051841478  0.23140056451454236  1.0000
  C   C591      1.0  0.5130494526353246  0.4612036053621911  0.19873287950673565  1.0000
  C   C592      1.0  0.5296259686224748  0.4178390396074898  0.20357946226632095  1.0000
  H   H869      1.0  0.47267069747761453  0.42095728687375805  0.22959811340281133  1.0000
  H   H870      1.0  0.4577034717293567  0.4318477575628963  0.20517268520471396  1.0000
  H   H871      1.0  0.4602398640432082  0.45320302859819084  0.22554454647280442  1.0000
  H   H872      1.0  0.5628712582158728  0.4485654539499054  0.22791068576391588  1.0000
  H   H873      1.0  0.5215445775524541  0.4627595869171719  0.23891146040328515  1.0000
  H   H874      1.0  0.5334335270936561  0.43051598481441666  0.2426135339914032  1.0000
  H   H875      1.0  0.49752497042021  0.45753953912912393  0.1847351603713926  1.0000
  H   H876      1.0  0.541650632024424  0.4647389214324047  0.19423601185802122  1.0000
  H   H877      1.0  0.5000765940146532  0.4784369831753914  0.2053211876344447  1.0000
  H   H878      1.0  0.5587035888606634  0.4201636674250319  0.1991689413242874  1.0000
  H   H879      1.0  0.5144426930699338  0.41312910218739807  0.18970034017857815  1.0000
  H   H880      1.0  0.529790863020673  0.40170918023149677  0.2139956671981497  1.0000
  N   N53       1.0  0.35654613854123324  0.596159752808052  0.8698023018487916  1.0000
  C   C593      1.0  0.33476151596815823  0.5852057133914007  0.8859129085584155  1.0000
  C   C594      1.0  0.3962105236967652  0.5902553717126192  0.8736633585241486  1.0000
  C   C595      1.0  0.34875205274169974  0.623175786322076  0.8693974391248487  1.0000
  C   C596      1.0  0.3464648898780331  0.5859822725040595  0.8501730847570936  1.0000
  H   H881      1.0  0.33976141736529875  0.5648077759271746  0.8864506452115902  1.0000
  H   H882      1.0  0.3046725636685365  0.5895860315744796  0.8836432806026807  1.0000
  H   H883      1.0  0.3417811787119424  0.5924209552458253  0.9009751565632864  1.0000
  H   H884      1.0  0.4048784227152241  0.5977438690388468  0.8883205591981628  1.0000
  H   H885      1.0  0.4030340348187167  0.5699788053829358  0.8739798655861589  1.0000
  H   H886      1.0  0.4135262193322251  0.5979252094341583  0.8616293119856858  1.0000
  H   H887      1.0  0.3645600865184289  0.6319525764893956  0.8572760948948276  1.0000
  H   H888      1.0  0.3560097745648452  0.6315353896046741  0.8839845508370276  1.0000
  H   H889      1.0  0.31895090946351123  0.6282676976490158  0.866687161426592  1.0000
  H   H890      1.0  0.36256109070888703  0.5938464274641843  0.8377123132606827  1.0000
  H   H891      1.0  0.3167015028557815  0.5900252476664647  0.8467833850588764  1.0000
  H   H892      1.0  0.3523473123369797  0.5656245123609392  0.8497711926377565  1.0000
  N   N54       1.0  0.5208809322496747  0.5039382012504147  0.9679652227445984  1.0000
  C   C597      1.0  0.5584501683813298  0.5123978316942641  0.9694207428587106  1.0000
  C   C598      1.0  0.5050100928480042  0.5023289591714234  0.9883822839822132  1.0000
  C   C599      1.0  0.5225318807295529  0.4794243770449262  0.9584496781915001  1.0000
  C   C600      1.0  0.49772510488691496  0.5216308413537716  0.9555931010789025  1.0000
  H   H893      1.0  0.5582964127131534  0.5312903959309231  0.9757119600064476  1.0000
  H   H894      1.0  0.5716874921708981  0.5127405945729869  0.9543691334750894  1.0000
  H   H895      1.0  0.5764572794722914  0.49989424416443573  0.9791249714811981  1.0000
  H   H896      1.0  0.476529750389978  0.4961490940586423  0.9878868754534604  1.0000
  H   H897      1.0  0.5218572104166614  0.4889939477101822  0.9980266371316004  1.0000
  H   H898      1.0  0.5038098250157771  0.5205245297529552  0.9960120379642218  1.0000
  H   H899      1.0  0.4947982172210782  0.4722108278524823  0.9572853060229713  1.0000
  H   H900      1.0  0.5405649912183172  0.4657491002625264  0.9671250719594827  1.0000
  H   H901      1.0  0.5342165995211483  0.4800762794814742  0.9429432005391247  1.0000
  H   H902      1.0  0.509545444196663  0.5237672777869602  0.9402437491945161  1.0000
  H   H903      1.0  0.49551282633032334  0.5402647559688097  0.9624519644461015  1.0000
  H   H904      1.0  0.4693457717656071  0.5156506346577863  0.9537625158466954  1.0000
  N   N55       1.0  0.7502532818737712  0.9389469970919742  0.5933138261419186  1.0000
  C   C601      1.0  0.7246393102544224  0.9594215914170748  0.6002358620100323  1.0000
  C   C602      1.0  0.7433916952683055  0.9163481557379625  0.6048230629101528  1.0000
  C   C603      1.0  0.7885977987403224  0.9452740182030964  0.5966450605621824  1.0000
  C   C604      1.0  0.7444438968863248  0.9348068327910278  0.5715962805195284  1.0000
  H   H905      1.0  0.7290512456428403  0.9767787251873739  0.5918786147869742  1.0000
  H   H906      1.0  0.7284854384170747  0.963004602810958  0.6165700358578872  1.0000
  H   H907      1.0  0.6954163824215437  0.9552225410801464  0.5980278261560638  1.0000
  H   H908      1.0  0.7625433057170924  0.9005475076204389  0.6002311136518999  1.0000
  H   H909      1.0  0.7476381003714224  0.9188439939471468  0.6212748949176176  1.0000
  H   H910      1.0  0.7148224960118605  0.9108237569208419  0.6026415894589492  1.0000
  H   H911      1.0  0.8085520720380232  0.9301552534956147  0.5916862717220677  1.0000
  H   H912      1.0  0.7942253404419257  0.9483090226764044  0.6128950202858531  1.0000
  H   H913      1.0  0.7950053004575627  0.9620936597895396  0.5880792317223968  1.0000
  H   H914      1.0  0.7633501968570648  0.9194706794631837  0.5658812372626165  1.0000
  H   H915      1.0  0.7500196443885462  0.9513637284417917  0.5624291210131724  1.0000
  H   H916      1.0  0.7157920152851583  0.9300578896630836  0.5684350376568553  1.0000
  N   N56       1.0  0.29711359904164447  0.5851370050987983  0.05618701692918385  1.0000
  C   C605      1.0  0.328613656686527  0.5731954545459644  0.04504904015400802  1.0000
  C   C606      1.0  0.3037772523402327  0.611187238092972  0.05988439795768587  1.0000
  C   C607      1.0  0.2929719331186691  0.5722641232420025  0.07566357113111577  1.0000
  C   C608      1.0  0.26317758000588976  0.5839425344565257  0.044121658425792194  1.0000
  H   H917      1.0  0.3326904247393201  0.5825550104821051  0.03031079541866899  1.0000
  H   H918      1.0  0.3244960518289024  0.5535283541422342  0.041953413441001564  1.0000
  H   H919      1.0  0.3546869256666827  0.573718705595711  0.053734239099283126  1.0000
  H   H920      1.0  0.28118516201602217  0.6206530512533582  0.06880321717752597  1.0000
  H   H921      1.0  0.3297823371318549  0.6128316081263753  0.0683280975772806  1.0000
  H   H922      1.0  0.306186726329841  0.621655822524942  0.045555015301154356  1.0000
  H   H923      1.0  0.26932843465594036  0.5806271730239199  0.08447062479720537  1.0000
  H   H924      1.0  0.3180253948444385  0.573165622814692  0.08514889904538052  1.0000
  H   H925      1.0  0.28859971310953636  0.5524160988220531  0.07354677145362332  1.0000
  H   H926      1.0  0.2388965808730774  0.5930184665461671  0.05196664268193601  1.0000
  H   H927      1.0  0.25719406662382815  0.5645546364036197  0.04107959135896566  1.0000
  H   H928      1.0  0.26573218187089376  0.5934157164935684  0.029272597324313754  1.0000
  N   N57       1.0  0.5719778031666081  0.1155775888504265  0.1869302687056232  1.0000
  C   C609      1.0  0.5328418081936496  0.11852946484510724  0.18080888348281807  1.0000
  C   C610      1.0  0.5746526398337517  0.1158437034416275  0.20915009985262709  1.0000
  C   C611      1.0  0.5918158270025143  0.13602455191252527  0.17836968919148363  1.0000
  C   C612      1.0  0.5886771044641241  0.09190025894542525  0.17932778363197197  1.0000
  H   H929      1.0  0.5300734641121928  0.11932142083345731  0.1641020287646135  1.0000
  H   H930      1.0  0.5189560636954403  0.13580411768982184  0.18681430266370153  1.0000
  H   H931      1.0  0.5172370331672282  0.10291554841890464  0.1863142737164477  1.0000
  H   H932      1.0  0.6038412352794915  0.11340094610867228  0.21426604404163999  1.0000
  H   H933      1.0  0.5625996040494484  0.13350509055823448  0.21544001096717927  1.0000
  H   H934      1.0  0.559769295172426  0.10076476557664456  0.21614793040046099  1.0000
  H   H935      1.0  0.5792678758860126  0.15423178525833267  0.18325113287913175  1.0000
  H   H936      1.0  0.5914820470401178  0.13579927245378579  0.1615717515809826  1.0000
  H   H937      1.0  0.6211967604425755  0.13483364956732352  0.1832272829015396  1.0000
  H   H938      1.0  0.6183122382544685  0.08918445616243761  0.18354826178000166  1.0000
  H   H939      1.0  0.5869677877075791  0.09105372638831592  0.16258169196143066  1.0000
  H   H940      1.0  0.5744464290922703  0.07604187610531833  0.18552286772688342  1.0000
  N   N58       1.0  0.9738289591473187  0.21174629606717243  0.5402247479889468  1.0000
  C   C613      1.0  0.9491634185762162  0.22231064239891996  0.556095631561108  1.0000
  C   C614      1.0  0.9784586477627191  0.23045251644748502  0.5243284568874683  1.0000
  C   C615      1.0  0.9577785258734743  0.19007854939931848  0.5313783876367004  1.0000
  C   C616      1.0  0.010085768946257234  0.20410640968125046  0.5491145667114934  1.0000
  H   H941      1.0  0.9452483826261597  0.20864116295909038  0.5683438330966939  1.0000
  H   H942      1.0  0.9214785582185957  0.22826495632447275  0.549942412968651  1.0000
  H   H943      1.0  0.9606407087390825  0.2386820457658377  0.5630552857506902  1.0000
  H   H944      1.0  0.9963078910080653  0.22285392654268626  0.5119157190199988  1.0000
  H   H945      1.0  0.9515770657447551  0.2371047634823477  0.5175585240440927  1.0000
  H   H946      1.0  0.9916197299167717  0.24676653547333385  0.5303473169798888  1.0000
  H   H947      1.0  0.9757113881817527  0.1816639489874589  0.51930810803308  1.0000
  H   H948      1.0  0.9302720490470969  0.19496081104085192  0.5245807532578207  1.0000
  H   H949      1.0  0.9543997094150513  0.1753666291138222  0.5428658147500046  1.0000
  H   H950      1.0  0.02934378432739626  0.1961146780869994  0.5375402603345696  1.0000
  H   H951      1.0  0.007905418797800934  0.18990084916587532  0.5611241226359057  1.0000
  H   H952      1.0  0.023379639904850036  0.2199416918671821  0.5558405824067584  1.0000
  N   N59       1.0  0.7071040037983659  0.06039479100270543  0.24863935884161276  1.0000
  C   C617      1.0  0.7284897410923069  0.036409731059073046  0.2508160365389285  1.0000
  C   C618      1.0  0.7174081464687471  0.07690018482563289  0.2649576623818619  1.0000
  C   C619      1.0  0.6673153252407295  0.056644502760172674  0.2499153145586332  1.0000
  C   C620      1.0  0.7152268817578167  0.0716210401807791  0.22892450798997616  1.0000
  H   H953      1.0  0.7586590987675632  0.038549804475083785  0.2498262709265373  1.0000
  H   H954      1.0  0.7212563420257695  0.023372693349703377  0.2388640385344315  1.0000
  H   H955      1.0  0.7231208292889131  0.027628665698185898  0.2656688461337724  1.0000
  H   H956      1.0  0.7117429978325877  0.06894069385101584  0.2800612150364468  1.0000
  H   H957      1.0  0.7472835973832753  0.08009855604566204  0.2644192456000298  1.0000
  H   H958      1.0  0.7017734788674006  0.09520845181828212  0.2638595844294531  1.0000
  H   H959      1.0  0.6502590039063122  0.07438131911166772  0.24846605572061642  1.0000
  H   H960      1.0  0.6601019748729594  0.048066185019536634  0.26455616190060205  1.0000
  H   H961      1.0  0.6583858524127458  0.04439523997110581  0.23778921924969512  1.0000
  H   H962      1.0  0.7075619894078016  0.05984186537792218  0.216195718248416  1.0000
  H   H963      1.0  0.7450472050805619  0.07466031691269888  0.22732958889308832  1.0000
  H   H964      1.0  0.6997084101231461  0.08986317353588913  0.2269119735950354  1.0000
  N   N60       1.0  0.028425004225109962  0.07612095610380988  0.7005755504818707  1.0000
  C   C621      1.0  0.02417438838512509  0.1006297174432451  0.7100245033190835  1.0000
  C   C622      1.0  0.016450545464823385  0.07807521250253285  0.6793054539428102  1.0000
  C   C623      1.0  0.005713020105191813  0.05891582746148384  0.7115272154830717  1.0000
  C   C624      1.0  0.06752399479039517  0.06680678621018508  0.7014427261468981  1.0000
  H   H965      1.0  0.03313779604972256  0.0997061993299236  0.7260678754721733  1.0000
  H   H966      1.0  0.9949613552387273  0.10821439883218041  0.7096814858058064  1.0000
  H   H967      1.0  0.04103128832524772  0.11400836597232625  0.7020956763563079  1.0000
  H   H968      1.0  0.019109951740768905  0.05982303033590937  0.6717763634092174  1.0000
  H   H969      1.0  0.9872065954504904  0.08531324072330985  0.6779508543145464  1.0000
  H   H970      1.0  0.03370739684034563  0.09037631777070448  0.670434848106402  1.0000
  H   H971      1.0  0.008276906803285078  0.040262930480862796  0.7047350081183005  1.0000
  H   H972      1.0  0.9760026322836608  0.06530754787757498  0.7113615384683198  1.0000
  H   H973      1.0  0.014464560217308131  0.056578489709829434  0.7275533258538881  1.0000
  H   H974      1.0  0.0715358309159222  0.0484982408249865  0.6943058034426135  1.0000
  H   H975      1.0  0.0775185710199533  0.06457125391864885  0.7172492799770005  1.0000
  H   H976      1.0  0.08562446360926002  0.0791641033156537  0.693224296159886  1.0000
  N   N61       1.0  0.2074584973355674  0.970004864504118  0.7681435572559177  1.0000
  C   C625      1.0  0.20992905336824838  0.9662907580827279  0.790188092590981  1.0000
  C   C626      1.0  0.2256470050785629  0.9483947468510373  0.7579289564264925  1.0000
  C   C627      1.0  0.2260125040249577  0.9923177742464412  0.7623958308424794  1.0000
  C   C628      1.0  0.16830027694231184  0.9729841518068755  0.7620112213553076  1.0000
  H   H977      1.0  0.1967153825170018  0.9822544100282644  0.798468291733631  1.0000
  H   H978      1.0  0.23912558948986437  0.9637292694767237  0.7952366861794209  1.0000
  H   H979      1.0  0.19623041045638692  0.9495765082809297  0.795027726797404  1.0000
  H   H980      1.0  0.2228296730561386  0.9500975653343897  0.7412985315094052  1.0000
  H   H981      1.0  0.25567105682000757  0.9462535306340651  0.7614272713936958  1.0000
  H   H982      1.0  0.21371338552520963  0.9309963107191028  0.7626829178966693  1.0000
  H   H983      1.0  0.2561098884649334  0.9902242823642828  0.7657388221684904  1.0000
  H   H984      1.0  0.21422480279952683  0.008844783527945268  0.7705028409955056  1.0000
  H   H985      1.0  0.22316717405067488  0.996234818858223  0.7459982414025624  1.0000
  H   H986      1.0  0.16544778960728493  0.9757643513711426  0.7454123685862222  1.0000
  H   H987      1.0  0.15367184632292433  0.989201538566492  0.7693394052620398  1.0000
  H   H988      1.0  0.15344020849239537  0.9564743809049117  0.7661094064595021  1.0000
  N   N62       1.0  0.2689475606915306  0.08525213219244354  0.24915326978102972  1.0000
  C   C629      1.0  0.28630651403001783  0.0991737106816275  0.2651481007735338  1.0000
  C   C630      1.0  0.2938744494856342  0.06381896603643233  0.24339176619768527  1.0000
  C   C631      1.0  0.26163120571254767  0.10139147974235696  0.2313789219422495  1.0000
  C   C632      1.0  0.23382486842971553  0.07667631958386978  0.2566888301793229  1.0000
  H   H989      1.0  0.26823764972805114  0.11561635850560337  0.26963071754353635  1.0000
  H   H990      1.0  0.3130748677541599  0.10572745102425651  0.2600517380831111  1.0000
  H   H991      1.0  0.2914889440370759  0.0876207827251001  0.2789031549556169  1.0000
  H   H992      1.0  0.2822622781816213  0.05354257415528352  0.23073466215405747  1.0000
  H   H993      1.0  0.32120547890475143  0.06953034155243487  0.23836957889256935  1.0000
  H   H994      1.0  0.29882396337935113  0.050631750694976274  0.2561523694507801  1.0000
  H   H995      1.0  0.24291104308882033  0.11776258889318214  0.2351902291580911  1.0000
  H   H996      1.0  0.24815338575843265  0.09147985715249396  0.2190971354508224  1.0000
  H   H997      1.0  0.2875461661913346  0.1079598447921295  0.22506011919468638  1.0000
  H   H998      1.0  0.23814823999636534  0.06369059573408942  0.2696189633940337  1.0000
  H   H999      1.0  0.21947920651654654  0.06687347139734978  0.24484373799557993  1.0000
  H   H1000     1.0  0.21457454661203526  0.09230470020957737  0.26154678648473567  1.0000
  N   N63       1.0  0.728869695701985  0.0933234134930709  0.054968919724871945  1.0000
  C   C633      1.0  0.7066310860246062  0.07192030168783212  0.05203815082875729  1.0000
  C   C634      1.0  0.7651324516773037  0.08858393676736777  0.045199511033255924  1.0000
  C   C635      1.0  0.7340697551717644  0.09735041410336918  0.0767580920002886  1.0000
  C   C636      1.0  0.7096255653294347  0.11548361897411986  0.0458157360152911  1.0000
  H   H1001     1.0  0.6791319396928363  0.07480112839950442  0.05933803987906017  1.0000
  H   H1002     1.0  0.7204000948120313  0.0547465563623835  0.058493680356217936  1.0000
  H   H1003     1.0  0.7012958768768572  0.06877273302415797  0.035765841402614074  1.0000
  H   H1004     1.0  0.7804689989592546  0.0719737123621641  0.0517216414501791  1.0000
  H   H1005     1.0  0.7620608874586063  0.0854925884343141  0.028738404814365293  1.0000
  H   H1006     1.0  0.782530135510196  0.10443261466189117  0.04708695641045013  1.0000
  H   H1007     1.0  0.750169449147165  0.11364457296086547  0.07956376442573299  1.0000
  H   H1008     1.0  0.7486766358263227  0.08109405767967576  0.08420432068526429  1.0000
  H   H1009     1.0  0.707226707153209  0.10092919527464614  0.08462139673628855  1.0000
  H   H1010     1.0  0.7048931780776888  0.11309857152098395  0.029389786870323453  1.0000
  H   H1011     1.0  0.7252023533693248  0.1321396960965865  0.04794228769931741  1.0000
  H   H1012     1.0  0.6820859178665246  0.1193770851525361  0.052686579049008975  1.0000
  N   N64       1.0  0.41111129323498585  0.08595256092654013  0.3151043837360986  1.0000
  C   C637      1.0  0.43412249500696  0.06284179785127542  0.31864837496578086  1.0000
  C   C638      1.0  0.40536474074518286  0.08969415895196486  0.29322307021182115  1.0000
  C   C639      1.0  0.4298478399859068  0.10689761567471878  0.32335463373339907  1.0000
  C   C640      1.0  0.37516051900335046  0.08439047648772102  0.3252487140752428  1.0000
  H   H1013     1.0  0.43820494606143345  0.05909090567819697  0.3350226223996392  1.0000
  H   H1014     1.0  0.46204975749916477  0.06361632517098403  0.3118713098211335  1.0000
  H   H1015     1.0  0.4213753075300579  0.04668828185183127  0.3121684004772919  1.0000
  H   H1016     1.0  0.38751264923486584  0.10669815717426845  0.2899997321846881  1.0000
  H   H1017     1.0  0.43201735227217836  0.09144344964061069  0.2852498406505364  1.0000
  H   H1018     1.0  0.3921116248411801  0.07393282623273278  0.2863410042813723  1.0000
  H   H1019     1.0  0.4329388288964704  0.10525790765000109  0.33995697493519894  1.0000
  H   H1020     1.0  0.4140432887068083  0.12476126444390445  0.3202463231802781  1.0000
  H   H1021     1.0  0.45803423518719055  0.10783085338973475  0.31696045373774273  1.0000
  H   H1022     1.0  0.35708083748608754  0.10159216959543205  0.3231936091474084  1.0000
  H   H1023     1.0  0.3785859388579431  0.08143201817043555  0.34180371382189334  1.0000
  H   H1024     1.0  0.36003391017426706  0.06884120494408097  0.31946677912274746  1.0000
