data_image0
_chemical_formula_structural       CHCHCHCSCHC2N2H4CSH11CHCH3C2S2FeS2FeSFeS2HC2HC2H6CHC6H4CH2CH2C3SH2NHNC2H2CSC2H2C2FeH4SCHCH5CH2C2HCHSFeS2FeSFeS2H2CHNHC6H6NHCH8C2H2SH2C2H4NFeH2CH9CH6CFeHNHSHSC2SFeS2FeSFeS2HSFeS2FeSFeSHNHCHC6H4C6H3SCH2C6H4C6H2C3NH4CFeCHS2H2CHNCH6C2HCH6CH6CHS2HFeSCFeSCSHSFeC6H7CH5CHNCH2CH5CHCH2SCHSFeS2FeS2FeSFeS3CH2CFeS2FeS2FeSFeS3CHSHCSHC5H2FeC2H2C6H4C6H8C6H3NH3CSHCH2C3NC4H11CH6C2H2CH5NCSC2H2CH2CHNCH2CH2CH2SHCHC3HNCH2CH3C2H4CSH4CHCHNCHFeH2FeS2FeCFeHS2H2CH4CH3C3H8NH2C2HC3H6C2H2FeNFeH3CH2SFeH5CHCH3FeS2FeS2FeSFeS3CSHCH7C7H4C6H5SC5HSHCH3SHC2HCNHCHCH4SHCH6NH4FeH2CFeHSNCHS2CHCSFeS2FeH2SC3SH3CHNH2C2H3CH5C2HSCHCH3CH2SH2CNCH2CHC4H5SHC2HCSHSH4FeH3SFeSHFeSFeS2FeS2FeS2FeHS2C6H4C3H4CFeHC4H2SHCH2CHNHFeC4SC2H2CHCHC2H3CNC4H13CH2C2HCNHSCHNH2CH5CSCHNSCH2CH4C3HCHFeSCFeS2FeS2Fe2S3C2HC2H4C6H4CH2C3HS2H2NHC2HCHC2H8CHN2CH7SH6CHC2HSHC2SH3CH3C2H4CHFeSCHS2FeHSNCHCHSHC3HFeHCHCH2CH3CH3CHSNFeS2FeS2FeSFeS3H2S2FeSCH2C6H4CHCH2SCH2CSC2H2C2H2C6H6C2SHFeNC4H10CH7CHC4H3C4HNHNCH4C2NSCHC2FeH6SH3C2H2C2HCH2C2HFeHS2HFeH2SH8C2FeHCH6CFeHSH3FeS2FeSHFeSFeS3HC3HCH2SCHC3H2C6HCNSH4C3HCH2CH3CH3CHCHC2HCHSHCHCFeS2FeS2FeSFeS3H2SHSHFeSHFeS2FeSFeHS2HC2H3CH2CH6C2H2C6H4C2HC6H3C6H6N2H2NC4H9CH2CH6CH2NH2C3H3C3HCSH6CH3FeCHCHSHC2H2C2H2NCFeS2FeHFeS2NHC3HCHC6H9CHNHSC2SHCH6CHFeHCFeS2FeSCSCFeS2FeSFeSFeS3HSCH2C6H4CHNC3H2C6H4C6H2CHCH3CH5CHNHCHSHC2H5C2H6C2HCS2H2CHNH2FeHCHCH4SCHCSFeS2FeSFeSCHCH2C7H5CH7CH6CH6SH3FeSFeS2FeSFeS3CHNHCSCHFeC2H2C6H6CHC3H2CH2NSCH2CHCH6NHCH2SC2HCH5CH2CHSH4NCHCH4SCHCHCHNSH2CFeHSHC2SHCHSH2C2SCSCHFeHFeS2FeS3H3SH2CNCHCHC6H5CNH7FeH2CH2CHC2HCHCHCHC2HC2FeHSCNCH3FeCHNCHCSHCH2FeC2HFeH9CH2CHFeSFeS2FeS2C6H4SH4CH2SH3CH4SNH2FeH9S2FeS2FeSFeSHC5H2C6H2C2H2SNC4H10FeSH6SCH2CH2CHCFeS2H2SH3C6SH3CH2FeH4FeHC3NCH5SHNCSH2CH2C2HCFeSFeCHCH3C2SH2NHC2SH2C3H7CH2FeSHSHNFeH3SHCHSC2HCHC3HSH7C3H3NHC3HC3H8CH5SHFeS2Fe2S2HC8H4CNC2HSFeNCH2SC3H3C2H6FeCFeSH2FeS3C2H3CHNHSCH7SNCH2C2H6C2H2SC2FeSH2CHSHC7H6FeH2NHFeH3SCH3NHC2SHNCHCFeSHCH2CHSCHCSH4CFeC2H2FeH2CFeSC3S2H2FeS2FeSFeS2C6H4C2H5C3HCH2CHCH2CHSH9FeHC5H2CH2SHSFeS2Fe2S3CHC5H10CHCHCH2NHCSCHFeS2FeS2H4C4H4SCHNFeCHCH2C3H6CH2SCHNHC4H3CHC2H3CHCHFeSHC2HSHSH2SHFeSHSNH3S3HSC2HC2H2C6H5C3HFeC2HCH2FeCH2FeNH3CH9FeH3S3H2FeHCHC2SC7H4C3HSH5SCHCHFeCH2NHC2H3NCHC2HFeHSHS2NFeSCH4CH2CHNHFeH6SH2SFeSC2H2C7H6FeNH6CH3SH3CHSCH2SCHC4HS3FeCHFeHCFeHCH4C2SFeC2S2FeCNH2CH4SHCH3CSCHFeSHSHSFeH2FeSHC6H4C2H2CHCHCHSNCH5NH3S2FeSFeSHC4SHFeH3CHCSNHCH2CSFeHCH2SC2HCHSHC3H3CH3CHC4H3CSH2C2FeSFeS2Fe2S3HC2HC4H2C2H6NH3C2H5CHNH5CH2FeSFeSFeSFeS3HC9H7FeH3CH3C2HNS2HSH2FeS2FeH6C2H2CHC2H3NH2CHCNCH2CNHC3HCSH4C2H4CHCH2FeS2FeSFeSHSHC6H4CHCH2S2H2C3H2NCHC2H2CSHCHCH10C2H2FeCH2Fe2SHCHCHC2SH4NH3NHCHFeS2H7C6H5NSHFeHSH2CHNC2HCSH2SCHFeS2FeCS2CSFeC2SHC3H5CH3C7H4SHCH2SHFeCHFeH2C2H2SCH2CH3NC2H5CH2CHCSH3CHCHC2FeS2HSHFeHCHC7H3CNC2HCH2SH5SH2Fe2S3CS2H3C2H2SC6H3CH2SCH2FeHCFeCH3CH2CH2C2H3NH2NCSHC2HCH2SH7C2HSH7CSC2H2FeS2FeSFeS3CH5CSC2H4C6H2CHC2H2CNSHNCHCHSCHSHFeH3CH2CSHC2H2SC2H2SCSC2H3NCHNHSH2CNHFeH3S2FeSFeHCSC6H4Fe2HC2HC2HCHCHCNHCFeC3HCH2FeS2FeS2H4C4H7C2H3SH4SFeH2CHCH5CH2NH5C3H3CH6CH2CHFeS2FeS2FeSFeS3FeSCH3FeS2FeS2FeHFeS3CH2CHCHC2H5C2HC6H4C6H4C6H6CH7SHN2C4H3CH2CH2NC2H9NC4HCSC2H6CHCHSNH3CHC2HCH6CH3C4FeS2FeCHFeSFeS3HCH2C3H5C2H6C2H2CH2NSCHC3HC3HCSFeS2HSFeSFeSCSFeSFeS2FeSFeS3CH5CH2C5HCHC3HC6H4C6H4C7H3CHCH6SH3CNH2CH2CNH2NH3CHSH3C2SHNC2HCH2CFeH9FeH7FeS2FeSFeS2H2C5HSC6H3CHCHSH3SC2NH6C2H2SFeSHFeSFeS2CH2NCH2CH2CHC6H4SH3CH4C2HFeCSNHCSC2H8CH2C3HC2H4FeSFeS2FeSFeS3C6H7CHC2H5NH2NHC2H6SHFeCH7SNH3CHNHCH8NHC2HCFeHCH3SFeHFeS2FeSHFeSH3C2HSHCH2C3H4SFeSH6NH4NH3C2SCHCHCH2CHFeS2FeS2FeSFeS3C2FeHNH2C7H4CH2C3H2CHC6H4CNC4H12SCHNC2HC2HC2H2SH3CHSCH2C2H2SH6C4NH9SCFeCHFeHSH3CHSH4FeSHSCFeCNCH2CH10Fe2SCS4HSFeSFeS3CHC6H4FeH4CSH5CH2CHNCFe2HNC3H7CH3CHCH3CH3C2HCH2NCHC2HCHSHC2H3SCHC2HC2HCHCHSH5CNHCHCHC4H4CHCH4CSCHC3H3CH3S2HCHCH2CHCHSHFeSFeSCFeSCFeS2FeSFeSHCHC2H2SHCHC6H4CH2NHCHSC2HFeHSHCHSNHSH3CHCH7CH6CNC2HCSCHC2H2CH2CHNHC2HC2H2CH2NH5FeHFeSHCFeS2FeS2FeSFeCS2CH4FeC7H4C6H5CH3C5H3C2H2NC4H2CH2SH4NH6SHCFeCH4CHCSHNH2CSC2H2SC2H5CNH3CHSHSH4SFeSCHFeS2FeSFeSHCH2C2H3NSC2H7C5H2FeH5CHCH2CSH3CH2CHCH2FeS4H3C6H5CFeSCFeCNC4H15CH3CS2CFeSCH2CNSCSH4C6H4FeH3CH3C2H5SCH3CH2SHNH5C2H2FeSNCFe2S2FeS3H2CHC7H3SHC6H4SH3SC2H2FeHCNCHSH2CHSCHC2H5FeH2SH4S2FeS2FeSFeHSFeS2FeS2FeSHS2C2SH3CHSH2CH2C3H2C7H4C6H2C6H5NC3FeHNH3C3HNH8CH3CHCHNC2H3CH6FeHCH2CH6C2H2FeCH5FeS2FeS2FeHFeHS2H2C2HCHC2HCHCHC2HCHCH2NSHSC2H2CSCH2CH6CH3CH7CNHCHCH2CH4CHFeS2FeS2FeSFeS3CSHFeS2FeHCFeSFeS2HNCHCHFeH2NC6H2SHC6H4C2H2C6H5C2H4C4HCH2CH2NCH4CH2CSHCHC2H6C2H3CHNH2CH5CH2C5SH2CNH3CHCHSH4
_chemical_formula_sum              "C1640 H2624 S656 N164 Fe328"
_cell_length_a       69.9917
_cell_length_b       70.424
_cell_length_c       70.8473
_cell_angle_alpha    85.3313
_cell_angle_beta     84.3103
_cell_angle_gamma    84.0284

_space_group_name_H-M_alt    "P 1"
_space_group_IT_number       1

loop_
  _space_group_symop_operation_xyz
  'x, y, z'

loop_
  _atom_site_type_symbol
  _atom_site_label
  _atom_site_symmetry_multiplicity
  _atom_site_fract_x
  _atom_site_fract_y
  _atom_site_fract_z
  _atom_site_occupancy
  C   C1        1.0  0.30165  0.07310  0.01074  1.0000
  H   H1        1.0  0.31840  0.23065  0.06247  1.0000
  C   C2        1.0  0.27302  0.01859  0.01631  1.0000
  H   H2        1.0  0.30647  0.05858  0.01704  1.0000
  C   C3        1.0  0.33182  0.25768  0.08101  1.0000
  H   H3        1.0  0.21118  0.00924  0.06467  1.0000
  C   C4        1.0  0.32366  0.24312  0.05356  1.0000
  S   S1        1.0  0.32076  0.26914  0.00859  1.0000
  C   C5        1.0  0.01226  0.31637  0.00941  1.0000
  H   H4        1.0  0.28989  0.07957  0.02064  1.0000
  C   C6        1.0  0.32591  0.08762  0.02501  1.0000
  C   C7        1.0  0.03224  0.01356  0.09622  1.0000
  N   N1        1.0  0.02640  0.01467  0.07664  1.0000
  N   N2        1.0  0.31783  0.08522  0.00695  1.0000
  H   H5        1.0  0.02016  0.01914  0.10634  1.0000
  H   H6        1.0  0.31111  0.25396  0.05153  1.0000
  H   H7        1.0  0.31938  0.26883  0.08000  1.0000
  H   H8        1.0  0.03248  0.04404  0.07076  1.0000
  C   C8        1.0  0.02057  0.03482  0.07045  1.0000
  S   S2        1.0  0.01414  0.02782  0.01564  1.0000
  H   H9        1.0  0.29920  0.11159  0.00771  1.0000
  H   H10       1.0  0.00790  0.04086  0.07962  1.0000
  H   H11       1.0  0.28397  0.29044  0.01671  1.0000
  H   H12       1.0  0.25782  0.02128  0.02079  1.0000
  H   H13       1.0  0.32690  0.24557  0.09074  1.0000
  H   H14       1.0  0.26928  0.32199  0.00408  1.0000
  H   H15       1.0  0.05512  0.01601  0.06282  1.0000
  H   H16       1.0  0.31482  0.09450  0.03534  1.0000
  H   H17       1.0  0.04466  0.02201  0.09707  1.0000
  H   H18       1.0  0.33325  0.27877  0.04711  1.0000
  H   H19       1.0  0.32868  0.23821  0.03922  1.0000
  C   C9        1.0  0.31212  0.01191  0.00446  1.0000
  H   H20       1.0  0.03861  0.00663  0.04895  1.0000
  C   C10       1.0  0.29210  0.29884  0.00589  1.0000
  H   H21       1.0  0.00554  0.26945  0.01953  1.0000
  H   H22       1.0  0.01617  0.03611  0.05569  1.0000
  H   H23       1.0  0.33140  0.07355  0.03181  1.0000
  C   C11       1.0  0.01539  0.29651  0.00840  1.0000
  C   C12       1.0  0.04280  0.00709  0.06368  1.0000
  S   S3        1.0  0.21915  0.03821  0.40779  1.0000
  S   S4        1.0  0.24510  0.12063  0.47908  1.0000
  Fe  Fe1       1.0  0.28962  0.14952  0.46288  1.0000
  S   S5        1.0  0.26990  0.14034  0.44274  1.0000
  S   S6        1.0  0.31103  0.16901  0.44667  1.0000
  Fe  Fe2       1.0  0.24548  0.14990  0.46392  1.0000
  S   S7        1.0  0.21769  0.16606  0.45455  1.0000
  Fe  Fe3       1.0  0.27133  0.11201  0.45963  1.0000
  S   S8        1.0  0.27807  0.08387  0.44538  1.0000
  S   S9        1.0  0.29257  0.12039  0.47887  1.0000
  H   H24       1.0  0.28483  0.02744  0.38233  1.0000
  C   C13       1.0  0.03885  0.27623  0.35355  1.0000
  C   C14       1.0  0.20682  0.18842  0.46201  1.0000
  H   H25       1.0  0.27018  0.06696  0.33578  1.0000
  C   C15       1.0  0.05659  0.01141  0.32329  1.0000
  C   C16       1.0  0.33392  0.17445  0.45252  1.0000
  H   H26       1.0  0.29404  0.06809  0.37003  1.0000
  H   H27       1.0  0.17388  0.30283  0.44004  1.0000
  H   H28       1.0  0.22902  0.19351  0.47946  1.0000
  H   H29       1.0  0.28506  0.01922  0.35892  1.0000
  H   H30       1.0  0.29479  0.05698  0.33728  1.0000
  H   H31       1.0  0.26636  0.18777  0.40022  1.0000
  C   C17       1.0  0.06029  0.25403  0.47256  1.0000
  H   H32       1.0  0.27536  0.06150  0.38783  1.0000
  C   C18       1.0  0.23561  0.05049  0.41863  1.0000
  C   C19       1.0  0.22950  0.06862  0.42525  1.0000
  C   C20       1.0  0.24223  0.07897  0.43364  1.0000
  C   C21       1.0  0.26127  0.07128  0.43543  1.0000
  C   C22       1.0  0.26738  0.05314  0.42879  1.0000
  C   C23       1.0  0.25462  0.04275  0.42050  1.0000
  H   H33       1.0  0.21481  0.07471  0.42389  1.0000
  H   H34       1.0  0.23735  0.09291  0.43866  1.0000
  H   H35       1.0  0.28204  0.04703  0.43024  1.0000
  H   H36       1.0  0.25946  0.02871  0.41572  1.0000
  C   C24       1.0  0.27870  0.06492  0.37229  1.0000
  H   H37       1.0  0.25499  0.17405  0.41983  1.0000
  H   H38       1.0  0.02986  0.28078  0.31765  1.0000
  C   C25       1.0  0.01162  0.29971  0.35910  1.0000
  H   H39       1.0  0.25640  0.20983  0.45521  1.0000
  H   H40       1.0  0.04542  0.28010  0.36624  1.0000
  C   C26       1.0  0.25464  0.04521  0.36489  1.0000
  C   C27       1.0  0.27946  0.05406  0.34065  1.0000
  C   C28       1.0  0.26102  0.19720  0.44682  1.0000
  S   S10       1.0  0.13483  0.28285  0.49245  1.0000
  H   H41       1.0  0.27568  0.19148  0.45059  1.0000
  H   H42       1.0  0.03124  0.32105  0.33224  1.0000
  N   N3        1.0  0.27511  0.04897  0.36117  1.0000
  H   H43       1.0  0.06581  0.26011  0.48471  1.0000
  N   N4        1.0  0.26076  0.20211  0.42619  1.0000
  C   C29       1.0  0.01863  0.28701  0.32823  1.0000
  C   C30       1.0  0.26581  0.18458  0.41589  1.0000
  H   H44       1.0  0.07539  0.01975  0.36391  1.0000
  H   H45       1.0  0.27693  0.04218  0.33198  1.0000
  C   C31       1.0  0.21554  0.19912  0.47395  1.0000
  S   S11       1.0  0.26481  0.16075  0.48303  1.0000
  C   C32       1.0  0.27502  0.21596  0.42005  1.0000
  C   C33       1.0  0.28759  0.03162  0.36687  1.0000
  H   H46       1.0  0.28017  0.17740  0.41925  1.0000
  H   H47       1.0  0.27179  0.22924  0.42775  1.0000
  C   C34       1.0  0.20682  0.21725  0.47874  1.0000
  C   C35       1.0  0.18910  0.19584  0.45534  1.0000
  Fe  Fe4       1.0  0.22690  0.01005  0.39389  1.0000
  H   H48       1.0  0.27525  0.22006  0.40454  1.0000
  H   H49       1.0  0.18501  0.28019  0.44895  1.0000
  H   H50       1.0  0.18221  0.18767  0.44611  1.0000
  H   H51       1.0  0.28987  0.20976  0.42297  1.0000
  S   S12       1.0  0.01558  0.26853  0.39971  1.0000
  C   C36       1.0  0.03962  0.30831  0.33881  1.0000
  H   H52       1.0  0.07083  0.25648  0.46007  1.0000
  C   C37       1.0  0.19295  0.14676  0.49842  1.0000
  H   H53       1.0  0.25121  0.18603  0.45165  1.0000
  H   H54       1.0  0.24040  0.21444  0.40670  1.0000
  H   H55       1.0  0.18029  0.31172  0.48936  1.0000
  H   H56       1.0  0.19884  0.29590  0.43298  1.0000
  H   H57       1.0  0.20807  0.32624  0.44468  1.0000
  C   C38       1.0  0.06799  0.02330  0.35069  1.0000
  H   H58       1.0  0.02989  0.26436  0.35855  1.0000
  H   H59       1.0  0.05071  0.27049  0.34331  1.0000
  C   C39       1.0  0.24121  0.21053  0.42214  1.0000
  C   C40       1.0  0.04892  0.22648  0.46071  1.0000
  H   H60       1.0  0.30315  0.03383  0.36402  1.0000
  C   C41       1.0  0.18752  0.29546  0.44513  1.0000
  H   H61       1.0  0.19911  0.33260  0.46825  1.0000
  S   S13       1.0  0.12146  0.24464  0.47609  1.0000
  Fe  Fe5       1.0  0.12599  0.29883  0.46526  1.0000
  S   S14       1.0  0.14045  0.27636  0.44629  1.0000
  S   S15       1.0  0.13100  0.32922  0.45287  1.0000
  Fe  Fe6       1.0  0.11226  0.26309  0.45055  1.0000
  S   S16       1.0  0.09923  0.24755  0.42855  1.0000
  Fe  Fe7       1.0  0.14817  0.25989  0.47338  1.0000
  S   S17       1.0  0.17916  0.24793  0.47773  1.0000
  S   S18       1.0  0.09702  0.28661  0.46748  1.0000
  H   H62       1.0  0.22318  0.29496  0.45655  1.0000
  H   H63       1.0  0.05350  0.03073  0.35475  1.0000
  C   C42       1.0  0.18912  0.22470  0.47199  1.0000
  H   H64       1.0  0.17619  0.28845  0.48291  1.0000
  N   N5        1.0  0.19308  0.30459  0.46158  1.0000
  H   H65       1.0  0.03114  0.23866  0.49367  1.0000
  C   C43       1.0  0.03886  0.26219  0.40748  1.0000
  C   C44       1.0  0.04696  0.27538  0.41743  1.0000
  C   C45       1.0  0.06551  0.27125  0.42370  1.0000
  C   C46       1.0  0.07626  0.25388  0.41997  1.0000
  C   C47       1.0  0.06831  0.24081  0.40970  1.0000
  C   C48       1.0  0.04963  0.24485  0.40360  1.0000
  H   H66       1.0  0.03880  0.28891  0.42035  1.0000
  H   H67       1.0  0.07151  0.28155  0.43137  1.0000
  H   H68       1.0  0.07655  0.22735  0.40666  1.0000
  H   H69       1.0  0.04363  0.23462  0.39584  1.0000
  H   H70       1.0  0.16662  0.21941  0.45505  1.0000
  H   H71       1.0  0.01749  0.30342  0.37223  1.0000
  N   N6        1.0  0.02717  0.29280  0.34491  1.0000
  H   H72       1.0  0.21375  0.22552  0.48783  1.0000
  C   C49       1.0  0.04561  0.23060  0.49449  1.0000
  H   H73       1.0  0.23024  0.20024  0.42667  1.0000
  H   H74       1.0  0.16339  0.30929  0.47243  1.0000
  H   H75       1.0  0.07641  0.03369  0.34152  1.0000
  H   H76       1.0  0.23674  0.22361  0.42994  1.0000
  H   H77       1.0  0.03476  0.23470  0.45844  1.0000
  H   H78       1.0  0.25124  0.03354  0.35646  1.0000
  H   H79       1.0  0.04624  0.31303  0.35108  1.0000
  H   H80       1.0  0.20931  0.27906  0.47223  1.0000
  C   C50       1.0  0.21112  0.29444  0.46798  1.0000
  C   C51       1.0  0.07706  0.22267  0.47826  1.0000
  H   H81       1.0  0.04651  0.21108  0.46336  1.0000
  H   H82       1.0  0.08684  0.22470  0.46498  1.0000
  S   S19       1.0  0.21702  0.00753  0.36497  1.0000
  H   H83       1.0  0.28601  0.01817  0.29778  1.0000
  H   H84       1.0  0.04645  0.26249  0.46960  1.0000
  C   C52       1.0  0.19598  0.32486  0.45597  1.0000
  C   C53       1.0  0.18022  0.21383  0.46039  1.0000
  H   H85       1.0  0.08428  0.22751  0.49008  1.0000
  H   H86       1.0  0.05824  0.22799  0.44712  1.0000
  H   H87       1.0  0.26950  0.07824  0.36840  1.0000
  H   H88       1.0  0.25100  0.04081  0.38011  1.0000
  N   N7        1.0  0.05795  0.23343  0.47651  1.0000
  Fe  Fe8       1.0  0.10720  0.26871  0.49315  1.0000
  H   H89       1.0  0.21549  0.30089  0.48053  1.0000
  H   H90       1.0  0.05152  0.30358  0.32810  1.0000
  C   C54       1.0  0.17760  0.30350  0.47728  1.0000
  H   H91       1.0  0.24472  0.05810  0.36130  1.0000
  H   H92       1.0  0.31910  0.00777  0.28396  1.0000
  H   H93       1.0  0.01055  0.29941  0.32080  1.0000
  H   H94       1.0  0.04167  0.01827  0.32657  1.0000
  H   H95       1.0  0.18053  0.13796  0.49960  1.0000
  H   H96       1.0  0.14640  0.33662  0.48856  1.0000
  H   H97       1.0  0.06461  0.02154  0.31343  1.0000
  H   H98       1.0  0.18289  0.33264  0.45027  1.0000
  H   H99       1.0  0.07591  0.20705  0.48111  1.0000
  C   C55       1.0  0.29427  0.00616  0.30460  1.0000
  H   H100      1.0  0.09484  0.00589  0.32595  1.0000
  H   H101      1.0  0.00824  0.27612  0.33240  1.0000
  H   H102      1.0  0.18816  0.16121  0.49194  1.0000
  H   H103      1.0  0.20429  0.14019  0.48811  1.0000
  H   H104      1.0  0.00965  0.02723  0.27473  1.0000
  H   H105      1.0  0.04352  0.21522  0.49795  1.0000
  C   C56       1.0  0.00542  0.02095  0.28878  1.0000
  Fe  Fe9       1.0  0.26591  0.13084  0.49734  1.0000
  H   H106      1.0  0.33338  0.15813  0.47956  1.0000
  N   N8        1.0  0.06638  0.00596  0.34077  1.0000
  H   H107      1.0  0.17793  0.04027  0.64021  1.0000
  S   S20       1.0  0.04049  0.08827  0.74000  1.0000
  H   H108      1.0  0.01085  0.29477  0.54372  1.0000
  S   S21       1.0  0.25610  0.12954  0.52898  1.0000
  C   C57       1.0  0.02487  0.21972  0.71202  1.0000
  C   C58       1.0  0.03882  0.31152  0.70998  1.0000
  S   S22       1.0  0.22216  0.04586  0.61507  1.0000
  Fe  Fe10      1.0  0.25513  0.03313  0.65641  1.0000
  S   S23       1.0  0.24769  0.06344  0.64493  1.0000
  S   S24       1.0  0.27751  0.02284  0.67749  1.0000
  Fe  Fe11      1.0  0.21741  0.05484  0.64514  1.0000
  S   S25       1.0  0.19053  0.07486  0.65284  1.0000
  Fe  Fe12      1.0  0.25291  0.05171  0.61599  1.0000
  S   S26       1.0  0.27404  0.06152  0.59152  1.0000
  S   S27       1.0  0.22436  0.02526  0.65865  1.0000
  H   H109      1.0  0.05431  0.30928  0.71041  1.0000
  S   S28       1.0  0.08563  0.09566  0.72777  1.0000
  Fe  Fe13      1.0  0.04534  0.06054  0.72583  1.0000
  S   S29       1.0  0.06095  0.07355  0.69942  1.0000
  S   S30       1.0  0.01729  0.04584  0.73003  1.0000
  Fe  Fe14      1.0  0.08823  0.06734  0.71435  1.0000
  S   S31       1.0  0.11592  0.04971  0.70380  1.0000
  Fe  Fe15      1.0  0.05722  0.10113  0.71421  1.0000
  S   S32       1.0  0.03934  0.12555  0.69872  1.0000
  H   H110      1.0  0.02048  0.22038  0.69728  1.0000
  N   N9        1.0  0.20033  0.14794  0.51710  1.0000
  H   H111      1.0  0.32887  0.07612  0.62055  1.0000
  C   C59       1.0  0.00992  0.30445  0.69650  1.0000
  H   H112      1.0  0.03168  0.09349  0.67463  1.0000
  C   C60       1.0  0.17037  0.06854  0.66841  1.0000
  C   C61       1.0  0.17115  0.05165  0.68025  1.0000
  C   C62       1.0  0.15448  0.04642  0.69149  1.0000
  C   C63       1.0  0.13695  0.05816  0.69124  1.0000
  C   C64       1.0  0.13635  0.07540  0.67993  1.0000
  C   C65       1.0  0.15299  0.08052  0.66854  1.0000
  H   H113      1.0  0.18459  0.04263  0.68072  1.0000
  H   H114      1.0  0.15512  0.03313  0.70032  1.0000
  H   H115      1.0  0.12296  0.08455  0.67957  1.0000
  H   H116      1.0  0.15230  0.09371  0.65956  1.0000
  C   C66       1.0  0.04413  0.14935  0.69077  1.0000
  C   C67       1.0  0.06125  0.15682  0.69376  1.0000
  C   C68       1.0  0.06431  0.17582  0.68712  1.0000
  C   C69       1.0  0.05038  0.18752  0.67736  1.0000
  C   C70       1.0  0.03321  0.18009  0.67447  1.0000
  C   C71       1.0  0.03013  0.16112  0.68115  1.0000
  H   H117      1.0  0.07216  0.14796  0.70112  1.0000
  H   H118      1.0  0.07764  0.18142  0.68943  1.0000
  H   H119      1.0  0.03780  0.20908  0.71248  1.0000
  S   S33       1.0  0.32690  0.06721  0.72783  1.0000
  C   C72       1.0  0.02093  0.01263  0.71026  1.0000
  H   H120      1.0  0.28882  0.05565  0.65138  1.0000
  H   H121      1.0  0.32285  0.02404  0.62206  1.0000
  C   C73       1.0  0.26775  0.07952  0.57362  1.0000
  C   C74       1.0  0.25240  0.09360  0.57685  1.0000
  C   C75       1.0  0.24889  0.10868  0.56292  1.0000
  C   C76       1.0  0.26035  0.10957  0.54546  1.0000
  C   C77       1.0  0.27532  0.09517  0.54199  1.0000
  C   C78       1.0  0.27915  0.08036  0.55612  1.0000
  H   H122      1.0  0.24363  0.09321  0.59032  1.0000
  H   H123      1.0  0.23741  0.11985  0.56584  1.0000
  H   H124      1.0  0.28431  0.09576  0.52866  1.0000
  H   H125      1.0  0.29109  0.06958  0.55352  1.0000
  C   C79       1.0  0.31335  0.05461  0.71390  1.0000
  C   C80       1.0  0.29897  0.06489  0.70354  1.0000
  C   C81       1.0  0.28770  0.05545  0.69250  1.0000
  C   C82       1.0  0.29072  0.03557  0.69165  1.0000
  C   C83       1.0  0.30505  0.02530  0.70207  1.0000
  C   C84       1.0  0.31629  0.03473  0.71314  1.0000
  H   H126      1.0  0.29651  0.08027  0.70409  1.0000
  H   H127      1.0  0.27661  0.06356  0.68475  1.0000
  C   C85       1.0  0.01650  0.09662  0.67098  1.0000
  C   C86       1.0  0.00942  0.25982  0.57969  1.0000
  C   C87       1.0  0.04499  0.24553  0.70380  1.0000
  N   N10       1.0  0.16384  0.01454  0.64022  1.0000
  H   H128      1.0  0.30196  0.02521  0.63900  1.0000
  H   H129      1.0  0.02235  0.18891  0.66702  1.0000
  H   H130      1.0  0.31563  0.06517  0.60461  1.0000
  H   H131      1.0  0.05827  0.23535  0.70403  1.0000
  C   C88       1.0  0.17488  0.02975  0.63027  1.0000
  Fe  Fe16      1.0  0.23083  0.01662  0.62853  1.0000
  C   C89       1.0  0.21666  0.15989  0.51472  1.0000
  H   H132      1.0  0.32730  0.02662  0.72098  1.0000
  S   S34       1.0  0.00458  0.27585  0.62846  1.0000
  S   S35       1.0  0.07272  0.05204  0.73955  1.0000
  H   H133      1.0  0.21219  0.17475  0.50915  1.0000
  H   H134      1.0  0.19004  0.15782  0.54452  1.0000
  C   C90       1.0  0.03492  0.23717  0.73670  1.0000
  H   H135      1.0  0.01304  0.21399  0.72175  1.0000
  N   N11       1.0  0.31490  0.05169  0.63297  1.0000
  C   C91       1.0  0.02788  0.32416  0.72221  1.0000
  H   H136      1.0  0.32024  0.03980  0.66108  1.0000
  H   H137      1.0  0.33128  0.06140  0.65385  1.0000
  H   H138      1.0  0.02354  0.06093  0.68753  1.0000
  H   H139      1.0  0.01608  0.09311  0.65602  1.0000
  H   H140      1.0  0.13604  0.02991  0.63666  1.0000
  H   H141      1.0  0.03825  0.25128  0.74093  1.0000
  C   C92       1.0  0.32496  0.06213  0.61662  1.0000
  C   C93       1.0  0.01174  0.25246  0.71582  1.0000
  H   H142      1.0  0.21287  0.12889  0.53888  1.0000
  C   C94       1.0  0.32750  0.04788  0.64868  1.0000
  H   H143      1.0  0.30033  0.07712  0.64474  1.0000
  H   H144      1.0  0.16697  0.03785  0.61884  1.0000
  H   H145      1.0  0.01444  0.26700  0.71943  1.0000
  H   H146      1.0  0.00829  0.06044  0.66864  1.0000
  H   H147      1.0  0.15339  0.00720  0.61449  1.0000
  H   H148      1.0  0.19503  0.11902  0.52695  1.0000
  C   C95       1.0  0.30982  0.03336  0.62703  1.0000
  H   H149      1.0  0.01914  0.08789  0.70808  1.0000
  H   H150      1.0  0.02328  0.23205  0.74713  1.0000
  H   H151      1.0  0.28753  0.06703  0.62787  1.0000
  H   H152      1.0  0.22302  0.16067  0.52842  1.0000
  H   H153      1.0  0.02173  0.26334  0.58707  1.0000
  H   H154      1.0  0.30033  0.03575  0.61515  1.0000
  C   C96       1.0  0.29713  0.06341  0.63954  1.0000
  H   H155      1.0  0.00751  0.29657  0.58750  1.0000
  S   S36       1.0  0.05482  0.21145  0.66961  1.0000
  S   S37       1.0  0.26190  0.02175  0.62745  1.0000
  H   H156      1.0  0.17954  0.17133  0.52484  1.0000
  Fe  Fe17      1.0  0.03544  0.23334  0.65279  1.0000
  S   S38       1.0  0.04297  0.26393  0.65139  1.0000
  C   C97       1.0  0.01651  0.28259  0.55325  1.0000
  Fe  Fe18      1.0  0.03582  0.26582  0.62094  1.0000
  S   S39       1.0  0.05191  0.28364  0.59744  1.0000
  C   C98       1.0  0.20692  0.12851  0.52491  1.0000
  S   S40       1.0  0.03105  0.23472  0.62157  1.0000
  H   H157      1.0  0.03526  0.01614  0.70495  1.0000
  S   S41       1.0  0.08656  0.25583  0.51664  1.0000
  Fe  Fe19      1.0  0.01142  0.27148  0.65904  1.0000
  C   C99       1.0  0.06290  0.27517  0.57567  1.0000
  C   C100      1.0  0.07243  0.28783  0.56247  1.0000
  C   C101      1.0  0.08024  0.28204  0.54448  1.0000
  C   C102      1.0  0.07835  0.26358  0.53947  1.0000
  C   C103      1.0  0.06880  0.25093  0.55267  1.0000
  C   C104      1.0  0.06129  0.25661  0.57075  1.0000
  H   H158      1.0  0.07372  0.30223  0.56614  1.0000
  H   H159      1.0  0.08748  0.29194  0.53443  1.0000
  H   H160      1.0  0.06738  0.23658  0.54897  1.0000
  H   H161      1.0  0.05426  0.24661  0.58084  1.0000
  H   H162      1.0  0.21872  0.12156  0.51533  1.0000
  H   H163      1.0  0.17229  0.14798  0.53254  1.0000
  H   H164      1.0  0.13640  0.01228  0.65655  1.0000
  C   C105      1.0  0.02993  0.30177  0.69713  1.0000
  H   H165      1.0  0.02890  0.28734  0.55974  1.0000
  H   H166      1.0  0.04804  0.22693  0.73808  1.0000
  H   H167      1.0  0.04867  0.25982  0.70714  1.0000
  H   H168      1.0  0.03854  0.29220  0.68773  1.0000
  H   H169      1.0  0.17686  0.01507  0.66638  1.0000
  C   C106      1.0  0.00789  0.32700  0.72144  1.0000
  H   H170      1.0  0.01683  0.15553  0.67877  1.0000
  N   N12       1.0  0.02912  0.23872  0.71710  1.0000
  C   C107      1.0  0.00945  0.02454  0.72263  1.0000
  H   H171      1.0  0.22843  0.15384  0.50461  1.0000
  H   H172      1.0  0.04099  0.24685  0.68895  1.0000
  C   C108      1.0  0.18484  0.15665  0.53033  1.0000
  H   H173      1.0  0.00705  0.25408  0.70116  1.0000
  H   H174      1.0  0.14639  0.03452  0.65765  1.0000
  H   H175      1.0  0.05223  0.23568  0.50663  1.0000
  H   H176      1.0  0.02238  0.27065  0.54432  1.0000
  H   H177      1.0  0.01296  0.11237  0.67165  1.0000
  C   C109      1.0  0.00870  0.06502  0.68324  1.0000
  H   H178      1.0  0.18900  0.02369  0.62360  1.0000
  C   C110      1.0  0.14482  0.02312  0.64809  1.0000
  H   H179      1.0  0.01462  0.24755  0.57099  1.0000
  H   H180      1.0  0.30752  0.00992  0.70151  1.0000
  S   S42       1.0  0.04005  0.33618  0.73784  1.0000
  C   C111      1.0  0.00427  0.09111  0.70380  1.0000
  H   H181      1.0  0.28635  0.06685  0.74801  1.0000
  S   S43       1.0  0.00413  0.24086  0.66203  1.0000
  Fe  Fe20      1.0  0.13305  0.12272  0.89716  1.0000
  S   S44       1.0  0.11541  0.12257  0.92535  1.0000
  S   S45       1.0  0.16523  0.12549  0.89129  1.0000
  Fe  Fe21      1.0  0.09732  0.12545  0.87498  1.0000
  S   S46       1.0  0.07674  0.12561  0.90162  1.0000
  S   S47       1.0  0.09008  0.13198  0.84430  1.0000
  Fe  Fe22      1.0  0.09563  0.14589  0.91201  1.0000
  S   S48       1.0  0.08218  0.16957  0.93059  1.0000
  Fe  Fe23      1.0  0.09780  0.10233  0.91318  1.0000
  S   S49       1.0  0.09095  0.07651  0.93312  1.0000
  S   S50       1.0  0.11447  0.14765  0.88466  1.0000
  S   S51       1.0  0.11721  0.10060  0.88575  1.0000
  C   C112      1.0  0.08846  0.19351  0.92868  1.0000
  H   H182      1.0  0.02449  0.13901  0.94202  1.0000
  H   H183      1.0  0.16393  0.09487  0.92177  1.0000
  C   C113      1.0  0.08360  0.22555  0.94052  1.0000
  Fe  Fe24      1.0  0.26254  0.08317  0.93676  1.0000
  S   S52       1.0  0.28452  0.05889  0.92788  1.0000
  S   S53       1.0  0.23023  0.08031  0.93923  1.0000
  Fe  Fe25      1.0  0.29354  0.10732  0.94764  1.0000
  S   S54       1.0  0.31735  0.08473  0.93987  1.0000
  S   S55       1.0  0.29590  0.13657  0.95879  1.0000
  Fe  Fe26      1.0  0.30205  0.08213  0.91371  1.0000
  S   S56       1.0  0.31950  0.08620  0.88473  1.0000
  Fe  Fe27      1.0  0.29790  0.06332  0.95473  1.0000
  S   S57       1.0  0.31184  0.03980  0.97475  1.0000
  S   S58       1.0  0.27903  0.10606  0.92085  1.0000
  S   S59       1.0  0.27511  0.08623  0.96431  1.0000
  C   C114      1.0  0.32654  0.17989  0.97020  1.0000
  H   H184      1.0  0.07680  0.13259  0.94930  1.0000
  S   S60       1.0  0.07024  0.07557  0.78447  1.0000
  H   H185      1.0  0.14093  0.13920  0.95268  1.0000
  C   C115      1.0  0.03624  0.11477  0.97089  1.0000
  S   S61       1.0  0.00701  0.05433  0.96444  1.0000
  H   H186      1.0  0.05498  0.03840  0.80267  1.0000
  C   C116      1.0  0.33194  0.04743  0.83438  1.0000
  C   C117      1.0  0.28109  0.02942  0.00038  1.0000
  C   C118      1.0  0.28373  0.31675  0.99877  1.0000
  C   C119      1.0  0.32397  0.07082  0.86565  1.0000
  C   C120      1.0  0.31641  0.05311  0.86633  1.0000
  H   H187      1.0  0.07003  0.10879  0.94934  1.0000
  H   H188      1.0  0.30751  0.04835  0.87884  1.0000
  Fe  Fe28      1.0  0.06871  0.08049  0.75235  1.0000
  C   C121      1.0  0.30071  0.02611  0.99433  1.0000
  C   C122      1.0  0.31551  0.14967  0.96252  1.0000
  H   H189      1.0  0.17917  0.15222  0.91480  1.0000
  H   H190      1.0  0.33345  0.11231  0.90752  1.0000
  C   C123      1.0  0.06753  0.07011  0.94116  1.0000
  C   C124      1.0  0.06531  0.05656  0.95672  1.0000
  C   C125      1.0  0.04690  0.05141  0.96386  1.0000
  C   C126      1.0  0.03051  0.05975  0.95545  1.0000
  C   C127      1.0  0.03274  0.07320  0.93977  1.0000
  C   C128      1.0  0.05116  0.07836  0.93263  1.0000
  H   H191      1.0  0.07791  0.05001  0.96332  1.0000
  H   H192      1.0  0.04540  0.04101  0.97589  1.0000
  H   H193      1.0  0.02013  0.07957  0.93307  1.0000
  H   H194      1.0  0.05272  0.08848  0.92039  1.0000
  C   C129      1.0  0.08395  0.11617  0.82805  1.0000
  C   C130      1.0  0.08096  0.09711  0.83354  1.0000
  C   C131      1.0  0.07682  0.08491  0.81998  1.0000
  C   C132      1.0  0.07566  0.09159  0.80081  1.0000
  C   C133      1.0  0.07870  0.11064  0.79532  1.0000
  C   C134      1.0  0.08275  0.12287  0.80890  1.0000
  H   H195      1.0  0.08173  0.09177  0.84823  1.0000
  H   H196      1.0  0.07442  0.07021  0.82438  1.0000
  H   H197      1.0  0.07779  0.11598  0.78065  1.0000
  H   H198      1.0  0.08498  0.13761  0.80452  1.0000
  H   H199      1.0  0.26811  0.03995  0.79258  1.0000
  H   H200      1.0  0.13940  0.08371  0.84794  1.0000
  H   H201      1.0  0.11862  0.09918  0.84215  1.0000
  H   H202      1.0  0.11057  0.18986  0.90556  1.0000
  C   C135      1.0  0.18322  0.11243  0.90439  1.0000
  C   C136      1.0  0.20248  0.11668  0.90060  1.0000
  C   C137      1.0  0.21710  0.10699  0.91110  1.0000
  C   C138      1.0  0.21254  0.09292  0.92547  1.0000
  C   C139      1.0  0.19326  0.08872  0.92925  1.0000
  C   C140      1.0  0.17866  0.09839  0.91876  1.0000
  H   H203      1.0  0.20615  0.12752  0.88950  1.0000
  H   H204      1.0  0.23188  0.11032  0.90805  1.0000
  H   H205      1.0  0.18964  0.07781  0.94030  1.0000
  N   N13       1.0  0.28989  0.05570  0.77676  1.0000
  H   H206      1.0  0.31244  0.06506  0.79128  1.0000
  H   H207      1.0  0.06706  0.20212  0.95120  1.0000
  H   H208      1.0  0.17338  0.31354  0.92457  1.0000
  C   C141      1.0  0.27783  0.05104  0.79453  1.0000
  S   S62       1.0  0.33661  0.03231  0.81513  1.0000
  H   H209      1.0  0.15672  0.13061  0.93309  1.0000
  C   C142      1.0  0.15458  0.32840  0.98772  1.0000
  H   H210      1.0  0.07595  0.23545  0.95021  1.0000
  H   H211      1.0  0.32322  0.19452  0.97400  1.0000
  C   C143      1.0  0.30178  0.03824  0.77085  1.0000
  C   C144      1.0  0.13714  0.32802  0.97937  1.0000
  C   C145      1.0  0.05454  0.02894  0.79088  1.0000
  N   N14       1.0  0.14534  0.10797  0.82851  1.0000
  C   C146      1.0  0.14715  0.12084  0.84358  1.0000
  C   C147      1.0  0.16463  0.09901  0.82194  1.0000
  C   C148      1.0  0.13664  0.11911  0.81237  1.0000
  C   C149      1.0  0.13293  0.09287  0.83621  1.0000
  H   H212      1.0  0.15659  0.13232  0.83846  1.0000
  H   H213      1.0  0.15336  0.11288  0.85614  1.0000
  H   H214      1.0  0.13283  0.12801  0.84867  1.0000
  H   H215      1.0  0.17437  0.10999  0.81600  1.0000
  H   H216      1.0  0.17163  0.09061  0.83385  1.0000
  H   H217      1.0  0.16372  0.08911  0.81065  1.0000
  H   H218      1.0  0.13421  0.10977  0.80105  1.0000
  H   H219      1.0  0.14588  0.13028  0.80585  1.0000
  H   H220      1.0  0.12238  0.12662  0.81700  1.0000
  H   H221      1.0  0.13030  0.08345  0.82503  1.0000
  H   H222      1.0  0.12817  0.31649  0.98340  1.0000
  C   C150      1.0  0.15437  0.17341  0.95252  1.0000
  H   H223      1.0  0.17877  0.17648  0.92086  1.0000
  H   H224      1.0  0.14346  0.18125  0.91731  1.0000
  H   H225      1.0  0.01348  0.05064  0.77364  1.0000
  H   H226      1.0  0.32753  0.07453  0.97975  1.0000
  H   H227      1.0  0.03792  0.05517  0.76667  1.0000
  H   H228      1.0  0.13971  0.17296  0.96019  1.0000
  C   C151      1.0  0.04000  0.13345  0.94082  1.0000
  C   C152      1.0  0.06792  0.12189  0.95735  1.0000
  H   H229      1.0  0.02042  0.01746  0.76384  1.0000
  H   H230      1.0  0.18820  0.15706  0.93652  1.0000
  C   C153      1.0  0.31153  0.16868  0.96761  1.0000
  H   H231      1.0  0.04142  0.12037  0.93277  1.0000
  H   H232      1.0  0.02054  0.11956  0.97253  1.0000
  H   H233      1.0  0.29417  0.08366  0.78485  1.0000
  H   H234      1.0  0.12765  0.16525  0.93028  1.0000
  H   H235      1.0  0.15576  0.18855  0.94711  1.0000
  N   N15       1.0  0.04735  0.12929  0.95973  1.0000
  C   C154      1.0  0.04206  0.33476  0.88293  1.0000
  S   S63       1.0  0.03566  0.32487  0.90635  1.0000
  C   C155      1.0  0.30260  0.07035  0.78012  1.0000
  C   C156      1.0  0.09878  0.23149  0.92780  1.0000
  H   H236      1.0  0.32313  0.12563  0.92713  1.0000
  H   H237      1.0  0.32508  0.17336  0.90024  1.0000
  C   C157      1.0  0.33551  0.07672  0.84922  1.0000
  H   H238      1.0  0.26831  0.07636  0.76546  1.0000
  H   H239      1.0  0.04118  0.11151  0.98535  1.0000
  C   C158      1.0  0.31272  0.32056  0.97785  1.0000
  H   H240      1.0  0.17589  0.27917  0.91907  1.0000
  N   N16       1.0  0.03486  0.02960  0.78479  1.0000
  C   C159      1.0  0.10328  0.19959  0.91558  1.0000
  H   H241      1.0  0.05096  0.14457  0.98401  1.0000
  H   H242      1.0  0.14441  0.15697  0.91116  1.0000
  C   C160      1.0  0.32039  0.04150  0.85077  1.0000
  H   H243      1.0  0.04810  0.14440  0.93207  1.0000
  H   H244      1.0  0.28694  0.04543  0.80621  1.0000
  C   C161      1.0  0.13660  0.29155  0.94917  1.0000
  H   H245      1.0  0.14331  0.28883  0.96285  1.0000
  H   H246      1.0  0.29672  0.17488  0.96946  1.0000
  S   S64       1.0  0.03361  0.28546  0.99233  1.0000
  H   H247      1.0  0.16513  0.16942  0.96308  1.0000
  C   C162      1.0  0.32099  0.30255  0.98480  1.0000
  H   H248      1.0  0.12584  0.30423  0.95058  1.0000
  C   C163      1.0  0.27750  0.06316  0.76155  1.0000
  C   C164      1.0  0.15527  0.14059  0.94465  1.0000
  C   C165      1.0  0.17670  0.16166  0.92686  1.0000
  H   H249      1.0  0.16658  0.13543  0.95436  1.0000
  N   N17       1.0  0.15723  0.16048  0.93685  1.0000
  C   C166      1.0  0.04532  0.14708  0.96979  1.0000
  H   H250      1.0  0.31445  0.02785  0.85150  1.0000
  H   H251      1.0  0.01735  0.32876  0.94437  1.0000
  C   C167      1.0  0.14254  0.16624  0.92333  1.0000
  H   H252      1.0  0.03791  0.10102  0.96391  1.0000
  H   H253      1.0  0.15197  0.32464  0.93669  1.0000
  H   H254      1.0  0.32080  0.32892  0.96695  1.0000
  C   C168      1.0  0.03507  0.01733  0.76877  1.0000
  C   C169      1.0  0.29405  0.32775  0.98474  1.0000
  H   H255      1.0  0.15698  0.26478  0.92884  1.0000
  H   H256      1.0  0.26788  0.05240  0.75842  1.0000
  H   H257      1.0  0.31098  0.04125  0.75743  1.0000
  H   H258      1.0  0.01420  0.29708  0.93224  1.0000
  C   C170      1.0  0.06121  0.33724  0.87633  1.0000
  S   S65       1.0  0.05708  0.32660  0.95540  1.0000
  H   H259      1.0  0.02795  0.05930  0.79029  1.0000
  H   H260      1.0  0.31172  0.07441  0.76690  1.0000
  H   H261      1.0  0.29270  0.02684  0.76819  1.0000
  H   H262      1.0  0.02621  0.00763  0.80582  1.0000
  C   C171      1.0  0.31072  0.29160  0.99889  1.0000
  H   H263      1.0  0.05348  0.15834  0.96160  1.0000
  C   C172      1.0  0.07861  0.20662  0.94107  1.0000
  H   H264      1.0  0.15183  0.30095  0.90265  1.0000
  N   N18       1.0  0.15113  0.29476  0.93295  1.0000
  C   C173      1.0  0.02163  0.02267  0.80084  1.0000
  H   H265      1.0  0.32259  0.11375  0.99519  1.0000
  Fe  Fe29      1.0  0.08947  0.31949  0.95262  1.0000
  H   H266      1.0  0.02997  0.15305  0.97187  1.0000
  H   H267      1.0  0.13254  0.28721  0.91287  1.0000
  Fe  Fe30      1.0  0.08666  0.27965  0.93948  1.0000
  S   S66       1.0  0.05442  0.28367  0.94105  1.0000
  S   S67       1.0  0.10653  0.25473  0.92770  1.0000
  Fe  Fe31      1.0  0.05747  0.31332  0.92744  1.0000
  C   C174      1.0  0.00768  0.32435  0.95705  1.0000
  Fe  Fe32      1.0  0.05558  0.29668  0.96892  1.0000
  H   H268      1.0  0.00665  0.02306  0.79667  1.0000
  S   S68       1.0  0.08971  0.30839  0.92363  1.0000
  S   S69       1.0  0.08809  0.29041  0.96838  1.0000
  H   H269      1.0  0.16849  0.30900  0.94987  1.0000
  H   H270      1.0  0.12021  0.22292  0.90532  1.0000
  C   C175      1.0  0.16176  0.31114  0.93614  1.0000
  H   H271      1.0  0.26869  0.06390  0.79947  1.0000
  H   H272      1.0  0.13136  0.31236  0.91607  1.0000
  H   H273      1.0  0.30628  0.12784  0.88993  1.0000
  H   H274      1.0  0.12850  0.27911  0.94739  1.0000
  C   C176      1.0  0.10861  0.21839  0.91536  1.0000
  H   H275      1.0  0.02115  0.03164  0.81315  1.0000
  H   H276      1.0  0.17227  0.27380  0.94434  1.0000
  H   H277      1.0  0.31146  0.03232  0.78192  1.0000
  C   C177      1.0  0.02817  0.04953  0.77865  1.0000
  C   C178      1.0  0.16471  0.27734  0.93121  1.0000
  C   C179      1.0  0.14133  0.29898  0.91533  1.0000
  H   H278      1.0  0.07392  0.11809  0.97127  1.0000
  H   H279      1.0  0.15896  0.31700  0.99804  1.0000
  H   H280      1.0  0.29526  0.07091  0.99742  1.0000
  H   H281      1.0  0.27209  0.04025  0.99276  1.0000
  H   H282      1.0  0.06489  0.03405  0.77906  1.0000
  H   H283      1.0  0.06008  0.01417  0.79579  1.0000
  H   H284      1.0  0.30471  0.10284  0.98460  1.0000
  H   H285      1.0  0.30310  0.15349  0.88603  1.0000
  N   N19       1.0  0.32777  0.14257  0.90088  1.0000
  H   H286      1.0  0.29744  0.14229  0.90932  1.0000
  H   H287      1.0  0.04465  0.02236  0.75626  1.0000
  C   C180      1.0  0.30777  0.14153  0.89631  1.0000
  C   C181      1.0  0.33299  0.07597  0.99373  1.0000
  H   H288      1.0  0.01698  0.31699  0.96781  1.0000
  C   C182      1.0  0.33339  0.12612  0.91413  1.0000
  C   C183      1.0  0.33475  0.14187  0.96025  1.0000
  C   C184      1.0  0.32893  0.16058  0.90992  1.0000
  H   H289      1.0  0.31887  0.16156  0.92310  1.0000
  H   H290      1.0  0.07255  0.33299  0.88557  1.0000
  H   H291      1.0  0.02154  0.32557  0.00063  1.0000
  H   H292      1.0  0.01286  0.28613  0.95612  1.0000
  H   H293      1.0  0.32732  0.00921  0.99995  1.0000
  H   H294      1.0  0.33532  0.29716  0.97925  1.0000
  C   C185      1.0  0.31080  0.10417  0.99830  1.0000
  C   C186      1.0  0.00414  0.29394  0.94507  1.0000
  H   H295      1.0  0.07180  0.66715  0.17810  1.0000
  H   H296      1.0  0.30230  0.39851  0.03521  1.0000
  Fe  Fe33      1.0  0.02387  0.66318  0.23121  1.0000
  N   N20       1.0  0.29794  0.36982  0.02928  1.0000
  Fe  Fe34      1.0  0.24531  0.63780  0.01264  1.0000
  H   H297      1.0  0.01931  0.55923  0.24415  1.0000
  H   H298      1.0  0.32238  0.59254  0.09132  1.0000
  H   H299      1.0  0.27934  0.39601  0.02684  1.0000
  C   C187      1.0  0.29437  0.51675  0.18268  1.0000
  H   H300      1.0  0.28226  0.52262  0.17410  1.0000
  H   H301      1.0  0.27117  0.36407  0.01985  1.0000
  S   S70       1.0  0.23815  0.38822  0.04974  1.0000
  Fe  Fe35      1.0  0.23362  0.38531  0.01865  1.0000
  H   H302      1.0  0.29318  0.52482  0.19567  1.0000
  H   H303      1.0  0.04258  0.67065  0.08044  1.0000
  H   H304      1.0  0.05334  0.62381  0.20467  1.0000
  H   H305      1.0  0.24643  0.39496  0.08730  1.0000
  H   H306      1.0  0.07852  0.61534  0.16915  1.0000
  C   C188      1.0  0.28174  0.35786  0.02988  1.0000
  H   H307      1.0  0.20193  0.50057  0.24434  1.0000
  C   C189      1.0  0.08539  0.61923  0.18163  1.0000
  H   H308      1.0  0.32902  0.51704  0.19630  1.0000
  H   H309      1.0  0.28379  0.38777  0.05066  1.0000
  H   H310      1.0  0.08429  0.56368  0.22973  1.0000
  Fe  Fe36      1.0  0.26980  0.46568  0.11375  1.0000
  S   S71       1.0  0.24487  0.48583  0.12477  1.0000
  S   S72       1.0  0.27045  0.45879  0.08282  1.0000
  Fe  Fe37      1.0  0.29011  0.46482  0.15052  1.0000
  S   S73       1.0  0.26631  0.48468  0.16400  1.0000
  S   S74       1.0  0.31288  0.45240  0.17037  1.0000
  Fe  Fe38      1.0  0.24580  0.46740  0.15219  1.0000
  S   S75       1.0  0.21954  0.45490  0.16814  1.0000
  Fe  Fe39      1.0  0.26754  0.50142  0.13551  1.0000
  S   S76       1.0  0.26706  0.53371  0.13510  1.0000
  S   S77       1.0  0.26940  0.44611  0.14044  1.0000
  S   S78       1.0  0.29265  0.48268  0.12270  1.0000
  C   C190      1.0  0.24661  0.40822  0.05876  1.0000
  S   S79       1.0  0.26526  0.58105  0.05476  1.0000
  H   H311      1.0  0.18110  0.62768  0.02779  1.0000
  C   C191      1.0  0.31383  0.50776  0.15420  1.0000
  H   H312      1.0  0.24878  0.42508  0.03206  1.0000
  H   H313      1.0  0.22552  0.42100  0.11629  1.0000
  H   H314      1.0  0.19511  0.42176  0.10144  1.0000
  H   H315      1.0  0.25949  0.42208  0.10064  1.0000
  H   H316      1.0  0.10139  0.64299  0.20175  1.0000
  H   H317      1.0  0.20320  0.46357  0.08833  1.0000
  H   H318      1.0  0.32467  0.36926  0.04192  1.0000
  C   C192      1.0  0.24960  0.40753  0.07816  1.0000
  C   C193      1.0  0.20421  0.46653  0.18606  1.0000
  C   C194      1.0  0.20532  0.48572  0.18919  1.0000
  C   C195      1.0  0.19230  0.49475  0.20292  1.0000
  C   C196      1.0  0.17819  0.48469  0.21382  1.0000
  C   C197      1.0  0.17733  0.46538  0.21099  1.0000
  C   C198      1.0  0.19021  0.45640  0.19707  1.0000
  H   H319      1.0  0.21593  0.49372  0.18075  1.0000
  H   H320      1.0  0.19302  0.50972  0.20493  1.0000
  H   H321      1.0  0.16651  0.45749  0.21923  1.0000
  H   H322      1.0  0.18922  0.44156  0.19474  1.0000
  C   C199      1.0  0.26559  0.54676  0.11277  1.0000
  C   C200      1.0  0.26021  0.56659  0.11190  1.0000
  C   C201      1.0  0.25940  0.57727  0.09422  1.0000
  C   C202      1.0  0.26446  0.56823  0.07732  1.0000
  C   C203      1.0  0.26996  0.54844  0.07824  1.0000
  C   C204      1.0  0.27031  0.53771  0.09585  1.0000
  H   H323      1.0  0.25640  0.57366  0.12493  1.0000
  H   H324      1.0  0.07139  0.65040  0.16050  1.0000
  H   H325      1.0  0.27388  0.54133  0.06524  1.0000
  H   H326      1.0  0.27448  0.52245  0.09632  1.0000
  H   H327      1.0  0.31225  0.35778  0.00403  1.0000
  S   S80       1.0  0.01587  0.63300  0.23037  1.0000
  C   C205      1.0  0.25101  0.42439  0.04701  1.0000
  C   C206      1.0  0.25835  0.43972  0.05462  1.0000
  C   C207      1.0  0.26125  0.43909  0.07403  1.0000
  C   C208      1.0  0.25693  0.42288  0.08577  1.0000
  C   C209      1.0  0.29392  0.61593  0.07677  1.0000
  H   H328      1.0  0.26173  0.45219  0.04543  1.0000
  S   S81       1.0  0.23571  0.35511  0.00983  1.0000
  H   H329      1.0  0.20712  0.47015  0.12941  1.0000
  C   C210      1.0  0.21362  0.45361  0.09610  1.0000
  H   H330      1.0  0.30217  0.59794  0.04441  1.0000
  H   H331      1.0  0.32806  0.50791  0.14570  1.0000
  H   H332      1.0  0.18917  0.45541  0.14004  1.0000
  S   S82       1.0  0.06260  0.59978  0.23654  1.0000
  H   H333      1.0  0.32997  0.53999  0.15757  1.0000
  C   C211      1.0  0.18915  0.43374  0.11032  1.0000
  C   C212      1.0  0.19596  0.46109  0.12610  1.0000
  H   H334      1.0  0.21288  0.42737  0.13862  1.0000
  C   C213      1.0  0.32882  0.50948  0.18314  1.0000
  N   N21       1.0  0.20446  0.44544  0.11426  1.0000
  H   H335      1.0  0.03033  0.64961  0.07938  1.0000
  C   C214      1.0  0.21913  0.43325  0.12454  1.0000
  H   H336      1.0  0.22593  0.46173  0.09843  1.0000
  C   C215      1.0  0.04717  0.44516  0.24134  1.0000
  H   H337      1.0  0.18197  0.42735  0.12373  1.0000
  H   H338      1.0  0.31556  0.54679  0.17886  1.0000
  H   H339      1.0  0.30577  0.35852  0.05681  1.0000
  H   H340      1.0  0.28672  0.34316  0.02568  1.0000
  S   S83       1.0  0.20706  0.39400  0.00329  1.0000
  H   H341      1.0  0.18476  0.47059  0.11890  1.0000
  C   C216      1.0  0.02809  0.66521  0.08135  1.0000
  H   H342      1.0  0.21941  0.44221  0.08649  1.0000
  H   H343      1.0  0.23109  0.44155  0.12739  1.0000
  H   H344      1.0  0.04207  0.45606  0.23087  1.0000
  H   H345      1.0  0.17784  0.44247  0.10252  1.0000
  H   H346      1.0  0.25494  0.59247  0.09370  1.0000
  H   H347      1.0  0.31110  0.49255  0.15775  1.0000
  N   N22       1.0  0.31326  0.51813  0.17156  1.0000
  H   H348      1.0  0.29376  0.62884  0.08491  1.0000
  H   H349      1.0  0.32656  0.58931  0.04855  1.0000
  H   H350      1.0  0.30427  0.54523  0.15738  1.0000
  H   H351      1.0  0.04853  0.64916  0.20040  1.0000
  Fe  Fe40      1.0  0.04151  0.62417  0.24709  1.0000
  H   H352      1.0  0.33421  0.62336  0.04725  1.0000
  H   H353      1.0  0.02718  0.65743  0.04468  1.0000
  C   C217      1.0  0.03744  0.42860  0.24545  1.0000
  Fe  Fe41      1.0  0.25297  0.61174  0.04834  1.0000
  H   H354      1.0  0.09395  0.65470  0.16867  1.0000
  S   S84       1.0  0.28591  0.66721  0.05885  1.0000
  N   N23       1.0  0.07630  0.63760  0.18851  1.0000
  C   C218      1.0  0.29061  0.38887  0.03577  1.0000
  H   H355      1.0  0.10104  0.61988  0.17729  1.0000
  S   S85       1.0  0.18832  0.64769  0.06094  1.0000
  S   S86       1.0  0.16210  0.49703  0.23067  1.0000
  C   C219      1.0  0.08565  0.64203  0.20523  1.0000
  H   H356      1.0  0.04780  0.63371  0.18154  1.0000
  C   C220      1.0  0.08121  0.56429  0.24495  1.0000
  S   S87       1.0  0.27194  0.62886  0.02752  1.0000
  Fe  Fe42      1.0  0.22004  0.64447  0.04942  1.0000
  S   S88       1.0  0.24457  0.63553  0.06761  1.0000
  S   S89       1.0  0.23717  0.66412  0.02916  1.0000
  Fe  Fe43      1.0  0.26250  0.65330  0.04596  1.0000
  H   H357      1.0  0.32700  0.49417  0.18758  1.0000
  H   H358      1.0  0.07101  0.46043  0.24717  1.0000
  S   S90       1.0  0.22707  0.61890  0.03196  1.0000
  C   C221      1.0  0.17105  0.66804  0.06092  1.0000
  C   C222      1.0  0.31222  0.59414  0.05569  1.0000
  C   C223      1.0  0.07850  0.65310  0.17328  1.0000
  S   S91       1.0  0.01701  0.42600  0.23321  1.0000
  H   H359      1.0  0.31950  0.38067  0.00850  1.0000
  H   H360      1.0  0.28868  0.60409  0.08666  1.0000
  H   H361      1.0  0.02771  0.66244  0.14604  1.0000
  C   C224      1.0  0.31977  0.62693  0.05486  1.0000
  H   H362      1.0  0.08400  0.60733  0.19294  1.0000
  N   N24       1.0  0.31323  0.61049  0.06727  1.0000
  H   H363      1.0  0.30953  0.63170  0.04395  1.0000
  H   H364      1.0  0.27375  0.35674  0.04426  1.0000
  C   C225      1.0  0.31230  0.36053  0.04189  1.0000
  C   C226      1.0  0.06360  0.44768  0.25056  1.0000
  H   H365      1.0  0.08389  0.63079  0.21713  1.0000
  H   H366      1.0  0.32064  0.63956  0.06314  1.0000
  H   H367      1.0  0.28319  0.61939  0.06620  1.0000
  C   C227      1.0  0.05559  0.63601  0.19398  1.0000
  H   H368      1.0  0.16103  0.62526  0.01450  1.0000
  H   H369      1.0  0.29208  0.50159  0.18731  1.0000
  H   H370      1.0  0.14791  0.65160  0.07301  1.0000
  H   H371      1.0  0.31816  0.34617  0.03722  1.0000
  H   H372      1.0  0.02146  0.66712  0.09612  1.0000
  C   C228      1.0  0.31592  0.53845  0.16613  1.0000
  C   C229      1.0  0.15178  0.66564  0.06765  1.0000
  H   H373      1.0  0.30266  0.51424  0.14485  1.0000
  S   S92       1.0  0.05046  0.65385  0.24606  1.0000
  C   C230      1.0  0.32692  0.60497  0.08181  1.0000
  H   H374      1.0  0.30667  0.58169  0.06451  1.0000
  C   C231      1.0  0.17009  0.63578  0.01911  1.0000
  H   H375      1.0  0.02088  0.66182  0.18119  1.0000
  H   H376      1.0  0.19460  0.46666  0.24863  1.0000
  H   H377      1.0  0.07926  0.65592  0.21066  1.0000
  C   C232      1.0  0.30703  0.37195  0.00957  1.0000
  H   H378      1.0  0.32780  0.61699  0.09088  1.0000
  H   H379      1.0  0.16079  0.64528  0.02885  1.0000
  S   S93       1.0  0.00387  0.36953  0.24234  1.0000
  H   H380      1.0  0.09525  0.53595  0.25130  1.0000
  H   H381      1.0  0.20128  0.65380  0.01918  1.0000
  C   C233      1.0  0.19063  0.66100  0.00969  1.0000
  N   N25       1.0  0.17925  0.64694  0.00271  1.0000
  C   C234      1.0  0.33691  0.45736  0.17241  1.0000
  H   H382      1.0  0.18128  0.67162  0.01811  1.0000
  H   H383      1.0  0.17502  0.47449  0.26509  1.0000
  C   C235      1.0  0.11743  0.40177  0.33884  1.0000
  H   H384      1.0  0.01585  0.53498  0.28156  1.0000
  C   C236      1.0  0.15104  0.36105  0.44523  1.0000
  C   C237      1.0  0.16299  0.37489  0.44930  1.0000
  C   C238      1.0  0.16911  0.37487  0.46751  1.0000
  C   C239      1.0  0.16309  0.36087  0.48156  1.0000
  H   H385      1.0  0.32948  0.41579  0.45546  1.0000
  H   H386      1.0  0.14641  0.36123  0.43109  1.0000
  H   H387      1.0  0.16741  0.38561  0.43838  1.0000
  H   H388      1.0  0.22594  0.46189  0.27545  1.0000
  H   H389      1.0  0.13274  0.39768  0.34170  1.0000
  S   S94       1.0  0.00538  0.66827  0.25874  1.0000
  H   H390      1.0  0.11311  0.39084  0.33000  1.0000
  C   C240      1.0  0.22284  0.47608  0.26766  1.0000
  C   C241      1.0  0.06077  0.41701  0.26804  1.0000
  H   H391      1.0  0.31854  0.40493  0.47706  1.0000
  C   C242      1.0  0.33099  0.36858  0.47053  1.0000
  S   S95       1.0  0.02518  0.62664  0.27574  1.0000
  H   H392      1.0  0.20511  0.49564  0.29683  1.0000
  S   S96       1.0  0.18444  0.39172  0.47347  1.0000
  H   H393      1.0  0.10850  0.40092  0.35274  1.0000
  H   H394      1.0  0.29793  0.39459  0.40202  1.0000
  H   H395      1.0  0.27588  0.44416  0.43170  1.0000
  H   H396      1.0  0.31816  0.36507  0.46386  1.0000
  Fe  Fe44      1.0  0.19715  0.41649  0.45499  1.0000
  H   H397      1.0  0.09219  0.44055  0.31827  1.0000
  H   H398      1.0  0.23487  0.51397  0.48758  1.0000
  H   H399      1.0  0.11251  0.67039  0.48864  1.0000
  S   S97       1.0  0.14148  0.50105  0.28067  1.0000
  Fe  Fe45      1.0  0.10821  0.46204  0.27301  1.0000
  S   S98       1.0  0.10772  0.47566  0.30068  1.0000
  H   H400      1.0  0.03217  0.56051  0.29360  1.0000
  Fe  Fe46      1.0  0.10909  0.50331  0.28244  1.0000
  S   S99       1.0  0.09034  0.52942  0.29267  1.0000
  Fe  Fe47      1.0  0.14004  0.47221  0.29644  1.0000
  S   S100      1.0  0.16158  0.45688  0.31623  1.0000
  S   S101      1.0  0.14064  0.45702  0.26959  1.0000
  Fe  Fe48      1.0  0.21320  0.45550  0.45855  1.0000
  S   S102      1.0  0.22601  0.42471  0.46187  1.0000
  S   S103      1.0  0.22051  0.48145  0.47367  1.0000
  Fe  Fe49      1.0  0.19385  0.44824  0.42270  1.0000
  S   S104      1.0  0.20508  0.41701  0.42341  1.0000
  S   S105      1.0  0.17387  0.46674  0.40319  1.0000
  Fe  Fe50      1.0  0.23330  0.42677  0.43019  1.0000
  H   H401      1.0  0.11966  0.44994  0.33438  1.0000
  S   S106      1.0  0.18385  0.44714  0.45409  1.0000
  S   S107      1.0  0.22263  0.45794  0.42702  1.0000
  C   C243      1.0  0.16458  0.45991  0.34045  1.0000
  C   C244      1.0  0.17847  0.44759  0.34966  1.0000
  C   C245      1.0  0.18139  0.44935  0.36885  1.0000
  C   C246      1.0  0.17048  0.46354  0.37908  1.0000
  C   C247      1.0  0.15653  0.47582  0.36988  1.0000
  C   C248      1.0  0.15353  0.47401  0.35070  1.0000
  H   H402      1.0  0.18708  0.43659  0.34192  1.0000
  H   H403      1.0  0.19217  0.43979  0.37570  1.0000
  H   H404      1.0  0.14797  0.48684  0.37763  1.0000
  H   H405      1.0  0.14277  0.48359  0.34387  1.0000
  C   C249      1.0  0.06709  0.58129  0.27204  1.0000
  C   C250      1.0  0.07324  0.56552  0.28422  1.0000
  C   C251      1.0  0.08339  0.54907  0.27684  1.0000
  H   H406      1.0  0.05951  0.59396  0.27791  1.0000
  H   H407      1.0  0.07027  0.56611  0.29945  1.0000
  H   H408      1.0  0.30934  0.45287  0.43223  1.0000
  H   H409      1.0  0.11185  0.43549  0.35522  1.0000
  C   C252      1.0  0.12718  0.42162  0.31091  1.0000
  Fe  Fe51      1.0  0.14018  0.48605  0.25397  1.0000
  H   H410      1.0  0.02538  0.58511  0.28653  1.0000
  C   C253      1.0  0.28460  0.41879  0.41683  1.0000
  C   C254      1.0  0.28794  0.43520  0.42538  1.0000
  C   C255      1.0  0.30692  0.44011  0.42562  1.0000
  C   C256      1.0  0.32273  0.42859  0.41751  1.0000
  H   H411      1.0  0.08483  0.42567  0.33895  1.0000
  H   H412      1.0  0.00922  0.57201  0.30250  1.0000
  S   S108      1.0  0.09151  0.43569  0.27548  1.0000
  H   H413      1.0  0.23211  0.48619  0.27270  1.0000
  C   C257      1.0  0.31941  0.41214  0.40903  1.0000
  H   H414      1.0  0.19919  0.47125  0.29974  1.0000
  H   H415      1.0  0.08978  0.41593  0.31601  1.0000
  C   C258      1.0  0.19675  0.48513  0.29117  1.0000
  H   H416      1.0  0.22733  0.47442  0.25229  1.0000
  N   N26       1.0  0.11500  0.42115  0.32918  1.0000
  H   H417      1.0  0.19195  0.45507  0.27231  1.0000
  Fe  Fe52      1.0  0.03174  0.65746  0.27344  1.0000
  C   C259      1.0  0.14524  0.34688  0.45920  1.0000
  C   C260      1.0  0.01979  0.57088  0.28973  1.0000
  C   C261      1.0  0.22344  0.50964  0.49795  1.0000
  C   C262      1.0  0.32380  0.40235  0.46206  1.0000
  S   S109      1.0  0.26103  0.41209  0.41585  1.0000
  C   C263      1.0  0.15117  0.34702  0.47748  1.0000
  C   C264      1.0  0.19052  0.46912  0.26390  1.0000
  H   H418      1.0  0.32196  0.42919  0.37049  1.0000
  H   H419      1.0  0.12550  0.43598  0.30326  1.0000
  C   C265      1.0  0.08742  0.54853  0.25714  1.0000
  H   H420      1.0  0.13621  0.43184  0.34451  1.0000
  C   C266      1.0  0.21378  0.49370  0.49491  1.0000
  H   H421      1.0  0.06606  0.40597  0.27827  1.0000
  C   C267      1.0  0.09455  0.42600  0.32554  1.0000
  C   C268      1.0  0.07097  0.58068  0.25235  1.0000
  H   H422      1.0  0.31687  0.42674  0.34650  1.0000
  H   H423      1.0  0.12311  0.41132  0.30123  1.0000
  H   H424      1.0  0.14276  0.41837  0.31303  1.0000
  C   C269      1.0  0.02535  0.56407  0.25668  1.0000
  N   N27       1.0  0.18189  0.51231  0.43931  1.0000
  C   C270      1.0  0.16821  0.52226  0.42632  1.0000
  C   C271      1.0  0.18683  0.52569  0.45270  1.0000
  C   C272      1.0  0.19962  0.50493  0.42805  1.0000
  C   C273      1.0  0.17291  0.49620  0.45014  1.0000
  H   H425      1.0  0.15457  0.52789  0.43430  1.0000
  H   H426      1.0  0.16436  0.51234  0.41608  1.0000
  H   H427      1.0  0.17447  0.53451  0.41787  1.0000
  H   H428      1.0  0.19717  0.51843  0.46263  1.0000
  H   H429      1.0  0.19372  0.53802  0.44508  1.0000
  H   H430      1.0  0.17383  0.53142  0.46159  1.0000
  H   H431      1.0  0.21038  0.49755  0.43741  1.0000
  H   H432      1.0  0.20666  0.51663  0.41946  1.0000
  H   H433      1.0  0.19649  0.49443  0.41809  1.0000
  H   H434      1.0  0.18285  0.48833  0.46006  1.0000
  H   H435      1.0  0.16905  0.48578  0.44045  1.0000
  H   H436      1.0  0.15949  0.50118  0.45884  1.0000
  H   H437      1.0  0.31110  0.40008  0.45447  1.0000
  C   C274      1.0  0.07056  0.43354  0.26388  1.0000
  H   H438      1.0  0.15694  0.66785  0.48513  1.0000
  H   H439      1.0  0.33143  0.40312  0.40282  1.0000
  C   C275      1.0  0.30043  0.40731  0.40864  1.0000
  C   C276      1.0  0.12088  0.43519  0.34139  1.0000
  H   H440      1.0  0.18116  0.49009  0.29395  1.0000
  C   C277      1.0  0.32715  0.43224  0.35526  1.0000
  N   N28       1.0  0.20219  0.48304  0.27068  1.0000
  H   H441      1.0  0.20734  0.51263  0.26439  1.0000
  S   S110      1.0  0.10754  0.49002  0.25488  1.0000
  C   C278      1.0  0.04425  0.41457  0.25895  1.0000
  H   H442      1.0  0.32647  0.37050  0.48582  1.0000
  N   N29       1.0  0.01088  0.56500  0.27334  1.0000
  H   H443      1.0  0.32624  0.44809  0.35255  1.0000
  H   H444      1.0  0.03695  0.40174  0.26219  1.0000
  C   C279      1.0  0.19858  0.50176  0.25993  1.0000
  H   H445      1.0  0.33225  0.37943  0.43324  1.0000
  H   H446      1.0  0.03828  0.55408  0.25977  1.0000
  H   H447      1.0  0.16754  0.36087  0.49575  1.0000
  H   H448      1.0  0.18312  0.50748  0.26206  1.0000
  H   H449      1.0  0.03046  0.57837  0.25237  1.0000
  C   C280      1.0  0.14863  0.67094  0.49892  1.0000
  S   S111      1.0  0.04555  0.67145  0.29605  1.0000
  C   C281      1.0  0.00383  0.54598  0.27813  1.0000
  H   H450      1.0  0.33253  0.58872  0.59436  1.0000
  N   N30       1.0  0.05488  0.38124  0.69885  1.0000
  S   S112      1.0  0.06435  0.41776  0.74396  1.0000
  C   C282      1.0  0.04870  0.40179  0.70067  1.0000
  H   H451      1.0  0.02808  0.37169  0.71183  1.0000
  H   H452      1.0  0.04196  0.35512  0.69690  1.0000
  C   C283      1.0  0.06758  0.37885  0.68109  1.0000
  H   H453      1.0  0.04066  0.40814  0.68853  1.0000
  H   H454      1.0  0.03912  0.40409  0.71395  1.0000
  H   H455      1.0  0.02913  0.37618  0.68644  1.0000
  H   H456      1.0  0.05998  0.38440  0.66839  1.0000
  C   C284      1.0  0.03776  0.37066  0.69842  1.0000
  C   C285      1.0  0.08666  0.44792  0.74205  1.0000
  C   C286      1.0  0.15606  0.65583  0.56383  1.0000
  H   H457      1.0  0.03751  0.66059  0.70255  1.0000
  C   C287      1.0  0.24897  0.57515  0.62988  1.0000
  H   H458      1.0  0.07253  0.36348  0.67938  1.0000
  Fe  Fe53      1.0  0.13392  0.53650  0.73290  1.0000
  S   S113      1.0  0.13474  0.54544  0.70106  1.0000
  C   C288      1.0  0.02847  0.64837  0.70372  1.0000
  Fe  Fe54      1.0  0.20536  0.56244  0.60537  1.0000
  S   S114      1.0  0.18374  0.56583  0.58376  1.0000
  S   S115      1.0  0.20405  0.54680  0.63505  1.0000
  Fe  Fe55      1.0  0.23689  0.57721  0.57631  1.0000
  S   S116      1.0  0.21730  0.58131  0.55220  1.0000
  S   S117      1.0  0.26969  0.57826  0.57363  1.0000
  Fe  Fe56      1.0  0.19533  0.59419  0.57440  1.0000
  Fe  Fe57      1.0  0.20693  0.55264  0.56298  1.0000
  S   S118      1.0  0.19725  0.52691  0.54926  1.0000
  S   S119      1.0  0.21549  0.59165  0.59772  1.0000
  S   S120      1.0  0.22799  0.54782  0.58527  1.0000
  C   C289      1.0  0.28169  0.56292  0.63508  1.0000
  C   C290      1.0  0.19260  0.51059  0.59872  1.0000
  H   H459      1.0  0.17201  0.51890  0.63161  1.0000
  C   C291      1.0  0.20400  0.51456  0.52806  1.0000
  C   C292      1.0  0.19904  0.48836  0.50853  1.0000
  H   H460      1.0  0.17266  0.48001  0.59899  1.0000
  H   H461      1.0  0.23979  0.54769  0.65670  1.0000
  H   H462      1.0  0.26409  0.53858  0.66080  1.0000
  H   H463      1.0  0.25239  0.57941  0.61458  1.0000
  C   C293      1.0  0.15461  0.54662  0.68338  1.0000
  C   C294      1.0  0.15163  0.55644  0.66563  1.0000
  C   C295      1.0  0.16672  0.55719  0.65090  1.0000
  C   C296      1.0  0.18493  0.54774  0.65362  1.0000
  C   C297      1.0  0.18796  0.53794  0.67136  1.0000
  C   C298      1.0  0.17295  0.53750  0.68622  1.0000
  H   H464      1.0  0.13752  0.56359  0.66330  1.0000
  H   H465      1.0  0.16416  0.56492  0.63742  1.0000
  H   H466      1.0  0.20195  0.53053  0.67364  1.0000
  H   H467      1.0  0.17545  0.52982  0.69974  1.0000
  C   C299      1.0  0.21864  0.51997  0.51437  1.0000
  H   H468      1.0  0.20070  0.50663  0.61145  1.0000
  H   H469      1.0  0.15191  0.48923  0.61373  1.0000
  C   C300      1.0  0.28477  0.59033  0.58649  1.0000
  C   C301      1.0  0.30475  0.58483  0.58497  1.0000
  C   C302      1.0  0.31723  0.59325  0.59560  1.0000
  H   H470      1.0  0.31061  0.57380  0.57564  1.0000
  S   S121      1.0  0.10414  0.53346  0.74790  1.0000
  S   S122      1.0  0.32487  0.61819  0.62186  1.0000
  H   H471      1.0  0.16777  0.53800  0.61388  1.0000
  H   H472      1.0  0.28716  0.56742  0.62029  1.0000
  N   N31       1.0  0.00771  0.65496  0.70669  1.0000
  H   H473      1.0  0.23350  0.57242  0.63177  1.0000
  C   C303      1.0  0.26047  0.54271  0.62317  1.0000
  C   C304      1.0  0.19422  0.49871  0.52494  1.0000
  H   H474      1.0  0.17508  0.48526  0.62302  1.0000
  C   C305      1.0  0.25497  0.55149  0.65567  1.0000
  H   H475      1.0  0.03182  0.64062  0.69054  1.0000
  C   C306      1.0  0.18886  0.66770  0.54253  1.0000
  C   C307      1.0  0.16156  0.51595  0.58609  1.0000
  H   H476      1.0  0.19839  0.50090  0.58738  1.0000
  H   H477      1.0  0.19597  0.52519  0.59328  1.0000
  H   H478      1.0  0.16672  0.50660  0.57429  1.0000
  H   H479      1.0  0.16428  0.53079  0.58061  1.0000
  H   H480      1.0  0.14568  0.51559  0.58892  1.0000
  H   H481      1.0  0.05273  0.59984  0.73687  1.0000
  H   H482      1.0  0.18285  0.49434  0.53534  1.0000
  H   H483      1.0  0.26985  0.52958  0.62722  1.0000
  C   C308      1.0  0.16472  0.52303  0.61839  1.0000
  H   H484      1.0  0.28302  0.57495  0.64399  1.0000
  N   N32       1.0  0.26155  0.55806  0.63598  1.0000
  N   N33       1.0  0.17161  0.50995  0.60332  1.0000
  C   C309      1.0  0.16763  0.49022  0.61007  1.0000
  H   H485      1.0  0.14890  0.52315  0.62219  1.0000
  H   H486      1.0  0.25054  0.58762  0.63810  1.0000
  H   H487      1.0  0.25541  0.56284  0.66563  1.0000
  H   H488      1.0  0.24545  0.53872  0.62351  1.0000
  H   H489      1.0  0.29156  0.55048  0.63998  1.0000
  H   H490      1.0  0.19142  0.47619  0.50649  1.0000
  H   H491      1.0  0.22634  0.53207  0.51645  1.0000
  S   S123      1.0  0.14750  0.50990  0.74839  1.0000
  H   H492      1.0  0.26513  0.54735  0.60812  1.0000
  H   H493      1.0  0.28407  0.62412  0.61853  1.0000
  H   H494      1.0  0.10521  0.47088  0.74070  1.0000
  H   H495      1.0  0.31872  0.65336  0.59528  1.0000
  H   H496      1.0  0.07842  0.38137  0.71626  1.0000
  H   H497      1.0  0.03313  0.63838  0.71584  1.0000
  C   C310      1.0  0.27745  0.60473  0.59851  1.0000
  H   H498      1.0  0.08065  0.38664  0.68096  1.0000
  C   C311      1.0  0.30985  0.60737  0.60787  1.0000
  C   C312      1.0  0.06554  0.37360  0.71526  1.0000
  H   H499      1.0  0.06126  0.41014  0.70139  1.0000
  S   S124      1.0  0.17144  0.61869  0.57119  1.0000
  H   H500      1.0  0.14329  0.65128  0.57210  1.0000
  C   C313      1.0  0.18896  0.64871  0.55064  1.0000
  C   C314      1.0  0.17251  0.64264  0.56130  1.0000
  S   S125      1.0  0.01867  0.38957  0.74943  1.0000
  H   H501      1.0  0.20169  0.63874  0.54850  1.0000
  H   H502      1.0  0.32522  0.65591  0.57006  1.0000
  H   H503      1.0  0.26221  0.60948  0.59951  1.0000
  C   C315      1.0  0.28992  0.61309  0.60920  1.0000
  H   H504      1.0  0.07031  0.35806  0.71454  1.0000
  H   H505      1.0  0.05629  0.37511  0.72882  1.0000
  H   H506      1.0  0.08173  0.58133  0.74887  1.0000
  C   C316      1.0  0.09485  0.46286  0.74949  1.0000
  C   C317      1.0  0.33110  0.65424  0.58418  1.0000
  H   H507      1.0  0.09081  0.44453  0.72750  1.0000
  H   H508      1.0  0.14208  0.65773  0.50485  1.0000
  H   H509      1.0  0.00896  0.65588  0.73677  1.0000
  H   H510      1.0  0.00457  0.66100  0.67682  1.0000
  C   C318      1.0  0.00404  0.66510  0.72433  1.0000
  H   H511      1.0  0.16919  0.36998  0.96611  1.0000
  Fe  Fe58      1.0  0.25488  0.36554  0.98487  1.0000
  S   S126      1.0  0.28460  0.35080  0.97593  1.0000
  C   C319      1.0  0.13129  0.34271  0.96605  1.0000
  H   H512      1.0  0.09066  0.36916  0.79386  1.0000
  S   S127      1.0  0.23042  0.37311  0.96621  1.0000
  S   S128      1.0  0.02899  0.40182  0.79116  1.0000
  Fe  Fe59      1.0  0.03917  0.37083  0.79791  1.0000
  H   H513      1.0  0.26385  0.49286  0.99925  1.0000
  S   S129      1.0  0.05620  0.36886  0.76947  1.0000
  N   N34       1.0  0.09954  0.39590  0.80076  1.0000
  C   C320      1.0  0.31824  0.57673  0.90285  1.0000
  H   H514      1.0  0.06808  0.51712  0.80269  1.0000
  C   C321      1.0  0.24385  0.61495  0.95090  1.0000
  H   H515      1.0  0.31202  0.56341  0.90009  1.0000
  S   S130      1.0  0.01896  0.61920  0.75519  1.0000
  H   H516      1.0  0.28021  0.58213  0.89920  1.0000
  C   C322      1.0  0.02750  0.34042  0.87069  1.0000
  C   C323      1.0  0.14297  0.35784  0.96142  1.0000
  C   C324      1.0  0.16036  0.35826  0.96984  1.0000
  H   H517      1.0  0.13858  0.36930  0.95117  1.0000
  Fe  Fe60      1.0  0.21087  0.36461  0.99214  1.0000
  H   H518      1.0  0.15533  0.64704  0.98585  1.0000
  C   C325      1.0  0.05372  0.59748  0.75203  1.0000
  H   H519      1.0  0.11146  0.39753  0.82731  1.0000
  C   C326      1.0  0.24164  0.51779  0.97807  1.0000
  H   H520      1.0  0.09855  0.36882  0.81710  1.0000
  H   H521      1.0  0.28648  0.59044  0.93993  1.0000
  C   C327      1.0  0.11380  0.40269  0.81204  1.0000
  H   H522      1.0  0.11596  0.36870  0.79661  1.0000
  H   H523      1.0  0.27116  0.49160  0.94669  1.0000
  H   H524      1.0  0.03326  0.51272  0.80263  1.0000
  C   C328      1.0  0.10135  0.37474  0.80211  1.0000
  H   H525      1.0  0.12880  0.39753  0.80678  1.0000
  H   H526      1.0  0.17361  0.57302  0.80532  1.0000
  H   H527      1.0  0.11276  0.41863  0.81132  1.0000
  C   C329      1.0  0.10303  0.40308  0.78064  1.0000
  H   H528      1.0  0.24937  0.46455  0.86095  1.0000
  S   S131      1.0  0.22009  0.43081  0.96198  1.0000
  N   N35       1.0  0.30379  0.59000  0.91308  1.0000
  Fe  Fe61      1.0  0.26430  0.51239  0.89547  1.0000
  S   S132      1.0  0.23564  0.52608  0.90631  1.0000
  S   S133      1.0  0.27349  0.48139  0.90461  1.0000
  Fe  Fe62      1.0  0.27647  0.55008  0.87522  1.0000
  S   S134      1.0  0.24790  0.56617  0.88500  1.0000
  S   S135      1.0  0.29848  0.56969  0.86061  1.0000
  Fe  Fe63      1.0  0.25163  0.55018  0.91340  1.0000
  S   S136      1.0  0.24906  0.55743  0.94430  1.0000
  Fe  Fe64      1.0  0.23454  0.54050  0.87678  1.0000
  S   S137      1.0  0.20514  0.54025  0.86522  1.0000
  S   S138      1.0  0.28062  0.53558  0.90413  1.0000
  S   S139      1.0  0.26273  0.52533  0.86531  1.0000
  H   H529      1.0  0.13328  0.56128  0.80230  1.0000
  H   H530      1.0  0.32354  0.58332  0.88871  1.0000
  S   S140      1.0  0.12543  0.52641  0.78744  1.0000
  S   S141      1.0  0.10051  0.48483  0.77900  1.0000
  Fe  Fe65      1.0  0.15334  0.53010  0.77003  1.0000
  S   S142      1.0  0.18279  0.53044  0.78143  1.0000
  C   C330      1.0  0.13512  0.57180  0.81270  1.0000
  H   H531      1.0  0.24998  0.47111  0.96787  1.0000
  H   H532      1.0  0.28980  0.56767  0.92987  1.0000
  C   C331      1.0  0.19927  0.53773  0.84176  1.0000
  C   C332      1.0  0.18005  0.53548  0.83882  1.0000
  C   C333      1.0  0.17476  0.53301  0.82052  1.0000
  C   C334      1.0  0.18865  0.53293  0.80490  1.0000
  C   C335      1.0  0.20787  0.53512  0.80785  1.0000
  C   C336      1.0  0.21318  0.53751  0.82615  1.0000
  H   H533      1.0  0.16920  0.53548  0.85081  1.0000
  H   H534      1.0  0.16000  0.53102  0.81851  1.0000
  H   H535      1.0  0.21873  0.53508  0.79586  1.0000
  H   H536      1.0  0.22800  0.53926  0.82814  1.0000
  C   C337      1.0  0.32292  0.56433  0.85152  1.0000
  H   H537      1.0  0.05745  0.49718  0.77931  1.0000
  C   C338      1.0  0.16417  0.65718  0.99146  1.0000
  H   H538      1.0  0.20373  0.62603  0.99871  1.0000
  H   H539      1.0  0.24364  0.59699  0.92749  1.0000
  S   S143      1.0  0.09277  0.57195  0.78734  1.0000
  C   C339      1.0  0.07190  0.58430  0.77834  1.0000
  H   H540      1.0  0.17062  0.66594  0.97912  1.0000
  H   H541      1.0  0.05805  0.58985  0.80620  1.0000
  C   C340      1.0  0.05682  0.59182  0.79105  1.0000
  S   S144      1.0  0.25414  0.39540  0.99448  1.0000
  C   C341      1.0  0.24742  0.58011  0.95381  1.0000
  C   C342      1.0  0.24879  0.58074  0.97339  1.0000
  H   H542      1.0  0.06926  0.51131  0.76045  1.0000
  H   H543      1.0  0.25071  0.56756  0.98224  1.0000
  C   C343      1.0  0.28720  0.59507  0.90166  1.0000
  C   C344      1.0  0.07647  0.45648  0.77966  1.0000
  H   H544      1.0  0.01993  0.52379  0.78356  1.0000
  H   H545      1.0  0.02067  0.35276  0.84283  1.0000
  C   C345      1.0  0.23518  0.44398  0.94545  1.0000
  C   C346      1.0  0.25479  0.43822  0.94138  1.0000
  C   C347      1.0  0.26635  0.44973  0.92871  1.0000
  C   C348      1.0  0.25847  0.46715  0.92022  1.0000
  C   C349      1.0  0.23885  0.47284  0.92427  1.0000
  C   C350      1.0  0.22726  0.46123  0.93667  1.0000
  H   H546      1.0  0.26104  0.42493  0.94800  1.0000
  H   H547      1.0  0.28149  0.44513  0.92558  1.0000
  H   H548      1.0  0.23252  0.48609  0.91778  1.0000
  H   H549      1.0  0.21208  0.46574  0.93974  1.0000
  H   H550      1.0  0.19875  0.66895  0.99781  1.0000
  H   H551      1.0  0.14091  0.61033  0.78124  1.0000
  C   C351      1.0  0.07990  0.40310  0.80829  1.0000
  C   C352      1.0  0.24496  0.59730  0.94254  1.0000
  S   S145      1.0  0.01356  0.35911  0.78768  1.0000
  H   H552      1.0  0.13133  0.58839  0.77765  1.0000
  Fe  Fe66      1.0  0.11817  0.50842  0.76482  1.0000
  N   N36       1.0  0.22073  0.47886  0.86559  1.0000
  C   C353      1.0  0.24002  0.47251  0.87190  1.0000
  C   C354      1.0  0.22278  0.49149  0.84794  1.0000
  C   C355      1.0  0.20902  0.48949  0.88057  1.0000
  C   C356      1.0  0.21107  0.46199  0.86199  1.0000
  H   H553      1.0  0.21950  0.45366  0.85073  1.0000
  H   H554      1.0  0.23170  0.48409  0.83633  1.0000
  H   H555      1.0  0.20850  0.49652  0.84271  1.0000
  H   H556      1.0  0.22979  0.50449  0.85029  1.0000
  H   H557      1.0  0.21601  0.50219  0.88375  1.0000
  H   H558      1.0  0.20698  0.48038  0.89408  1.0000
  H   H559      1.0  0.19452  0.49495  0.87610  1.0000
  H   H560      1.0  0.19644  0.46631  0.85725  1.0000
  H   H561      1.0  0.20935  0.45216  0.87506  1.0000
  H   H562      1.0  0.15566  0.61358  0.81123  1.0000
  C   C357      1.0  0.24771  0.59833  0.98171  1.0000
  H   H563      1.0  0.27603  0.60514  0.90884  1.0000
  H   H564      1.0  0.24765  0.48489  0.87487  1.0000
  H   H565      1.0  0.07657  0.39763  0.82334  1.0000
  H   H566      1.0  0.06882  0.39828  0.80004  1.0000
  H   H567      1.0  0.01265  0.33858  0.87563  1.0000
  H   H568      1.0  0.29659  0.37903  0.99969  1.0000
  H   H569      1.0  0.23910  0.46291  0.88519  1.0000
  C   C358      1.0  0.03194  0.52548  0.79230  1.0000
  H   H570      1.0  0.07798  0.41901  0.80767  1.0000
  C   C359      1.0  0.06804  0.44180  0.77212  1.0000
  C   C360      1.0  0.14800  0.60124  0.81776  1.0000
  C   C361      1.0  0.04776  0.54462  0.76681  1.0000
  C   C362      1.0  0.26171  0.50419  0.95189  1.0000
  H   H571      1.0  0.25041  0.53014  0.97784  1.0000
  H   H572      1.0  0.14317  0.56403  0.82422  1.0000
  H   H573      1.0  0.24180  0.62821  0.94216  1.0000
  C   C363      1.0  0.13373  0.59807  0.78864  1.0000
  C   C364      1.0  0.05544  0.51032  0.76956  1.0000
  C   C365      1.0  0.08995  0.46704  0.76842  1.0000
  C   C366      1.0  0.24519  0.61554  0.97053  1.0000
  H   H574      1.0  0.11744  0.39741  0.77426  1.0000
  N   N37       1.0  0.14531  0.58790  0.80339  1.0000
  H   H575      1.0  0.12040  0.57675  0.81896  1.0000
  N   N38       1.0  0.05021  0.52756  0.78028  1.0000
  C   C367      1.0  0.33114  0.54557  0.84943  1.0000
  H   H576      1.0  0.23545  0.48079  0.98778  1.0000
  H   H577      1.0  0.27041  0.51669  0.95032  1.0000
  H   H578      1.0  0.22917  0.48761  0.96409  1.0000
  H   H579      1.0  0.25012  0.50741  0.94212  1.0000
  C   C368      1.0  0.24153  0.48431  0.97295  1.0000
  C   C369      1.0  0.03201  0.34846  0.85206  1.0000
  N   N39       1.0  0.25358  0.50048  0.97176  1.0000
  S   S146      1.0  0.14134  0.55667  0.75358  1.0000
  C   C370      1.0  0.31261  0.60756  0.91610  1.0000
  H   H580      1.0  0.04416  0.50811  0.76016  1.0000
  C   C371      1.0  0.03868  0.60512  0.76470  1.0000
  C   C372      1.0  0.26947  0.49564  0.98411  1.0000
  Fe  Fe67      1.0  0.11280  0.55144  0.76961  1.0000
  H   H581      1.0  0.05759  0.43388  0.78088  1.0000
  H   H582      1.0  0.07252  0.45968  0.79430  1.0000
  H   H583      1.0  0.09199  0.39885  0.77188  1.0000
  H   H584      1.0  0.15419  0.66706  0.00026  1.0000
  H   H585      1.0  0.17232  0.59212  0.78693  1.0000
  H   H586      1.0  0.15667  0.59398  0.82911  1.0000
  S   S147      1.0  0.11015  0.34242  0.95401  1.0000
  H   H587      1.0  0.10243  0.41899  0.77915  1.0000
  H   H588      1.0  0.08056  0.34723  0.85287  1.0000
  H   H589      1.0  0.13389  0.60706  0.82475  1.0000
  C   C373      1.0  0.05117  0.35100  0.84551  1.0000
  C   C374      1.0  0.06571  0.34535  0.85776  1.0000
  H   H590      1.0  0.02873  0.60796  0.79415  1.0000
  H   H591      1.0  0.11915  0.60364  0.79480  1.0000
  C   C375      1.0  0.06568  0.52982  0.79247  1.0000
  C   C376      1.0  0.16631  0.34350  0.98304  1.0000
  H   H592      1.0  0.33344  0.57519  0.78563  1.0000
  C   C377      1.0  0.29708  0.58066  0.93166  1.0000
  H   H593      1.0  0.30925  0.57618  0.94052  1.0000
  H   H594      1.0  0.29174  0.60182  0.88737  1.0000
  C   C378      1.0  0.04016  0.60204  0.78427  1.0000
  C   C379      1.0  0.16436  0.58047  0.79454  1.0000
  H   H595      1.0  0.16295  0.56991  0.78400  1.0000
  Fe  Fe68      1.0  0.22801  0.40212  0.97819  1.0000
  H   H596      1.0  0.30208  0.61789  0.92379  1.0000
  S   S148      1.0  0.05781  0.36141  0.82237  1.0000
  S   S149      1.0  0.24347  0.63787  0.98077  1.0000
  H   H597      1.0  0.23477  0.51539  0.99281  1.0000
  Fe  Fe69      1.0  0.04415  0.39883  0.76204  1.0000
  H   H598      1.0  0.06234  0.54278  0.80067  1.0000
  H   H599      1.0  0.32258  0.53372  0.85354  1.0000
  S   S150      1.0  0.18831  0.34291  0.99381  1.0000
  H   H600      1.0  0.24883  0.59855  0.99681  1.0000
  H   H601      1.0  0.07967  0.53142  0.78388  1.0000
  H   H602      1.0  0.02759  0.53826  0.80059  1.0000
  H   H603      1.0  0.22997  0.52229  0.96857  1.0000
  H   H604      1.0  0.32522  0.60427  0.92464  1.0000
  H   H605      1.0  0.32817  0.59410  0.84762  1.0000
  H   H606      1.0  0.04341  0.55783  0.77443  1.0000
  H   H607      1.0  0.27893  0.50750  0.98345  1.0000
  C   C380      1.0  0.07019  0.58697  0.75880  1.0000
  C   C381      1.0  0.19212  0.63389  0.99065  1.0000
  Fe  Fe70      1.0  0.02995  0.35940  0.75844  1.0000
  H   H608      1.0  0.33099  0.57251  0.91099  1.0000
  C   C382      1.0  0.07334  0.43725  0.75337  1.0000
  H   H609      1.0  0.27867  0.48256  0.97976  1.0000
  H   H610      1.0  0.19949  0.64185  0.97826  1.0000
  H   H611      1.0  0.06141  0.54692  0.75782  1.0000
  H   H612      1.0  0.03647  0.54328  0.75712  1.0000
  H   H613      1.0  0.31777  0.61495  0.90232  1.0000
  H   H614      1.0  0.18409  0.62304  0.98510  1.0000
  C   C383      1.0  0.33434  0.57952  0.84606  1.0000
  Fe  Fe71      1.0  0.00420  0.39024  0.77921  1.0000
  H   H615      1.0  0.11832  0.93094  0.25113  1.0000
  S   S151      1.0  0.07670  0.95030  0.24197  1.0000
  H   H616      1.0  0.21904  0.96546  0.03774  1.0000
  H   H617      1.0  0.32206  0.77504  0.09024  1.0000
  H   H618      1.0  0.31883  0.74750  0.07117  1.0000
  Fe  Fe72      1.0  0.06184  0.75385  0.08349  1.0000
  S   S152      1.0  0.08078  0.73154  0.09953  1.0000
  S   S153      1.0  0.05394  0.78483  0.09103  1.0000
  Fe  Fe73      1.0  0.05202  0.72556  0.05543  1.0000
  S   S154      1.0  0.07092  0.70153  0.06930  1.0000
  H   H619      1.0  0.22342  0.98758  0.09148  1.0000
  Fe  Fe74      1.0  0.05752  0.71206  0.09737  1.0000
  S   S155      1.0  0.04551  0.68863  0.11827  1.0000
  Fe  Fe75      1.0  0.09267  0.72261  0.07037  1.0000
  S   S156      1.0  0.12492  0.71984  0.06040  1.0000
  S   S157      1.0  0.03753  0.73498  0.08342  1.0000
  S   S158      1.0  0.07485  0.74607  0.05449  1.0000
  H   H620      1.0  0.27009  0.77059  0.08646  1.0000
  C   C384      1.0  0.17588  0.68629  0.05411  1.0000
  C   C385      1.0  0.16154  0.70192  0.05404  1.0000
  C   C386      1.0  0.14228  0.69955  0.06084  1.0000
  H   H621      1.0  0.24231  0.96814  0.04519  1.0000
  C   C387      1.0  0.02546  0.67277  0.04776  1.0000
  H   H622      1.0  0.19064  0.68839  0.04900  1.0000
  H   H623      1.0  0.16540  0.71601  0.04882  1.0000
  S   S159      1.0  0.27329  0.99114  0.04636  1.0000
  C   C388      1.0  0.03372  0.68787  0.18365  1.0000
  H   H624      1.0  0.10564  0.86063  0.14854  1.0000
  C   C389      1.0  0.04101  0.68892  0.14342  1.0000
  C   C390      1.0  0.04627  0.70359  0.15343  1.0000
  C   C391      1.0  0.04262  0.70306  0.17341  1.0000
  H   H625      1.0  0.05312  0.71538  0.14576  1.0000
  H   H626      1.0  0.03415  0.93053  0.00717  1.0000
  C   C392      1.0  0.32040  0.71829  0.03694  1.0000
  C   C393      1.0  0.32411  0.70770  0.05398  1.0000
  C   C394      1.0  0.31340  0.69214  0.06043  1.0000
  C   C395      1.0  0.29894  0.68692  0.04992  1.0000
  C   C396      1.0  0.29530  0.69747  0.03285  1.0000
  C   C397      1.0  0.30594  0.71309  0.02645  1.0000
  H   H627      1.0  0.28421  0.69367  0.02463  1.0000
  C   C398      1.0  0.32713  0.87613  0.06126  1.0000
  N   N40       1.0  0.29880  0.77274  0.07310  1.0000
  S   S160      1.0  0.03890  0.71753  0.02880  1.0000
  H   H628      1.0  0.12272  0.67927  0.07292  1.0000
  H   H629      1.0  0.09584  0.78134  0.09249  1.0000
  H   H630      1.0  0.22823  0.95014  0.05700  1.0000
  H   H631      1.0  0.30359  0.79448  0.09131  1.0000
  C   C399      1.0  0.33560  0.83610  0.06904  1.0000
  C   C400      1.0  0.05849  0.70526  0.24905  1.0000
  C   C401      1.0  0.04138  0.73492  0.23776  1.0000
  H   H632      1.0  0.29631  0.74378  0.08477  1.0000
  C   C402      1.0  0.30302  0.75182  0.07209  1.0000
  H   H633      1.0  0.02961  0.74642  0.24096  1.0000
  H   H634      1.0  0.14135  0.92789  0.23750  1.0000
  C   C403      1.0  0.30618  0.77869  0.09034  1.0000
  H   H635      1.0  0.18952  0.97418  0.05874  1.0000
  H   H636      1.0  0.27177  0.77365  0.06094  1.0000
  H   H637      1.0  0.30288  0.72121  0.01328  1.0000
  C   C404      1.0  0.32153  0.84668  0.08061  1.0000
  H   H638      1.0  0.07268  0.71117  0.24592  1.0000
  H   H639      1.0  0.00430  0.70448  0.06015  1.0000
  H   H640      1.0  0.29758  0.74685  0.05926  1.0000
  C   C405      1.0  0.13746  0.68129  0.06762  1.0000
  H   H641      1.0  0.00766  0.69892  0.08500  1.0000
  C   C406      1.0  0.07054  0.80147  0.09428  1.0000
  H   H642      1.0  0.31389  0.83946  0.09267  1.0000
  C   C407      1.0  0.09031  0.79603  0.09457  1.0000
  C   C408      1.0  0.12908  0.93857  0.24155  1.0000
  H   H643      1.0  0.04673  0.71452  0.18096  1.0000
  C   C409      1.0  0.22999  0.97782  0.08052  1.0000
  H   H644      1.0  0.31633  0.68410  0.07367  1.0000
  S   S161      1.0  0.33284  0.73852  0.02840  1.0000
  H   H645      1.0  0.30353  0.77820  0.04271  1.0000
  C   C410      1.0  0.30830  0.78264  0.05608  1.0000
  H   H646      1.0  0.19877  0.95964  0.07842  1.0000
  C   C411      1.0  0.27774  0.77787  0.07381  1.0000
  Fe  Fe76      1.0  0.13163  0.91063  0.10510  1.0000
  S   S162      1.0  0.10992  0.92934  0.12306  1.0000
  S   S163      1.0  0.15972  0.91587  0.08689  1.0000
  Fe  Fe77      1.0  0.10696  0.87654  0.11045  1.0000
  S   S164      1.0  0.08340  0.89244  0.12838  1.0000
  S   S165      1.0  0.11249  0.84484  0.10526  1.0000
  Fe  Fe78      1.0  0.08764  0.91773  0.10719  1.0000
  S   S166      1.0  0.06005  0.93519  0.09888  1.0000
  Fe  Fe79      1.0  0.10686  0.90290  0.14313  1.0000
  S   S167      1.0  0.10649  0.89580  0.17520  1.0000
  S   S168      1.0  0.10935  0.90085  0.08802  1.0000
  S   S169      1.0  0.13036  0.88545  0.12636  1.0000
  H   H647      1.0  0.03812  0.72841  0.22473  1.0000
  H   H648      1.0  0.13472  0.84130  0.06758  1.0000
  S   S170      1.0  0.04319  0.97565  0.01772  1.0000
  H   H649      1.0  0.19786  0.91609  0.06782  1.0000
  S   S171      1.0  0.02990  0.68777  0.20888  1.0000
  H   H650      1.0  0.08437  0.82648  0.14103  1.0000
  Fe  Fe80      1.0  0.30734  0.95251  0.10147  1.0000
  S   S172      1.0  0.31529  0.95298  0.06975  1.0000
  H   H651      1.0  0.06172  0.83480  0.15330  1.0000
  Fe  Fe81      1.0  0.26798  0.93826  0.09714  1.0000
  S   S173      1.0  0.27375  0.93706  0.06545  1.0000
  S   S174      1.0  0.24000  0.93217  0.11504  1.0000
  Fe  Fe82      1.0  0.30358  0.92412  0.07188  1.0000
  S   S175      1.0  0.32321  0.90131  0.05622  1.0000
  Fe  Fe83      1.0  0.28516  0.96588  0.06591  1.0000
  H   H652      1.0  0.33337  0.89152  0.10077  1.0000
  S   S176      1.0  0.29700  0.92313  0.10360  1.0000
  S   S177      1.0  0.27792  0.96768  0.09755  1.0000
  H   H653      1.0  0.29929  0.77164  0.10353  1.0000
  C   C412      1.0  0.06360  0.82063  0.09703  1.0000
  C   C413      1.0  0.22733  0.96503  0.05040  1.0000
  H   H654      1.0  0.00857  0.95280  0.02211  1.0000
  H   H655      1.0  0.05505  0.74175  0.23425  1.0000
  H   H656      1.0  0.16214  0.95491  0.23292  1.0000
  C   C414      1.0  0.31726  0.86657  0.07674  1.0000
  H   H657      1.0  0.04827  0.99227  0.06853  1.0000
  H   H658      1.0  0.30640  0.87450  0.08574  1.0000
  C   C415      1.0  0.33503  0.96934  0.18155  1.0000
  H   H659      1.0  0.11094  0.97399  0.24347  1.0000
  H   H660      1.0  0.15427  0.97693  0.24381  1.0000
  H   H661      1.0  0.06118  0.85501  0.18067  1.0000
  H   H662      1.0  0.09599  0.82748  0.19094  1.0000
  H   H663      1.0  0.05557  0.69804  0.23636  1.0000
  H   H664      1.0  0.31299  0.99007  0.02787  1.0000
  C   C416      1.0  0.31787  0.96428  0.17530  1.0000
  C   C417      1.0  0.31656  0.96134  0.15599  1.0000
  H   H665      1.0  0.29703  0.95876  0.22971  1.0000
  H   H666      1.0  0.30324  0.95754  0.15145  1.0000
  C   C418      1.0  0.05556  0.94520  0.07580  1.0000
  C   C419      1.0  0.03672  0.95284  0.07248  1.0000
  C   C420      1.0  0.03264  0.96189  0.05465  1.0000
  C   C421      1.0  0.04745  0.96354  0.04003  1.0000
  C   C422      1.0  0.06620  0.95550  0.04319  1.0000
  C   C423      1.0  0.07027  0.94639  0.06101  1.0000
  H   H667      1.0  0.02524  0.95175  0.08381  1.0000
  H   H668      1.0  0.01810  0.96771  0.05230  1.0000
  H   H669      1.0  0.07773  0.95659  0.03190  1.0000
  H   H670      1.0  0.08483  0.94057  0.06339  1.0000
  C   C424      1.0  0.09598  0.82869  0.10052  1.0000
  C   C425      1.0  0.07624  0.83423  0.10001  1.0000
  H   H671      1.0  0.07068  0.84891  0.10199  1.0000
  C   C426      1.0  0.09758  0.91108  0.19351  1.0000
  C   C427      1.0  0.09720  0.90365  0.21259  1.0000
  C   C428      1.0  0.09045  0.91531  0.22760  1.0000
  C   C429      1.0  0.08414  0.93460  0.22367  1.0000
  C   C430      1.0  0.08455  0.94203  0.20460  1.0000
  C   C431      1.0  0.09115  0.93033  0.18958  1.0000
  H   H672      1.0  0.10215  0.88878  0.21579  1.0000
  H   H673      1.0  0.07973  0.95694  0.20140  1.0000
  H   H674      1.0  0.09136  0.93625  0.17499  1.0000
  C   C432      1.0  0.18206  0.91955  0.09525  1.0000
  C   C433      1.0  0.18349  0.92335  0.11410  1.0000
  C   C434      1.0  0.20136  0.92701  0.11993  1.0000
  C   C435      1.0  0.21802  0.92683  0.10705  1.0000
  C   C436      1.0  0.21669  0.92263  0.08829  1.0000
  C   C437      1.0  0.19877  0.91914  0.08240  1.0000
  H   H675      1.0  0.17078  0.92369  0.12415  1.0000
  H   H676      1.0  0.20227  0.93010  0.13451  1.0000
  H   H677      1.0  0.22949  0.92192  0.07841  1.0000
  H   H678      1.0  0.33519  0.71148  0.06221  1.0000
  H   H679      1.0  0.31573  0.98208  0.24054  1.0000
  H   H680      1.0  0.07385  0.82068  0.18379  1.0000
  N   N41       1.0  0.01603  0.67558  0.06709  1.0000
  N   N42       1.0  0.08682  0.84238  0.16523  1.0000
  H   H681      1.0  0.30544  0.96270  0.18544  1.0000
  H   H682      1.0  0.27411  0.79359  0.07459  1.0000
  N   N43       1.0  0.15432  0.86321  0.06268  1.0000
  C   C438      1.0  0.13573  0.85585  0.06029  1.0000
  C   C439      1.0  0.15496  0.88253  0.05289  1.0000
  C   C440      1.0  0.17036  0.85018  0.05447  1.0000
  C   C441      1.0  0.15626  0.86428  0.08313  1.0000
  H   H683      1.0  0.14246  0.97048  0.22418  1.0000
  H   H684      1.0  0.13365  0.85493  0.04504  1.0000
  H   H685      1.0  0.02012  0.91074  0.01420  1.0000
  H   H686      1.0  0.16864  0.88868  0.05476  1.0000
  H   H687      1.0  0.15368  0.88236  0.03739  1.0000
  H   H688      1.0  0.14302  0.89271  0.05878  1.0000
  H   H689      1.0  0.18458  0.85533  0.05608  1.0000
  H   H690      1.0  0.16934  0.84899  0.03903  1.0000
  H   H691      1.0  0.17026  0.83550  0.06163  1.0000
  C   C442      1.0  0.19861  0.97410  0.07078  1.0000
  H   H692      1.0  0.15548  0.85006  0.09114  1.0000
  H   H693      1.0  0.17005  0.86989  0.08556  1.0000
  C   C443      1.0  0.07663  0.83854  0.14883  1.0000
  H   H694      1.0  0.24478  0.98187  0.07608  1.0000
  H   H695      1.0  0.14447  0.87410  0.08962  1.0000
  H   H696      1.0  0.30547  0.79850  0.05626  1.0000
  H   H697      1.0  0.09021  0.90938  0.24220  1.0000
  H   H698      1.0  0.09650  0.81276  0.17126  1.0000
  H   H699      1.0  0.04833  0.82497  0.09677  1.0000
  C   C444      1.0  0.08835  0.82504  0.17841  1.0000
  H   H700      1.0  0.01701  0.68091  0.03668  1.0000
  H   H701      1.0  0.19131  0.98444  0.08088  1.0000
  N   N44       1.0  0.21836  0.97884  0.06410  1.0000
  H   H702      1.0  0.02019  0.70579  0.24506  1.0000
  H   H703      1.0  0.07465  0.87171  0.16574  1.0000
  C   C445      1.0  0.10636  0.84757  0.15840  1.0000
  C   C446      1.0  0.02829  0.67329  0.17362  1.0000
  C   C447      1.0  0.10292  0.80956  0.09775  1.0000
  H   H704      1.0  0.11491  0.83602  0.15047  1.0000
  H   H705      1.0  0.11815  0.80509  0.09814  1.0000
  H   H706      1.0  0.11450  0.85075  0.17032  1.0000
  C   C448      1.0  0.01377  0.69618  0.07024  1.0000
  C   C449      1.0  0.03204  0.67376  0.15365  1.0000
  C   C450      1.0  0.07601  0.85835  0.17525  1.0000
  H   H707      1.0  0.12198  0.94369  0.22843  1.0000
  C   C451      1.0  0.01633  0.72107  0.01855  1.0000
  S   S178      1.0  0.33185  0.95964  0.11812  1.0000
  H   H708      1.0  0.32418  0.77931  0.05540  1.0000
  H   H709      1.0  0.23150  0.96310  0.08754  1.0000
  H   H710      1.0  0.12330  0.86520  0.06658  1.0000
  H   H711      1.0  0.07556  0.85121  0.13838  1.0000
  H   H712      1.0  0.08347  0.86183  0.18754  1.0000
  H   H713      1.0  0.01350  0.98806  0.08152  1.0000
  C   C452      1.0  0.33247  0.96340  0.14264  1.0000
  H   H714      1.0  0.20891  0.99972  0.04224  1.0000
  H   H715      1.0  0.04007  0.67802  0.04592  1.0000
  H   H716      1.0  0.32916  0.94744  0.24036  1.0000
  Fe  Fe84      1.0  0.01664  0.99613  0.01235  1.0000
  C   C453      1.0  0.14922  0.96469  0.23732  1.0000
  H   H717      1.0  0.02792  0.70218  0.06796  1.0000
  C   C454      1.0  0.29064  0.95629  0.24468  1.0000
  H   H718      1.0  0.33543  0.91603  0.12391  1.0000
  S   S179      1.0  0.33569  0.97279  0.20614  1.0000
  H   H719      1.0  0.03667  0.99848  0.10130  1.0000
  C   C455      1.0  0.30403  0.00100  0.02032  1.0000
  C   C456      1.0  0.21759  0.99840  0.05470  1.0000
  H   H720      1.0  0.27759  0.96665  0.24668  1.0000
  H   H721      1.0  0.23231  0.00230  0.04940  1.0000
  C   C457      1.0  0.28439  0.00426  0.02635  1.0000
  C   C458      1.0  0.00995  0.00319  0.07625  1.0000
  H   H722      1.0  0.00554  0.00321  0.06158  1.0000
  H   H723      1.0  0.28593  0.94160  0.24632  1.0000
  N   N45       1.0  0.13546  0.95465  0.25074  1.0000
  C   C459      1.0  0.02271  0.92229  0.00282  1.0000
  Fe  Fe85      1.0  0.05481  0.76716  0.39567  1.0000
  S   S180      1.0  0.03301  0.78836  0.40945  1.0000
  S   S181      1.0  0.08466  0.76441  0.40646  1.0000
  Fe  Fe86      1.0  0.02760  0.75929  0.36640  1.0000
  H   H724      1.0  0.07104  0.82833  0.40580  1.0000
  Fe  Fe87      1.0  0.02724  0.79987  0.37990  1.0000
  S   S182      1.0  0.05046  0.77994  0.36584  1.0000
  S   S183      1.0  0.03389  0.74494  0.39515  1.0000
  N   N46       1.0  0.04290  0.72038  0.25393  1.0000
  H   H725      1.0  0.01249  0.72237  0.26292  1.0000
  C   C460      1.0  0.02522  0.72420  0.33010  1.0000
  C   C461      1.0  0.31044  0.97841  0.25557  1.0000
  C   C462      1.0  0.03670  0.69099  0.30997  1.0000
  H   H726      1.0  0.13488  0.93967  0.27847  1.0000
  C   C463      1.0  0.04320  0.71399  0.33224  1.0000
  H   H727      1.0  0.05433  0.97901  0.34665  1.0000
  C   C464      1.0  0.08728  0.75930  0.43109  1.0000
  C   C465      1.0  0.10486  0.76170  0.43828  1.0000
  C   C466      1.0  0.10747  0.75727  0.45772  1.0000
  C   C467      1.0  0.09262  0.75006  0.47006  1.0000
  C   C468      1.0  0.07508  0.74772  0.46284  1.0000
  C   C469      1.0  0.07232  0.75251  0.44354  1.0000
  H   H728      1.0  0.11656  0.76684  0.42877  1.0000
  H   H729      1.0  0.12109  0.75903  0.46305  1.0000
  H   H730      1.0  0.06353  0.74207  0.47222  1.0000
  H   H731      1.0  0.05875  0.75051  0.43821  1.0000
  H   H732      1.0  0.05286  0.71898  0.34137  1.0000
  H   H733      1.0  0.06306  0.69004  0.32356  1.0000
  H   H734      1.0  0.05991  0.69399  0.26098  1.0000
  H   H735      1.0  0.29114  0.94064  0.28056  1.0000
  H   H736      1.0  0.30655  0.95655  0.28852  1.0000
  C   C470      1.0  0.04894  0.69757  0.32212  1.0000
  H   H737      1.0  0.08313  0.84378  0.36599  1.0000
  N   N47       1.0  0.30472  0.95870  0.25832  1.0000
  H   H738      1.0  0.06131  0.82219  0.38485  1.0000
  S   S184      1.0  0.23367  0.91983  0.49827  1.0000
  C   C471      1.0  0.31299  0.00023  0.29668  1.0000
  C   C472      1.0  0.28616  0.99664  0.32123  1.0000
  S   S185      1.0  0.26239  0.00440  0.33029  1.0000
  H   H739      1.0  0.00862  0.69574  0.29950  1.0000
  C   C473      1.0  0.02445  0.71177  0.25793  1.0000
  H   H740      1.0  0.07108  0.80371  0.40106  1.0000
  H   H741      1.0  0.10872  0.83941  0.36688  1.0000
  H   H742      1.0  0.10602  0.79765  0.40277  1.0000
  H   H743      1.0  0.32387  0.96308  0.32874  1.0000
  H   H744      1.0  0.28335  0.96578  0.28137  1.0000
  H   H745      1.0  0.12754  0.68047  0.46906  1.0000
  C   C474      1.0  0.01605  0.00418  0.29588  1.0000
  H   H746      1.0  0.33277  0.94629  0.26521  1.0000
  Fe  Fe88      1.0  0.24693  0.99299  0.35812  1.0000
  H   H747      1.0  0.22287  0.91640  0.39799  1.0000
  C   C475      1.0  0.14326  0.70456  0.48918  1.0000
  Fe  Fe89      1.0  0.24552  0.96902  0.39605  1.0000
  S   S186      1.0  0.21591  0.98213  0.40553  1.0000
  S   S187      1.0  0.26270  0.94560  0.41304  1.0000
  Fe  Fe90      1.0  0.20853  0.97837  0.37579  1.0000
  S   S188      1.0  0.18080  0.96374  0.37451  1.0000
  C   C476      1.0  0.10739  0.81256  0.39653  1.0000
  S   S189      1.0  0.23781  0.96356  0.36690  1.0000
  C   C477      1.0  0.05506  0.99262  0.35339  1.0000
  Fe  Fe91      1.0  0.09493  0.95209  0.30814  1.0000
  S   S190      1.0  0.07174  0.94142  0.32957  1.0000
  S   S191      1.0  0.12177  0.96764  0.31027  1.0000
  Fe  Fe92      1.0  0.07374  0.94333  0.27411  1.0000
  S   S192      1.0  0.04882  0.93203  0.29284  1.0000
  Fe  Fe93      1.0  0.05029  0.95717  0.31034  1.0000
  S   S193      1.0  0.02410  0.97514  0.32401  1.0000
  Fe  Fe94      1.0  0.07160  0.91700  0.31078  1.0000
  S   S194      1.0  0.07479  0.88486  0.31944  1.0000
  S   S195      1.0  0.07342  0.96947  0.29048  1.0000
  S   S196      1.0  0.09642  0.92670  0.29060  1.0000
  H   H748      1.0  0.08272  0.81001  0.35798  1.0000
  S   S197      1.0  0.02219  0.83248  0.37628  1.0000
  C   C478      1.0  0.09461  0.83852  0.37548  1.0000
  H   H749      1.0  0.22586  0.93713  0.41000  1.0000
  H   H750      1.0  0.20975  0.93895  0.39177  1.0000
  C   C479      1.0  0.03614  0.84694  0.35964  1.0000
  C   C480      1.0  0.03329  0.86700  0.35994  1.0000
  C   C481      1.0  0.04460  0.87888  0.34740  1.0000
  C   C482      1.0  0.05901  0.87079  0.33451  1.0000
  C   C483      1.0  0.06173  0.85074  0.33412  1.0000
  C   C484      1.0  0.05028  0.83888  0.34649  1.0000
  H   H751      1.0  0.02232  0.87341  0.36996  1.0000
  H   H752      1.0  0.04235  0.89428  0.34787  1.0000
  H   H753      1.0  0.07272  0.84435  0.32409  1.0000
  H   H754      1.0  0.05231  0.82352  0.34578  1.0000
  C   C485      1.0  0.01290  0.71750  0.31811  1.0000
  H   H755      1.0  0.10886  0.69548  0.48139  1.0000
  N   N48       1.0  0.09226  0.81879  0.38358  1.0000
  C   C486      1.0  0.32369  0.98451  0.30519  1.0000
  C   C487      1.0  0.31568  0.97520  0.32199  1.0000
  C   C488      1.0  0.29701  0.98124  0.33001  1.0000
  H   H756      1.0  0.06079  0.73651  0.26834  1.0000
  H   H757      1.0  0.29097  0.97382  0.34285  1.0000
  C   C489      1.0  0.25526  0.93912  0.43709  1.0000
  C   C490      1.0  0.26485  0.92310  0.44651  1.0000
  C   C491      1.0  0.25871  0.91714  0.46542  1.0000
  C   C492      1.0  0.24280  0.92712  0.47495  1.0000
  C   C493      1.0  0.23335  0.94323  0.46559  1.0000
  C   C494      1.0  0.23963  0.94930  0.44681  1.0000
  H   H758      1.0  0.27702  0.91519  0.43909  1.0000
  H   H759      1.0  0.26610  0.90471  0.47249  1.0000
  H   H760      1.0  0.22110  0.95110  0.47292  1.0000
  H   H761      1.0  0.23240  0.96187  0.43987  1.0000
  C   C495      1.0  0.16461  0.96509  0.35640  1.0000
  C   C496      1.0  0.14871  0.95409  0.35915  1.0000
  C   C497      1.0  0.13549  0.95462  0.34523  1.0000
  C   C498      1.0  0.13799  0.96622  0.32835  1.0000
  C   C499      1.0  0.15383  0.97726  0.32562  1.0000
  C   C500      1.0  0.16708  0.97669  0.33951  1.0000
  H   H762      1.0  0.14661  0.94507  0.37213  1.0000
  H   H763      1.0  0.12342  0.94603  0.34757  1.0000
  C   C501      1.0  0.04722  0.72941  0.27096  1.0000
  H   H764      1.0  0.17918  0.98527  0.33718  1.0000
  C   C502      1.0  0.01845  0.70085  0.30835  1.0000
  H   H765      1.0  0.10824  0.80562  0.35971  1.0000
  H   H766      1.0  0.21830  0.91797  0.44041  1.0000
  H   H767      1.0  0.09372  0.84871  0.38681  1.0000
  C   C503      1.0  0.11855  0.96814  0.25609  1.0000
  H   H768      1.0  0.12265  0.98031  0.26341  1.0000
  H   H769      1.0  0.09202  0.79074  0.37368  1.0000
  H   H770      1.0  0.12208  0.81278  0.38897  1.0000
  H   H771      1.0  0.04902  0.71863  0.28319  1.0000
  H   H772      1.0  0.21368  0.89802  0.42801  1.0000
  C   C504      1.0  0.07309  0.81827  0.39430  1.0000
  H   H773      1.0  0.14967  0.95904  0.27542  1.0000
  N   N49       1.0  0.19920  0.92500  0.41833  1.0000
  H   H774      1.0  0.17848  0.92592  0.39776  1.0000
  C   C505      1.0  0.09390  0.80574  0.36804  1.0000
  H   H775      1.0  0.10642  0.82188  0.40861  1.0000
  S   S198      1.0  0.09554  0.74256  0.49424  1.0000
  H   H776      1.0  0.18453  0.95332  0.41525  1.0000
  C   C506      1.0  0.20694  0.91170  0.43360  1.0000
  C   C507      1.0  0.19022  0.94283  0.42648  1.0000
  H   H777      1.0  0.02556  0.69983  0.26914  1.0000
  H   H778      1.0  0.05521  0.99868  0.31541  1.0000
  H   H779      1.0  0.19095  0.90272  0.40270  1.0000
  H   H780      1.0  0.17239  0.91234  0.41975  1.0000
  H   H781      1.0  0.19547  0.90825  0.44502  1.0000
  C   C508      1.0  0.18460  0.91605  0.40927  1.0000
  C   C509      1.0  0.21509  0.92952  0.40388  1.0000
  H   H782      1.0  0.03988  0.99880  0.35660  1.0000
  H   H783      1.0  0.10785  0.96090  0.26599  1.0000
  H   H784      1.0  0.17800  0.94002  0.43728  1.0000
  H   H785      1.0  0.20080  0.94990  0.43355  1.0000
  H   H786      1.0  0.15592  0.98635  0.31267  1.0000
  H   H787      1.0  0.08508  0.98325  0.32832  1.0000
  C   C510      1.0  0.14491  0.94725  0.26799  1.0000
  C   C511      1.0  0.32194  0.94495  0.25497  1.0000
  H   H788      1.0  0.31819  0.92991  0.25662  1.0000
  C   C512      1.0  0.12009  0.68318  0.48334  1.0000
  S   S199      1.0  0.01791  0.74608  0.34084  1.0000
  S   S200      1.0  0.25711  0.99718  0.38647  1.0000
  H   H789      1.0  0.29823  0.98919  0.25951  1.0000
  H   H790      1.0  0.32234  0.98016  0.26433  1.0000
  C   C513      1.0  0.29600  0.95524  0.27802  1.0000
  H   H791      1.0  0.13252  0.71734  0.48778  1.0000
  N   N50       1.0  0.13381  0.68734  0.49668  1.0000
  H   H792      1.0  0.00847  0.82891  0.41939  1.0000
  H   H793      1.0  0.15110  0.70265  0.47493  1.0000
  Fe  Fe95      1.0  0.01158  0.76732  0.40709  1.0000
  H   H794      1.0  0.03538  0.74032  0.27563  1.0000
  C   C514      1.0  0.08585  0.99646  0.33569  1.0000
  H   H795      1.0  0.15396  0.70790  0.49876  1.0000
  C   C515      1.0  0.01083  0.99590  0.31403  1.0000
  H   H796      1.0  0.06153  0.98882  0.36708  1.0000
  H   H797      1.0  0.09378  0.99214  0.34847  1.0000
  H   H798      1.0  0.02825  0.99767  0.28728  1.0000
  H   H799      1.0  0.15774  0.93700  0.26458  1.0000
  S   S201      1.0  0.00391  0.78041  0.37860  1.0000
  C   C516      1.0  0.18221  0.80598  0.54696  1.0000
  H   H800      1.0  0.00735  0.79423  0.70145  1.0000
  C   C517      1.0  0.13435  0.80311  0.57609  1.0000
  S   S202      1.0  0.11633  0.77736  0.52823  1.0000
  Fe  Fe96      1.0  0.15069  0.73050  0.53510  1.0000
  S   S203      1.0  0.15218  0.75604  0.55202  1.0000
  S   S204      1.0  0.17298  0.70437  0.53385  1.0000
  Fe  Fe97      1.0  0.11958  0.75813  0.55477  1.0000
  S   S205      1.0  0.10266  0.76745  0.58203  1.0000
  Fe  Fe98      1.0  0.14884  0.77392  0.52468  1.0000
  S   S206      1.0  0.11844  0.73110  0.54039  1.0000
  C   C518      1.0  0.17245  0.68091  0.54515  1.0000
  H   H801      1.0  0.25764  0.95092  0.50450  1.0000
  C   C519      1.0  0.01380  0.99610  0.70464  1.0000
  H   H802      1.0  0.14338  0.68488  0.55828  1.0000
  H   H803      1.0  0.27365  0.98022  0.54065  1.0000
  C   C520      1.0  0.23910  0.94993  0.53941  1.0000
  C   C521      1.0  0.03769  0.76070  0.59163  1.0000
  C   C522      1.0  0.04878  0.75347  0.57568  1.0000
  C   C523      1.0  0.06861  0.75567  0.57250  1.0000
  C   C524      1.0  0.07762  0.76494  0.58538  1.0000
  C   C525      1.0  0.06655  0.77228  0.60130  1.0000
  C   C526      1.0  0.04662  0.77025  0.60439  1.0000
  H   H804      1.0  0.07698  0.74995  0.56020  1.0000
  H   H805      1.0  0.07342  0.77942  0.61136  1.0000
  H   H806      1.0  0.03824  0.77584  0.61673  1.0000
  H   H807      1.0  0.16684  0.99318  0.66354  1.0000
  H   H808      1.0  0.11176  0.70295  0.51416  1.0000
  C   C527      1.0  0.17965  0.81175  0.52794  1.0000
  H   H809      1.0  0.23098  0.98799  0.53440  1.0000
  H   H810      1.0  0.29292  0.80800  0.52935  1.0000
  H   H811      1.0  0.27248  0.95670  0.55233  1.0000
  H   H812      1.0  0.13476  0.79126  0.56658  1.0000
  H   H813      1.0  0.17573  0.79353  0.55361  1.0000
  H   H814      1.0  0.22885  0.95584  0.55098  1.0000
  H   H815      1.0  0.32427  0.69117  0.57184  1.0000
  C   C528      1.0  0.26364  0.96938  0.54621  1.0000
  H   H816      1.0  0.24330  0.79467  0.52601  1.0000
  H   H817      1.0  0.04206  0.74597  0.56578  1.0000
  H   H818      1.0  0.26934  0.77423  0.54164  1.0000
  H   H819      1.0  0.13785  0.83956  0.58243  1.0000
  H   H820      1.0  0.14950  0.80600  0.57727  1.0000
  H   H821      1.0  0.23047  0.94538  0.52849  1.0000
  C   C529      1.0  0.27786  0.80853  0.52538  1.0000
  H   H822      1.0  0.25073  0.99218  0.51683  1.0000
  H   H823      1.0  0.27440  0.82308  0.51838  1.0000
  H   H824      1.0  0.31805  0.68853  0.59709  1.0000
  H   H825      1.0  0.12821  0.79765  0.59037  1.0000
  H   H826      1.0  0.14603  0.83014  0.54955  1.0000
  H   H827      1.0  0.23250  0.97758  0.51186  1.0000
  S   S207      1.0  0.21734  0.99186  0.61787  1.0000
  H   H828      1.0  0.10199  0.80418  0.55835  1.0000
  H   H829      1.0  0.09608  0.81070  0.58217  1.0000
  H   H830      1.0  0.01004  0.68103  0.68885  1.0000
  Fe  Fe99      1.0  0.24760  0.89811  0.51961  1.0000
  S   S208      1.0  0.22992  0.89932  0.54799  1.0000
  Fe  Fe100     1.0  0.27853  0.86866  0.53623  1.0000
  S   S209      1.0  0.26303  0.86888  0.56540  1.0000
  S   S210      1.0  0.30443  0.84647  0.53143  1.0000
  Fe  Fe101     1.0  0.23625  0.86722  0.55048  1.0000
  S   S211      1.0  0.21646  0.84439  0.56239  1.0000
  Fe  Fe102     1.0  0.25828  0.90084  0.55977  1.0000
  S   S212      1.0  0.26728  0.92240  0.57859  1.0000
  S   S213      1.0  0.25187  0.86583  0.52137  1.0000
  S   S214      1.0  0.27579  0.90081  0.53135  1.0000
  C   C530      1.0  0.32404  0.84383  0.54588  1.0000
  H   H831      1.0  0.25952  0.78252  0.56426  1.0000
  N   N51       1.0  0.12269  0.82032  0.56874  1.0000
  H   H832      1.0  0.27957  0.81987  0.56027  1.0000
  C   C531      1.0  0.20210  0.83233  0.54885  1.0000
  S   S215      1.0  0.01288  0.75714  0.59499  1.0000
  C   C532      1.0  0.19978  0.83792  0.52975  1.0000
  H   H833      1.0  0.20654  0.85017  0.52297  1.0000
  Fe  Fe103     1.0  0.11761  0.75022  0.51326  1.0000
  C   C533      1.0  0.33036  0.68845  0.58584  1.0000
  C   C534      1.0  0.26568  0.95551  0.51589  1.0000
  H   H834      1.0  0.31733  0.87100  0.55807  1.0000
  H   H835      1.0  0.25468  0.81726  0.56878  1.0000
  C   C535      1.0  0.25295  0.94158  0.58928  1.0000
  C   C536      1.0  0.23281  0.94355  0.58986  1.0000
  C   C537      1.0  0.22208  0.95909  0.59856  1.0000
  C   C538      1.0  0.23138  0.97282  0.60663  1.0000
  C   C539      1.0  0.25151  0.97097  0.60579  1.0000
  C   C540      1.0  0.26221  0.95537  0.59725  1.0000
  H   H836      1.0  0.22551  0.93293  0.58392  1.0000
  H   H837      1.0  0.20650  0.96036  0.59923  1.0000
  H   H838      1.0  0.25884  0.98137  0.61201  1.0000
  H   H839      1.0  0.27778  0.95391  0.59692  1.0000
  H   H840      1.0  0.17527  0.99353  0.62066  1.0000
  H   H841      1.0  0.11680  0.83162  0.59620  1.0000
  C   C541      1.0  0.10263  0.81583  0.56792  1.0000
  H   H842      1.0  0.23376  0.80292  0.54871  1.0000
  C   C542      1.0  0.26962  0.78570  0.55149  1.0000
  C   C543      1.0  0.26479  0.81951  0.55581  1.0000
  C   C544      1.0  0.32722  0.85814  0.55745  1.0000
  H   H843      1.0  0.25403  0.97541  0.55822  1.0000
  H   H844      1.0  0.13143  0.81486  0.53953  1.0000
  C   C545      1.0  0.18851  0.82775  0.51942  1.0000
  H   H845      1.0  0.02276  0.98700  0.69502  1.0000
  H   H846      1.0  0.15919  0.67386  0.50889  1.0000
  N   N52       1.0  0.26419  0.80479  0.54223  1.0000
  S   S216      1.0  0.16504  0.79992  0.51447  1.0000
  C   C546      1.0  0.19321  0.81635  0.55740  1.0000
  H   H847      1.0  0.23989  0.81985  0.52939  1.0000
  H   H848      1.0  0.24716  0.93684  0.54561  1.0000
  C   C547      1.0  0.24445  0.80553  0.53629  1.0000
  H   H849      1.0  0.12238  0.83919  0.54324  1.0000
  C   C548      1.0  0.13096  0.82644  0.54945  1.0000
  H   H850      1.0  0.09329  0.82848  0.56262  1.0000
  H   H851      1.0  0.28441  0.78480  0.55625  1.0000
  H   H852      1.0  0.11421  0.84909  0.57642  1.0000
  H   H853      1.0  0.26042  0.83395  0.54929  1.0000
  H   H854      1.0  0.18915  0.99851  0.65034  1.0000
  H   H855      1.0  0.15271  0.98877  0.63365  1.0000
  N   N53       1.0  0.25240  0.96403  0.53117  1.0000
  H   H856      1.0  0.33474  0.81604  0.53644  1.0000
  C   C549      1.0  0.12288  0.83586  0.58151  1.0000
  H   H857      1.0  0.19506  0.81181  0.57213  1.0000
  H   H858      1.0  0.13317  0.69434  0.52563  1.0000
  S   S217      1.0  0.14979  0.74839  0.50723  1.0000
  C   C550      1.0  0.15605  0.67489  0.55594  1.0000
  C   C551      1.0  0.16112  0.00039  0.62665  1.0000
  H   H859      1.0  0.27578  0.96580  0.50914  1.0000
  C   C552      1.0  0.24114  0.98123  0.52321  1.0000
  H   H860      1.0  0.27452  0.94261  0.52148  1.0000
  H   H861      1.0  0.27759  0.79795  0.51461  1.0000
  H   H862      1.0  0.00750  0.75445  0.55546  1.0000
  H   H863      1.0  0.11622  0.67801  0.52170  1.0000
  H   H864      1.0  0.01164  0.67830  0.72330  1.0000
  C   C553      1.0  0.12324  0.69081  0.51536  1.0000
  H   H865      1.0  0.18662  0.83232  0.50471  1.0000
  H   H866      1.0  0.20162  0.67219  0.53418  1.0000
  C   C554      1.0  0.17461  0.00489  0.65581  1.0000
  H   H867      1.0  0.33613  0.76086  0.98966  1.0000
  S   S218      1.0  0.00613  0.99931  0.98310  1.0000
  H   H868      1.0  0.01434  0.94380  0.97094  1.0000
  H   H869      1.0  0.02736  0.70534  0.99428  1.0000
  H   H870      1.0  0.02034  0.95871  0.98845  1.0000
  H   H871      1.0  0.02859  0.91540  0.98959  1.0000
  N   N54       1.0  0.00486  0.93492  0.99985  1.0000
  C   C555      1.0  0.01480  0.71308  0.00122  1.0000
  H   H872      1.0  0.04023  0.00220  0.77276  1.0000
  C   C556      1.0  0.00906  0.94997  0.98468  1.0000
  H   H873      1.0  0.65904  0.08395  0.16392  1.0000
  H   H874      1.0  0.43946  0.32885  0.17241  1.0000
  H   H875      1.0  0.60869  0.11655  0.19070  1.0000
  H   H876      1.0  0.43357  0.18885  0.18985  1.0000
  S   S219      1.0  0.44478  0.16655  0.22353  1.0000
  C   C557      1.0  0.45349  0.18747  0.21138  1.0000
  H   H877      1.0  0.50626  0.23619  0.12993  1.0000
  C   C558      1.0  0.41756  0.06722  0.23726  1.0000
  H   H878      1.0  0.63610  0.32245  0.10560  1.0000
  C   C559      1.0  0.48880  0.20516  0.14504  1.0000
  H   H879      1.0  0.66410  0.30586  0.08682  1.0000
  N   N55       1.0  0.50973  0.20688  0.14130  1.0000
  S   S220      1.0  0.39186  0.04229  0.23003  1.0000
  H   H880      1.0  0.65255  0.17399  0.00961  1.0000
  H   H881      1.0  0.38531  0.13790  0.21112  1.0000
  C   C560      1.0  0.42729  0.07749  0.24897  1.0000
  Fe  Fe104     1.0  0.38102  0.01296  0.23799  1.0000
  H   H882      1.0  0.42012  0.06935  0.22195  1.0000
  S   S221      1.0  0.65497  0.01378  0.23465  1.0000
  H   H883      1.0  0.59979  0.17711  0.00453  1.0000
  C   C561      1.0  0.41809  0.12562  0.22676  1.0000
  C   C562      1.0  0.63307  0.28649  0.09688  1.0000
  S   S222      1.0  0.64758  0.25032  0.00630  1.0000
  H   H884      1.0  0.46132  0.28091  0.18879  1.0000
  C   C563      1.0  0.46835  0.19632  0.21783  1.0000
  H   H885      1.0  0.62255  0.12191  0.20939  1.0000
  S   S223      1.0  0.46913  0.11967  0.24751  1.0000
  H   H886      1.0  0.47495  0.19026  0.23043  1.0000
  H   H887      1.0  0.41871  0.11052  0.22302  1.0000
  C   C564      1.0  0.51965  0.18842  0.13548  1.0000
  C   C565      1.0  0.45117  0.26390  0.01696  1.0000
  S   S224      1.0  0.35670  0.22405  0.01014  1.0000
  C   C566      1.0  0.44508  0.19557  0.19495  1.0000
  S   S225      1.0  0.40482  0.22689  0.03591  1.0000
  C   C567      1.0  0.38365  0.12939  0.22503  1.0000
  H   H888      1.0  0.63790  0.27319  0.08952  1.0000
  Fe  Fe105     1.0  0.46799  0.30135  0.13763  1.0000
  H   H889      1.0  0.40121  0.16147  0.22713  1.0000
  Fe  Fe106     1.0  0.44336  0.27554  0.11934  1.0000
  S   S226      1.0  0.46403  0.24923  0.12380  1.0000
  S   S227      1.0  0.41636  0.27792  0.10335  1.0000
  Fe  Fe107     1.0  0.46646  0.25938  0.15277  1.0000
  S   S228      1.0  0.47418  0.24292  0.18058  1.0000
  S   S229      1.0  0.44359  0.28427  0.14948  1.0000
  S   S230      1.0  0.46620  0.29445  0.10736  1.0000
  H   H890      1.0  0.51121  0.29078  0.19676  1.0000
  H   H891      1.0  0.61800  0.28502  0.10313  1.0000
  H   H892      1.0  0.65558  0.31789  0.06546  1.0000
  S   S231      1.0  0.49096  0.27701  0.14230  1.0000
  H   H893      1.0  0.57795  0.11945  0.21247  1.0000
  H   H894      1.0  0.43819  0.26733  0.02699  1.0000
  C   C568      1.0  0.48183  0.31790  0.20400  1.0000
  N   N56       1.0  0.48046  0.29759  0.20086  1.0000
  C   C569      1.0  0.49802  0.29010  0.18939  1.0000
  H   H895      1.0  0.46536  0.29147  0.22823  1.0000
  C   C570      1.0  0.45132  0.21243  0.18519  1.0000
  H   H896      1.0  0.49728  0.27490  0.18641  1.0000
  C   C571      1.0  0.40924  0.24223  0.05330  1.0000
  C   C572      1.0  0.39949  0.26051  0.05459  1.0000
  C   C573      1.0  0.40201  0.27146  0.06982  1.0000
  C   C574      1.0  0.41489  0.26456  0.08344  1.0000
  C   C575      1.0  0.42537  0.24670  0.08152  1.0000
  C   C576      1.0  0.42238  0.23552  0.06665  1.0000
  H   H897      1.0  0.38972  0.26600  0.04412  1.0000
  H   H898      1.0  0.39397  0.28534  0.07112  1.0000
  H   H899      1.0  0.43528  0.24119  0.09189  1.0000
  H   H900      1.0  0.43008  0.22143  0.06571  1.0000
  H   H901      1.0  0.44456  0.21861  0.17273  1.0000
  C   C577      1.0  0.43605  0.01024  0.24041  1.0000
  N   N57       1.0  0.39930  0.13190  0.23689  1.0000
  H   H902      1.0  0.62231  0.31504  0.05751  1.0000
  H   H903      1.0  0.50715  0.21896  0.11258  1.0000
  H   H904      1.0  0.62864  0.10024  0.19757  1.0000
  H   H905      1.0  0.48377  0.32666  0.19025  1.0000
  H   H906      1.0  0.35168  0.26328  0.03545  1.0000
  H   H907      1.0  0.46494  0.30344  0.17612  1.0000
  H   H908      1.0  0.48246  0.20156  0.13213  1.0000
  Fe  Fe108     1.0  0.48699  0.26866  0.11328  1.0000
  H   H909      1.0  0.51421  0.18421  0.12232  1.0000
  H   H910      1.0  0.36926  0.13399  0.23225  1.0000
  C   C578      1.0  0.46340  0.29608  0.19058  1.0000
  H   H911      1.0  0.45782  0.24954  0.02195  1.0000
  H   H912      1.0  0.53548  0.18922  0.13248  1.0000
  C   C579      1.0  0.62718  0.32096  0.09374  1.0000
  H   H913      1.0  0.63437  0.18698  0.02432  1.0000
  C   C580      1.0  0.47857  0.28624  0.21932  1.0000
  C   C581      1.0  0.61398  0.09218  0.23354  1.0000
  H   H914      1.0  0.44994  0.30256  0.19822  1.0000
  C   C582      1.0  0.66650  0.06976  0.16307  1.0000
  H   H915      1.0  0.49120  0.28698  0.22752  1.0000
  C   C583      1.0  0.46598  0.22142  0.19186  1.0000
  H   H916      1.0  0.49989  0.29850  0.17540  1.0000
  C   C584      1.0  0.54930  0.08420  0.24986  1.0000
  H   H917      1.0  0.36743  0.24201  0.07095  1.0000
  C   C585      1.0  0.35569  0.23653  0.06405  1.0000
  C   C586      1.0  0.58697  0.11377  0.22412  1.0000
  H   H918      1.0  0.48589  0.22000  0.21342  1.0000
  C   C587      1.0  0.47452  0.21321  0.20814  1.0000
  C   C588      1.0  0.51314  0.22196  0.12591  1.0000
  Fe  Fe109     1.0  0.64230  0.04338  0.22615  1.0000
  H   H919      1.0  0.65233  0.15802  0.08018  1.0000
  S   S232      1.0  0.64937  0.06275  0.19934  1.0000
  C   C589      1.0  0.66100  0.17849  0.05740  1.0000
  N   N58       1.0  0.63411  0.30371  0.08356  1.0000
  C   C590      1.0  0.62188  0.30237  0.06797  1.0000
  H   H920      1.0  0.35672  0.27474  0.05592  1.0000
  H   H921      1.0  0.43016  0.12669  0.23560  1.0000
  H   H922      1.0  0.60360  0.20031  0.01142  1.0000
  Fe  Fe110     1.0  0.38596  0.23412  0.01140  1.0000
  C   C591      1.0  0.66195  0.16036  0.06746  1.0000
  H   H923      1.0  0.62693  0.28965  0.05995  1.0000
  N   N59       1.0  0.60325  0.10017  0.21731  1.0000
  C   C592      1.0  0.51732  0.21199  0.15877  1.0000
  H   H924      1.0  0.58787  0.08986  0.19596  1.0000
  C   C593      1.0  0.59583  0.08445  0.20845  1.0000
  S   S233      1.0  0.61157  0.03643  0.23368  1.0000
  H   H925      1.0  0.60778  0.07378  0.20346  1.0000
  C   C594      1.0  0.61632  0.11023  0.20311  1.0000
  H   H926      1.0  0.59211  0.12611  0.23034  1.0000
  H   H927      1.0  0.64225  0.28685  0.10875  1.0000
  Fe  Fe111     1.0  0.61570  0.24819  0.01231  1.0000
  C   C595      1.0  0.63667  0.17727  0.01249  1.0000
  C   C596      1.0  0.40456  0.05417  0.24522  1.0000
  H   H928      1.0  0.43744  0.08733  0.24276  1.0000
  Fe  Fe112     1.0  0.62452  0.00738  0.24453  1.0000
  H   H929      1.0  0.48092  0.21879  0.14960  1.0000
  H   H930      1.0  0.52880  0.22345  0.12232  1.0000
  H   H931      1.0  0.36212  0.23184  0.04998  1.0000
  H   H932      1.0  0.58581  0.07662  0.21866  1.0000
  H   H933      1.0  0.65985  0.29235  0.06746  1.0000
  H   H934      1.0  0.51035  0.22604  0.16328  1.0000
  H   H935      1.0  0.53314  0.21310  0.15658  1.0000
  H   H936      1.0  0.54461  0.08201  0.23617  1.0000
  H   H937      1.0  0.46160  0.27449  0.01833  1.0000
  C   C597      1.0  0.65430  0.30502  0.07555  1.0000
  H   H938      1.0  0.48565  0.19395  0.15663  1.0000
  H   H939      1.0  0.41056  0.15468  0.24944  1.0000
  C   C598      1.0  0.66431  0.05614  0.17862  1.0000
  H   H940      1.0  0.51739  0.17671  0.14679  1.0000
  Fe  Fe113     1.0  0.64382  0.27355  0.02688  1.0000
  S   S234      1.0  0.65414  0.30349  0.02370  1.0000
  Fe  Fe114     1.0  0.61689  0.25195  0.05499  1.0000
  S   S235      1.0  0.61856  0.22660  0.03746  1.0000
  S   S236      1.0  0.60044  0.25660  0.08376  1.0000
  Fe  Fe115     1.0  0.65026  0.22964  0.03223  1.0000
  S   S237      1.0  0.64915  0.25313  0.05225  1.0000
  S   S238      1.0  0.61140  0.27325  0.03045  1.0000
  C   C599      1.0  0.53434  0.25790  0.08878  1.0000
  C   C600      1.0  0.54375  0.26286  0.10394  1.0000
  C   C601      1.0  0.56404  0.26241  0.10229  1.0000
  C   C602      1.0  0.57499  0.25723  0.08543  1.0000
  C   C603      1.0  0.56554  0.25244  0.07026  1.0000
  C   C604      1.0  0.54533  0.25264  0.07201  1.0000
  H   H941      1.0  0.53542  0.26694  0.11692  1.0000
  H   H942      1.0  0.57127  0.26614  0.11408  1.0000
  H   H943      1.0  0.57379  0.24844  0.05721  1.0000
  H   H944      1.0  0.53816  0.24876  0.06022  1.0000
  S   S239      1.0  0.50904  0.25718  0.09029  1.0000
  H   H945      1.0  0.51451  0.20121  0.17086  1.0000
  H   H946      1.0  0.38494  0.15768  0.24817  1.0000
  H   H947      1.0  0.62778  0.33418  0.08402  1.0000
  H   H948      1.0  0.47750  0.27085  0.21727  1.0000
  C   C605      1.0  0.34552  0.26776  0.04967  1.0000
  H   H949      1.0  0.41886  0.25301  0.00571  1.0000
  H   H950      1.0  0.33812  0.09675  0.02269  1.0000
  S   S240      1.0  0.47402  0.33104  0.14527  1.0000
  H   H951      1.0  0.60481  0.08384  0.24421  1.0000
  H   H952      1.0  0.57734  0.10682  0.23547  1.0000
  H   H953      1.0  0.42105  0.13468  0.21336  1.0000
  C   C606      1.0  0.39888  0.15232  0.24058  1.0000
  H   H954      1.0  0.38363  0.11410  0.22201  1.0000
  H   H955      1.0  0.60657  0.30089  0.07340  1.0000
  H   H956      1.0  0.61195  0.32040  0.09987  1.0000
  H   H957      1.0  0.42266  0.01777  0.24703  1.0000
  S   S241      1.0  0.52179  0.11493  0.25037  1.0000
  N   N60       1.0  0.33918  0.25126  0.06207  1.0000
  H   H958      1.0  0.49428  0.31959  0.21212  1.0000
  H   H959      1.0  0.65069  0.18996  0.06236  1.0000
  Fe  Fe116     1.0  0.45806  0.15065  0.24932  1.0000
  H   H960      1.0  0.44161  0.01984  0.22831  1.0000
  H   H961      1.0  0.63049  0.16369  0.01777  1.0000
  H   H962      1.0  0.62671  0.08237  0.22879  1.0000
  H   H963      1.0  0.46852  0.32432  0.21199  1.0000
  H   H964      1.0  0.57308  0.06195  0.24788  1.0000
  H   H965      1.0  0.61931  0.10358  0.24104  1.0000
  H   H966      1.0  0.34320  0.26391  0.08782  1.0000
  H   H967      1.0  0.35134  0.22357  0.07277  1.0000
  H   H968      1.0  0.46258  0.03214  0.24937  1.0000
  S   S242      1.0  0.35033  0.00516  0.24332  1.0000
  S   S243      1.0  0.48247  0.15794  0.26482  1.0000
  Fe  Fe117     1.0  0.45233  0.11394  0.27554  1.0000
  S   S244      1.0  0.47646  0.11860  0.29306  1.0000
  S   S245      1.0  0.43354  0.08949  0.28403  1.0000
  Fe  Fe118     1.0  0.46431  0.14973  0.29207  1.0000
  S   S246      1.0  0.45371  0.17033  0.31541  1.0000
  Fe  Fe119     1.0  0.49269  0.12632  0.26469  1.0000
  S   S247      1.0  0.43925  0.14434  0.27622  1.0000
  H   H969      1.0  0.43402  0.19196  0.37924  1.0000
  C   C607      1.0  0.45610  0.02284  0.26125  1.0000
  C   C608      1.0  0.54549  0.10122  0.27849  1.0000
  C   C609      1.0  0.35953  0.17241  0.47370  1.0000
  C   C610      1.0  0.37025  0.18454  0.46095  1.0000
  C   C611      1.0  0.36279  0.19147  0.44384  1.0000
  H   H970      1.0  0.46888  0.29564  0.49109  1.0000
  H   H971      1.0  0.44209  0.15578  0.43452  1.0000
  C   C612      1.0  0.45653  0.17054  0.34010  1.0000
  C   C613      1.0  0.47272  0.16143  0.34837  1.0000
  C   C614      1.0  0.47525  0.16387  0.36754  1.0000
  C   C615      1.0  0.46160  0.17528  0.37873  1.0000
  C   C616      1.0  0.44498  0.18366  0.37072  1.0000
  C   C617      1.0  0.44264  0.18155  0.35147  1.0000
  H   H972      1.0  0.48357  0.15297  0.33982  1.0000
  H   H973      1.0  0.48811  0.15715  0.37358  1.0000
  C   C618      1.0  0.42358  0.07527  0.26874  1.0000
  C   C619      1.0  0.41096  0.06188  0.27669  1.0000
  H   H974      1.0  0.40811  0.05998  0.29199  1.0000
  H   H975      1.0  0.65898  0.09133  0.40573  1.0000
  S   S248      1.0  0.44627  0.19245  0.45402  1.0000
  N   N61       1.0  0.41502  0.14816  0.42692  1.0000
  C   C620      1.0  0.42421  0.13543  0.41231  1.0000
  C   C621      1.0  0.40976  0.16732  0.41775  1.0000
  C   C622      1.0  0.42871  0.14972  0.44119  1.0000
  C   C623      1.0  0.39745  0.14031  0.43642  1.0000
  H   H976      1.0  0.43750  0.14112  0.40491  1.0000
  H   H977      1.0  0.41431  0.13399  0.40124  1.0000
  H   H978      1.0  0.40293  0.17732  0.42841  1.0000
  H   H979      1.0  0.42271  0.17360  0.41044  1.0000
  H   H980      1.0  0.39933  0.16678  0.40698  1.0000
  H   H981      1.0  0.42219  0.15922  0.45245  1.0000
  H   H982      1.0  0.43309  0.13553  0.44838  1.0000
  H   H983      1.0  0.39038  0.14959  0.44765  1.0000
  H   H984      1.0  0.40081  0.12578  0.44341  1.0000
  H   H985      1.0  0.38659  0.13926  0.42617  1.0000
  Fe  Fe120     1.0  0.45123  0.20089  0.42262  1.0000
  S   S249      1.0  0.46634  0.17928  0.40227  1.0000
  H   H986      1.0  0.39168  0.04121  0.27132  1.0000
  H   H987      1.0  0.37080  0.20086  0.43391  1.0000
  H   H988      1.0  0.66361  0.04041  0.30527  1.0000
  H   H989      1.0  0.42847  0.12083  0.41869  1.0000
  H   H990      1.0  0.42999  0.18855  0.34526  1.0000
  H   H991      1.0  0.47732  0.27237  0.48332  1.0000
  S   S250      1.0  0.39302  0.19009  0.46699  1.0000
  C   C624      1.0  0.40163  0.05122  0.26501  1.0000
  H   H992      1.0  0.40875  0.12097  0.26408  1.0000
  H   H993      1.0  0.53809  0.11234  0.28694  1.0000
  C   C625      1.0  0.43999  0.28040  0.47728  1.0000
  H   H994      1.0  0.44365  0.26518  0.48237  1.0000
  H   H995      1.0  0.56702  0.09287  0.29819  1.0000
  C   C626      1.0  0.56197  0.09026  0.28477  1.0000
  H   H996      1.0  0.42755  0.28077  0.46858  1.0000
  C   C627      1.0  0.47288  0.28744  0.47827  1.0000
  Fe  Fe121     1.0  0.43248  0.24141  0.42753  1.0000
  S   S251      1.0  0.46307  0.22823  0.42830  1.0000
  S   S252      1.0  0.43060  0.26925  0.40884  1.0000
  H   H997      1.0  0.50020  0.19799  0.48429  1.0000
  H   H998      1.0  0.45068  0.27736  0.44027  1.0000
  S   S253      1.0  0.42508  0.23559  0.45890  1.0000
  H   H999      1.0  0.46713  0.26203  0.45381  1.0000
  H   H1000     1.0  0.46885  0.25672  0.38386  1.0000
  H   H1001     1.0  0.43881  0.24293  0.38019  1.0000
  C   C628      1.0  0.40411  0.32790  0.42823  1.0000
  C   C629      1.0  0.41550  0.32646  0.41094  1.0000
  C   C630      1.0  0.42341  0.30839  0.40518  1.0000
  C   C631      1.0  0.42010  0.29161  0.41665  1.0000
  C   C632      1.0  0.40872  0.29302  0.43395  1.0000
  C   C633      1.0  0.40077  0.31110  0.43970  1.0000
  S   S254      1.0  0.47162  0.23205  0.48278  1.0000
  H   H1002     1.0  0.43214  0.30747  0.39174  1.0000
  H   H1003     1.0  0.40578  0.28017  0.44274  1.0000
  H   H1004     1.0  0.39187  0.31206  0.45304  1.0000
  C   C634      1.0  0.45122  0.30861  0.45974  1.0000
  H   H1005     1.0  0.38307  0.12522  0.26365  1.0000
  H   H1006     1.0  0.44344  0.03150  0.26809  1.0000
  Fe  Fe122     1.0  0.45543  0.22110  0.45956  1.0000
  H   H1007     1.0  0.44626  0.31746  0.47194  1.0000
  H   H1008     1.0  0.47503  0.28306  0.44059  1.0000
  H   H1009     1.0  0.45076  0.21966  0.38579  1.0000
  H   H1010     1.0  0.45254  0.26387  0.35387  1.0000
  Fe  Fe123     1.0  0.61529  0.04529  0.26277  1.0000
  H   H1011     1.0  0.48578  0.29328  0.47037  1.0000
  C   C635      1.0  0.47698  0.21947  0.35544  1.0000
  C   C636      1.0  0.46267  0.27726  0.44947  1.0000
  C   C637      1.0  0.46109  0.25100  0.34812  1.0000
  N   N62       1.0  0.46578  0.23636  0.36357  1.0000
  C   C638      1.0  0.47722  0.24442  0.37689  1.0000
  H   H1012     1.0  0.46865  0.21277  0.34558  1.0000
  H   H1013     1.0  0.36515  0.16694  0.48698  1.0000
  H   H1014     1.0  0.48144  0.23350  0.38839  1.0000
  H   H1015     1.0  0.49065  0.22329  0.34734  1.0000
  H   H1016     1.0  0.66806  0.05639  0.40394  1.0000
  S   S255      1.0  0.42119  0.21447  0.41970  1.0000
  H   H1017     1.0  0.49072  0.24952  0.36950  1.0000
  N   N63       1.0  0.45669  0.28844  0.46619  1.0000
  C   C639      1.0  0.44771  0.23056  0.37393  1.0000
  S   S256      1.0  0.59419  0.06456  0.28095  1.0000
  H   H1018     1.0  0.48087  0.20822  0.36679  1.0000
  H   H1019     1.0  0.47438  0.25578  0.33999  1.0000
  C   C640      1.0  0.50286  0.20729  0.49496  1.0000
  H   H1020     1.0  0.46354  0.31522  0.45152  1.0000
  H   H1021     1.0  0.45240  0.24532  0.33787  1.0000
  C   C641      1.0  0.34472  0.18646  0.43969  1.0000
  C   C642      1.0  0.53933  0.09853  0.26080  1.0000
  H   H1022     1.0  0.43868  0.22438  0.36436  1.0000
  C   C643      1.0  0.34149  0.16737  0.46953  1.0000
  Fe  Fe124     1.0  0.41643  0.20730  0.45126  1.0000
  S   S257      1.0  0.62589  0.01568  0.27426  1.0000
  Fe  Fe125     1.0  0.65559  0.02381  0.26401  1.0000
  C   C644      1.0  0.57233  0.07641  0.27353  1.0000
  H   H1023     1.0  0.66640  0.09513  0.38079  1.0000
  C   C645      1.0  0.49105  0.22442  0.49720  1.0000
  H   H1024     1.0  0.43928  0.30981  0.45030  1.0000
  H   H1025     1.0  0.43506  0.28846  0.49002  1.0000
  H   H1026     1.0  0.33901  0.19203  0.42649  1.0000
  C   C646      1.0  0.56558  0.07302  0.25631  1.0000
  C   C647      1.0  0.39663  0.12029  0.25515  1.0000
  S   S258      1.0  0.64527  0.05410  0.25481  1.0000
  H   H1027     1.0  0.39597  0.10493  0.25288  1.0000
  H   H1028     1.0  0.46686  0.01960  0.27192  1.0000
  N   N64       1.0  0.45038  0.00515  0.25441  1.0000
  H   H1029     1.0  0.44428  0.10130  0.71591  1.0000
  C   C648      1.0  0.44161  0.10326  0.73096  1.0000
  C   C649      1.0  0.51080  0.14134  0.68477  1.0000
  S   S259      1.0  0.47179  0.12587  0.72554  1.0000
  H   H1030     1.0  0.49304  0.13306  0.64361  1.0000
  H   H1031     1.0  0.62275  0.28036  0.58187  1.0000
  C   C650      1.0  0.63955  0.23624  0.60003  1.0000
  C   C651      1.0  0.50262  0.13063  0.65538  1.0000
  C   C652      1.0  0.59865  0.16025  0.55442  1.0000
  H   H1032     1.0  0.51780  0.13083  0.64896  1.0000
  H   H1033     1.0  0.50100  0.11599  0.66218  1.0000
  H   H1034     1.0  0.66342  0.26382  0.59044  1.0000
  H   H1035     1.0  0.52627  0.14123  0.67922  1.0000
  H   H1036     1.0  0.50877  0.12725  0.69266  1.0000
  H   H1037     1.0  0.62664  0.25696  0.55752  1.0000
  H   H1038     1.0  0.61434  0.16089  0.55022  1.0000
  C   C653      1.0  0.51021  0.23114  0.52283  1.0000
  H   H1039     1.0  0.63049  0.27374  0.60515  1.0000
  H   H1040     1.0  0.61008  0.26385  0.59767  1.0000
  Fe  Fe126     1.0  0.53511  0.15091  0.72721  1.0000
  S   S260      1.0  0.55477  0.15882  0.70080  1.0000
  H   H1041     1.0  0.57173  0.22941  0.73646  1.0000
  S   S261      1.0  0.52498  0.12149  0.73117  1.0000
  H   H1042     1.0  0.52131  0.22467  0.72710  1.0000
  N   N65       1.0  0.49786  0.14527  0.66936  1.0000
  Fe  Fe127     1.0  0.49593  0.13641  0.73980  1.0000
  H   H1043     1.0  0.65552  0.17356  0.59050  1.0000
  H   H1044     1.0  0.52195  0.18764  0.69571  1.0000
  H   H1045     1.0  0.60442  0.18555  0.52406  1.0000
  S   S262      1.0  0.61970  0.19591  0.58520  1.0000
  H   H1046     1.0  0.56620  0.18922  0.63631  1.0000
  C   C654      1.0  0.47762  0.14466  0.67747  1.0000
  H   H1047     1.0  0.60992  0.15123  0.51861  1.0000
  S   S263      1.0  0.54189  0.20685  0.53459  1.0000
  C   C655      1.0  0.65466  0.17622  0.57534  1.0000
  C   C656      1.0  0.45302  0.11484  0.73948  1.0000
  H   H1048     1.0  0.61481  0.23998  0.57352  1.0000
  C   C657      1.0  0.58919  0.18346  0.52920  1.0000
  H   H1049     1.0  0.52725  0.18895  0.50456  1.0000
  C   C658      1.0  0.55654  0.18896  0.64922  1.0000
  C   C659      1.0  0.54855  0.17543  0.68167  1.0000
  C   C660      1.0  0.53162  0.18790  0.68283  1.0000
  H   H1050     1.0  0.41800  0.08529  0.73516  1.0000
  S   S264      1.0  0.56265  0.19886  0.58360  1.0000
  H   H1051     1.0  0.50797  0.15239  0.69530  1.0000
  H   H1052     1.0  0.57421  0.16663  0.66386  1.0000
  H   H1053     1.0  0.65141  0.18479  0.52107  1.0000
  H   H1054     1.0  0.65555  0.27036  0.56721  1.0000
  H   H1055     1.0  0.55056  0.20621  0.71170  1.0000
  H   H1056     1.0  0.56455  0.14704  0.55020  1.0000
  H   H1057     1.0  0.47382  0.15492  0.68875  1.0000
  C   C661      1.0  0.49488  0.23626  0.51123  1.0000
  C   C662      1.0  0.63847  0.18718  0.56855  1.0000
  C   C663      1.0  0.65235  0.18240  0.53625  1.0000
  H   H1058     1.0  0.49127  0.16777  0.64782  1.0000
  H   H1059     1.0  0.51835  0.20415  0.74342  1.0000
  H   H1060     1.0  0.48585  0.24948  0.51327  1.0000
  N   N66       1.0  0.58725  0.16383  0.53776  1.0000
  H   H1061     1.0  0.59431  0.17108  0.56505  1.0000
  C   C664      1.0  0.62903  0.24528  0.56887  1.0000
  C   C665      1.0  0.53955  0.20132  0.65030  1.0000
  C   C666      1.0  0.56102  0.17613  0.66486  1.0000
  H   H1062     1.0  0.58027  0.18690  0.51695  1.0000
  C   C667      1.0  0.51825  0.20220  0.50652  1.0000
  C   C668      1.0  0.52721  0.20082  0.66724  1.0000
  C   C669      1.0  0.63756  0.19061  0.54894  1.0000
  H   H1063     1.0  0.49654  0.17585  0.66991  1.0000
  H   H1064     1.0  0.47501  0.13021  0.68426  1.0000
  H   H1065     1.0  0.63833  0.23320  0.56250  1.0000
  H   H1066     1.0  0.59925  0.07142  0.74342  1.0000
  H   H1067     1.0  0.56083  0.17196  0.55459  1.0000
  H   H1068     1.0  0.34116  0.03920  0.64423  1.0000
  H   H1069     1.0  0.56986  0.19677  0.72575  1.0000
  H   H1070     1.0  0.58614  0.15228  0.51079  1.0000
  C   C670      1.0  0.50045  0.16443  0.65985  1.0000
  H   H1071     1.0  0.46733  0.14824  0.66642  1.0000
  H   H1072     1.0  0.62540  0.19940  0.54357  1.0000
  H   H1073     1.0  0.64606  0.24071  0.61246  1.0000
  H   H1074     1.0  0.55243  0.23865  0.72234  1.0000
  H   H1075     1.0  0.59324  0.13496  0.52952  1.0000
  S   S265      1.0  0.50574  0.16589  0.73378  1.0000
  H   H1076     1.0  0.51571  0.16558  0.65402  1.0000
  Fe  Fe128     1.0  0.57060  0.25288  0.57665  1.0000
  S   S266      1.0  0.54082  0.24257  0.57913  1.0000
  S   S267      1.0  0.57916  0.28330  0.56966  1.0000
  Fe  Fe129     1.0  0.55357  0.21993  0.55947  1.0000
  Fe  Fe130     1.0  0.55174  0.22207  0.60297  1.0000
  S   S268      1.0  0.58262  0.23172  0.55514  1.0000
  S   S269      1.0  0.58036  0.23414  0.60168  1.0000
  H   H1077     1.0  0.51408  0.21041  0.66821  1.0000
  C   C671      1.0  0.56671  0.16170  0.54383  1.0000
  C   C672      1.0  0.52207  0.21406  0.52055  1.0000
  C   C673      1.0  0.55575  0.23183  0.73654  1.0000
  C   C674      1.0  0.59451  0.32616  0.61041  1.0000
  C   C675      1.0  0.58717  0.30891  0.61768  1.0000
  C   C676      1.0  0.58208  0.29580  0.60546  1.0000
  C   C677      1.0  0.58439  0.29975  0.58575  1.0000
  C   C678      1.0  0.59168  0.31702  0.57845  1.0000
  H   H1078     1.0  0.54733  0.18652  0.72900  1.0000
  H   H1079     1.0  0.58536  0.30568  0.63292  1.0000
  H   H1080     1.0  0.57643  0.28262  0.61131  1.0000
  H   H1081     1.0  0.59365  0.32016  0.56322  1.0000
  C   C679      1.0  0.52554  0.21761  0.74090  1.0000
  N   N67       1.0  0.63751  0.25206  0.58508  1.0000
  C   C680      1.0  0.59445  0.14994  0.52353  1.0000
  C   C681      1.0  0.55395  0.20028  0.72618  1.0000
  H   H1082     1.0  0.64872  0.22361  0.59454  1.0000
  S   S270      1.0  0.53279  0.21710  0.63075  1.0000
  Fe  Fe131     1.0  0.59063  0.21237  0.58041  1.0000
  N   N68       1.0  0.54672  0.21373  0.74082  1.0000
  C   C682      1.0  0.62472  0.26820  0.59281  1.0000
  H   H1083     1.0  0.50217  0.07152  0.73911  1.0000
  H   H1084     1.0  0.51285  0.24043  0.53353  1.0000
  S   S271      1.0  0.38283  0.05293  0.73871  1.0000
  C   C683      1.0  0.65665  0.25849  0.57857  1.0000
  C   C684      1.0  0.42673  0.09415  0.74183  1.0000
  C   C685      1.0  0.59677  0.33014  0.59069  1.0000
  H   H1085     1.0  0.55761  0.16475  0.53168  1.0000
  H   H1086     1.0  0.58413  0.19427  0.53964  1.0000
  H   H1087     1.0  0.62529  0.23116  0.60533  1.0000
  C   C686      1.0  0.66962  0.16833  0.56266  1.0000
  C   C687      1.0  0.66842  0.17116  0.54304  1.0000
  H   H1088     1.0  0.33842  0.05371  0.61117  1.0000
  H   H1089     1.0  0.48933  0.09329  0.74699  1.0000
  H   H1090     1.0  0.55050  0.24231  0.74731  1.0000
  H   H1091     1.0  0.57123  0.09528  0.75050  1.0000
  H   H1092     1.0  0.59685  0.14591  0.56178  1.0000
  H   H1093     1.0  0.66665  0.24661  0.57267  1.0000
  Fe  Fe132     1.0  0.35067  0.05459  0.74650  1.0000
  C   C688      1.0  0.49913  0.08060  0.75139  1.0000
  Fe  Fe133     1.0  0.35513  0.04000  0.78774  1.0000
  S   S272      1.0  0.35287  0.06939  0.77321  1.0000
  H   H1094     1.0  0.34806  0.12683  0.91866  1.0000
  H   H1095     1.0  0.47052  0.24481  0.98820  1.0000
  Fe  Fe134     1.0  0.38511  0.06481  0.76681  1.0000
  S   S273      1.0  0.40451  0.08584  0.77570  1.0000
  S   S274      1.0  0.38754  0.03607  0.78320  1.0000
  S   S275      1.0  0.35131  0.02518  0.76142  1.0000
  C   C689      1.0  0.43445  0.10835  0.76973  1.0000
  C   C690      1.0  0.37794  0.00762  0.83313  1.0000
  H   H1096     1.0  0.54635  0.21488  0.77114  1.0000
  H   H1097     1.0  0.37880  0.01994  0.82231  1.0000
  H   H1098     1.0  0.59300  0.28685  0.86818  1.0000
  C   C691      1.0  0.50451  0.05373  0.77419  1.0000
  H   H1099     1.0  0.65246  0.20175  0.98598  1.0000
  N   N69       1.0  0.49061  0.06992  0.76844  1.0000
  H   H1100     1.0  0.59983  0.19742  0.98731  1.0000
  S   S276      1.0  0.54359  0.15005  0.75730  1.0000
  C   C692      1.0  0.34977  0.15314  0.96267  1.0000
  H   H1101     1.0  0.57124  0.33414  0.88406  1.0000
  H   H1102     1.0  0.36461  0.14703  0.96076  1.0000
  H   H1103     1.0  0.62531  0.15918  0.98419  1.0000
  H   H1104     1.0  0.43158  0.11055  0.78473  1.0000
  H   H1105     1.0  0.33812  0.12719  0.95669  1.0000
  H   H1106     1.0  0.43297  0.28386  0.97629  1.0000
  H   H1107     1.0  0.57226  0.31133  0.84898  1.0000
  S   S277      1.0  0.36543  0.18576  0.97011  1.0000
  N   N70       1.0  0.62790  0.18617  0.99536  1.0000
  C   C693      1.0  0.58827  0.06809  0.75471  1.0000
  H   H1108     1.0  0.66014  0.03138  0.93052  1.0000
  H   H1109     1.0  0.48191  0.18298  0.89761  1.0000
  C   C694      1.0  0.34093  0.14192  0.88324  1.0000
  C   C695      1.0  0.42303  0.09676  0.76127  1.0000
  H   H1110     1.0  0.48924  0.23191  0.87748  1.0000
  H   H1111     1.0  0.62511  0.17931  0.96684  1.0000
  H   H1112     1.0  0.61013  0.29462  0.88216  1.0000
  H   H1113     1.0  0.34844  0.06991  0.82124  1.0000
  H   H1114     1.0  0.63023  0.21142  0.97624  1.0000
  H   H1115     1.0  0.51114  0.21199  0.89898  1.0000
  C   C696      1.0  0.57240  0.08163  0.75869  1.0000
  C   C697      1.0  0.63653  0.20418  0.98911  1.0000
  H   H1116     1.0  0.61461  0.29578  0.85661  1.0000
  H   H1117     1.0  0.46668  0.19762  0.88198  1.0000
  S   S278      1.0  0.35725  0.24460  0.96645  1.0000
  C   C698      1.0  0.63157  0.17296  0.97995  1.0000
  C   C699      1.0  0.51369  0.20127  0.88805  1.0000
  Fe  Fe135     1.0  0.38683  0.25263  0.97106  1.0000
  S   S279      1.0  0.40539  0.27191  0.95142  1.0000
  H   H1118     1.0  0.46008  0.25956  0.96928  1.0000
  H   H1119     1.0  0.50356  0.17247  0.86952  1.0000
  C   C700      1.0  0.49318  0.22076  0.86714  1.0000
  H   H1120     1.0  0.48119  0.22136  0.85784  1.0000
  S   S280      1.0  0.48941  0.24486  0.91447  1.0000
  H   H1121     1.0  0.50620  0.22488  0.85809  1.0000
  C   C701      1.0  0.50088  0.18716  0.86267  1.0000
  C   C702      1.0  0.42847  0.26411  0.94065  1.0000
  C   C703      1.0  0.43595  0.24492  0.94238  1.0000
  C   C704      1.0  0.45464  0.23935  0.93424  1.0000
  C   C705      1.0  0.46596  0.25283  0.92414  1.0000
  C   C706      1.0  0.45848  0.27201  0.92230  1.0000
  C   C707      1.0  0.43980  0.27762  0.93057  1.0000
  H   H1122     1.0  0.42731  0.23435  0.94992  1.0000
  H   H1123     1.0  0.46032  0.22448  0.93573  1.0000
  H   H1124     1.0  0.46707  0.28252  0.91455  1.0000
  H   H1125     1.0  0.43409  0.29249  0.92913  1.0000
  H   H1126     1.0  0.48867  0.18726  0.85370  1.0000
  H   H1127     1.0  0.51391  0.19001  0.85289  1.0000
  Fe  Fe136     1.0  0.38355  0.02424  0.75552  1.0000
  H   H1128     1.0  0.42354  0.28719  0.00036  1.0000
  H   H1129     1.0  0.51471  0.23760  0.82475  1.0000
  N   N71       1.0  0.49685  0.20160  0.87694  1.0000
  H   H1130     1.0  0.58475  0.31574  0.89759  1.0000
  Fe  Fe137     1.0  0.36680  0.21564  0.98058  1.0000
  H   H1131     1.0  0.51700  0.18701  0.89557  1.0000
  H   H1132     1.0  0.43834  0.23509  0.00065  1.0000
  H   H1133     1.0  0.49781  0.22438  0.80027  1.0000
  S   S281      1.0  0.39700  0.22333  0.98298  1.0000
  C   C708      1.0  0.47969  0.19732  0.88988  1.0000
  H   H1134     1.0  0.49950  0.08852  0.78786  1.0000
  H   H1135     1.0  0.52686  0.20472  0.87875  1.0000
  H   H1136     1.0  0.54486  0.19156  0.76344  1.0000
  N   N72       1.0  0.44602  0.26410  0.99718  1.0000
  H   H1137     1.0  0.35617  0.14251  0.88622  1.0000
  C   C709      1.0  0.60687  0.19034  0.99985  1.0000
  C   C710      1.0  0.51038  0.21628  0.80565  1.0000
  S   S282      1.0  0.51085  0.26544  0.86358  1.0000
  H   H1138     1.0  0.47640  0.20808  0.90078  1.0000
  N   N73       1.0  0.59320  0.31739  0.86748  1.0000
  C   C711      1.0  0.51703  0.19846  0.79855  1.0000
  H   H1139     1.0  0.51823  0.05888  0.77762  1.0000
  C   C712      1.0  0.53337  0.18819  0.80552  1.0000
  Fe  Fe138     1.0  0.53054  0.12181  0.76172  1.0000
  S   S283      1.0  0.53883  0.09464  0.77989  1.0000
  H   H1140     1.0  0.56700  0.30949  0.88329  1.0000
  C   C713      1.0  0.44939  0.11732  0.75892  1.0000
  H   H1141     1.0  0.56745  0.20182  0.76018  1.0000
  H   H1142     1.0  0.54965  0.05677  0.79590  1.0000
  C   C714      1.0  0.59014  0.05034  0.76532  1.0000
  H   H1143     1.0  0.64733  0.16963  0.97619  1.0000
  S   S284      1.0  0.61096  0.03432  0.76043  1.0000
  C   C715      1.0  0.60324  0.29785  0.86858  1.0000
  H   H1144     1.0  0.46195  0.07456  0.75939  1.0000
  C   C716      1.0  0.55846  0.07767  0.77363  1.0000
  S   S285      1.0  0.53942  0.24244  0.89390  1.0000
  H   H1145     1.0  0.55545  0.18759  0.82486  1.0000
  H   H1146     1.0  0.53865  0.17445  0.80023  1.0000
  H   H1147     1.0  0.47970  0.07523  0.79720  1.0000
  H   H1148     1.0  0.38898  0.00866  0.84316  1.0000
  C   C717      1.0  0.56026  0.05988  0.78420  1.0000
  Fe  Fe139     1.0  0.51331  0.16333  0.76424  1.0000
  C   C718      1.0  0.57593  0.04618  0.77996  1.0000
  C   C719      1.0  0.58392  0.32087  0.84947  1.0000
  H   H1149     1.0  0.61869  0.33048  0.85603  1.0000
  H   H1150     1.0  0.57731  0.03264  0.78831  1.0000
  Fe  Fe140     1.0  0.34888  0.25355  0.99627  1.0000
  H   H1151     1.0  0.49863  0.04530  0.78702  1.0000
  H   H1152     1.0  0.47439  0.26975  0.98477  1.0000
  C   C720      1.0  0.34579  0.17221  0.96766  1.0000
  Fe  Fe141     1.0  0.51130  0.26124  0.89543  1.0000
  S   S286      1.0  0.50472  0.18996  0.78067  1.0000
  C   C721      1.0  0.54288  0.19570  0.81948  1.0000
  C   C722      1.0  0.47260  0.06265  0.76403  1.0000
  C   C723      1.0  0.55161  0.20515  0.75969  1.0000
  S   S287      1.0  0.59529  0.23941  0.99221  1.0000
  S   S288      1.0  0.50064  0.13511  0.77072  1.0000
  H   H1153     1.0  0.47599  0.09527  0.78021  1.0000
  H   H1154     1.0  0.51299  0.08586  0.75409  1.0000
  Fe  Fe142     1.0  0.52785  0.29075  0.86560  1.0000
  S   S289      1.0  0.55643  0.27319  0.86197  1.0000
  S   S290      1.0  0.52406  0.31736  0.84520  1.0000
  Fe  Fe143     1.0  0.53942  0.24778  0.86220  1.0000
  S   S291      1.0  0.54826  0.22177  0.84483  1.0000
  Fe  Fe144     1.0  0.55363  0.26942  0.89396  1.0000
  S   S292      1.0  0.57980  0.27484  0.90876  1.0000
  S   S293      1.0  0.52567  0.28823  0.89771  1.0000
  C   C724      1.0  0.59092  0.25005  0.96930  1.0000
  C   C725      1.0  0.57580  0.24420  0.96018  1.0000
  C   C726      1.0  0.57206  0.25186  0.94177  1.0000
  C   C727      1.0  0.58359  0.26530  0.93219  1.0000
  C   C728      1.0  0.59876  0.27113  0.94128  1.0000
  C   C729      1.0  0.60237  0.26362  0.95980  1.0000
  H   H1155     1.0  0.56686  0.23372  0.96742  1.0000
  H   H1156     1.0  0.56035  0.24724  0.93495  1.0000
  H   H1157     1.0  0.60777  0.28151  0.93397  1.0000
  H   H1158     1.0  0.61408  0.26821  0.96664  1.0000
  C   C730      1.0  0.51991  0.22379  0.81958  1.0000
  C   C731      1.0  0.53618  0.21347  0.82666  1.0000
  H   H1159     1.0  0.34369  0.16165  0.91410  1.0000
  H   H1160     1.0  0.46554  0.05478  0.77664  1.0000
  H   H1161     1.0  0.57725  0.33586  0.84762  1.0000
  H   H1162     1.0  0.45787  0.12642  0.76558  1.0000
  H   H1163     1.0  0.47532  0.05277  0.75235  1.0000
  C   C732      1.0  0.57839  0.31933  0.88378  1.0000
  C   C733      1.0  0.46354  0.25935  0.98433  1.0000
  C   C734      1.0  0.60728  0.33153  0.86812  1.0000
  H   H1164     1.0  0.61447  0.32937  0.88157  1.0000
  C   C735      1.0  0.43701  0.28329  0.99119  1.0000
  H   H1165     1.0  0.53566  0.33648  0.87665  1.0000
  H   H1166     1.0  0.59448  0.31843  0.83690  1.0000
  C   C736      1.0  0.48624  0.08278  0.78413  1.0000
  H   H1167     1.0  0.50831  0.04382  0.76263  1.0000
  C   C737      1.0  0.33949  0.06512  0.83370  1.0000
  H   H1168     1.0  0.34573  0.08434  0.99102  1.0000
  H   H1169     1.0  0.44695  0.29452  0.99180  1.0000
  C   C738      1.0  0.43221  0.24982  0.99621  1.0000
  H   H1170     1.0  0.34146  0.09036  0.84850  1.0000
  S   S294      1.0  0.37752  0.26392  0.99972  1.0000
  H   H1171     1.0  0.34025  0.12842  0.87618  1.0000
  H   H1172     1.0  0.42786  0.24968  0.98157  1.0000
  H   H1173     1.0  0.36346  0.00971  0.84121  1.0000
  H   H1174     1.0  0.33796  0.06121  0.99932  1.0000
  H   H1175     1.0  0.63379  0.21447  0.00032  1.0000
  H   H1176     1.0  0.51941  0.22694  0.75243  1.0000
  H   H1177     1.0  0.33714  0.15411  0.87285  1.0000
  H   H1178     1.0  0.66618  0.00538  0.95597  1.0000
  H   H1179     1.0  0.42355  0.43030  0.16248  1.0000
  Fe  Fe145     1.0  0.42433  0.44547  0.24474  1.0000
  H   H1180     1.0  0.34329  0.50984  0.17507  1.0000
  C   C739      1.0  0.43837  0.35353  0.18894  1.0000
  C   C740      1.0  0.44633  0.37063  0.19135  1.0000
  C   C741      1.0  0.46205  0.37580  0.17895  1.0000
  C   C742      1.0  0.47002  0.36371  0.16466  1.0000
  C   C743      1.0  0.46222  0.34649  0.16238  1.0000
  H   H1181     1.0  0.46839  0.38886  0.18066  1.0000
  H   H1182     1.0  0.48253  0.36758  0.15547  1.0000
  C   C744      1.0  0.42345  0.41480  0.16034  1.0000
  H   H1183     1.0  0.43067  0.41226  0.14594  1.0000
  H   H1184     1.0  0.41275  0.37934  0.16866  1.0000
  S   S295      1.0  0.43630  0.38467  0.21028  1.0000
  H   H1185     1.0  0.43248  0.40664  0.17092  1.0000
  S   S296      1.0  0.45262  0.42830  0.23795  1.0000
  Fe  Fe146     1.0  0.41822  0.45479  0.20244  1.0000
  S   S297      1.0  0.44702  0.43919  0.19299  1.0000
  S   S298      1.0  0.39964  0.46823  0.17909  1.0000
  Fe  Fe147     1.0  0.43825  0.41618  0.21503  1.0000
  Fe  Fe148     1.0  0.45895  0.45301  0.21659  1.0000
  S   S299      1.0  0.48912  0.46316  0.21737  1.0000
  S   S300      1.0  0.40913  0.43147  0.22384  1.0000
  S   S301      1.0  0.43093  0.47052  0.22399  1.0000
  C   C745      1.0  0.48474  0.50314  0.21751  1.0000
  H   H1186     1.0  0.46984  0.50246  0.21497  1.0000
  C   C746      1.0  0.49706  0.48624  0.21916  1.0000
  C   C747      1.0  0.34760  0.46760  0.15804  1.0000
  C   C748      1.0  0.36663  0.47117  0.16049  1.0000
  C   C749      1.0  0.37525  0.46437  0.17718  1.0000
  C   C750      1.0  0.36452  0.45420  0.19155  1.0000
  H   H1187     1.0  0.42610  0.34947  0.19836  1.0000
  H   H1188     1.0  0.52391  0.65083  0.16553  1.0000
  H   H1189     1.0  0.37488  0.47893  0.14922  1.0000
  H   H1190     1.0  0.37086  0.44903  0.20455  1.0000
  H   H1191     1.0  0.37975  0.40862  0.18429  1.0000
  H   H1192     1.0  0.37654  0.41766  0.15080  1.0000
  H   H1193     1.0  0.66754  0.34015  0.02654  1.0000
  H   H1194     1.0  0.39164  0.43659  0.15154  1.0000
  H   H1195     1.0  0.38920  0.38393  0.16032  1.0000
  H   H1196     1.0  0.39759  0.41928  0.13412  1.0000
  C   C751      1.0  0.39512  0.41171  0.18225  1.0000
  H   H1197     1.0  0.48214  0.53401  0.21717  1.0000
  C   C752      1.0  0.39181  0.42113  0.14913  1.0000
  H   H1198     1.0  0.40309  0.40218  0.19277  1.0000
  C   C753      1.0  0.49178  0.52106  0.21875  1.0000
  H   H1199     1.0  0.41042  0.38612  0.14401  1.0000
  H   H1200     1.0  0.39572  0.42664  0.18596  1.0000
  N   N74       1.0  0.40358  0.40907  0.16258  1.0000
  H   H1201     1.0  0.60838  0.61804  0.20289  1.0000
  C   C754      1.0  0.40397  0.38873  0.15869  1.0000
  S   S302      1.0  0.54599  0.58064  0.25056  1.0000
  C   C755      1.0  0.59580  0.62568  0.19611  1.0000
  H   H1202     1.0  0.59949  0.50680  0.16118  1.0000
  Fe  Fe149     1.0  0.54634  0.55972  0.22782  1.0000
  S   S303      1.0  0.55786  0.58068  0.20465  1.0000
  S   S304      1.0  0.51917  0.54563  0.22274  1.0000
  Fe  Fe150     1.0  0.58743  0.56766  0.21147  1.0000
  S   S305      1.0  0.60857  0.56317  0.18516  1.0000
  S   S306      1.0  0.57585  0.54549  0.23312  1.0000
  H   H1203     1.0  0.59932  0.52430  0.19941  1.0000
  H   H1204     1.0  0.53824  0.50621  0.22658  1.0000
  H   H1205     1.0  0.57168  0.54535  0.18762  1.0000
  H   H1206     1.0  0.52609  0.47461  0.22381  1.0000
  C   C756      1.0  0.66453  0.54706  0.16681  1.0000
  C   C757      1.0  0.64101  0.54506  0.20129  1.0000
  C   C758      1.0  0.63319  0.55384  0.18497  1.0000
  C   C759      1.0  0.64505  0.55477  0.16775  1.0000
  H   H1207     1.0  0.34169  0.60090  0.07514  1.0000
  H   H1208     1.0  0.61201  0.65655  0.17974  1.0000
  H   H1209     1.0  0.63209  0.54422  0.21465  1.0000
  H   H1210     1.0  0.63918  0.56148  0.15501  1.0000
  S   S307      1.0  0.59009  0.58874  0.23289  1.0000
  C   C760      1.0  0.51116  0.52243  0.22186  1.0000
  H   H1211     1.0  0.62946  0.63593  0.17897  1.0000
  N   N75       1.0  0.57773  0.51547  0.18327  1.0000
  Fe  Fe151     1.0  0.55970  0.60034  0.22754  1.0000
  C   C761      1.0  0.52341  0.50549  0.22387  1.0000
  H   H1212     1.0  0.60179  0.49927  0.19566  1.0000
  C   C762      1.0  0.59105  0.51177  0.19839  1.0000
  H   H1213     1.0  0.59737  0.53181  0.16499  1.0000
  H   H1214     1.0  0.55823  0.49553  0.19629  1.0000
  C   C763      1.0  0.56399  0.53234  0.18737  1.0000
  C   C764      1.0  0.58896  0.51922  0.16478  1.0000
  C   C765      1.0  0.51643  0.48757  0.22239  1.0000
  H   H1215     1.0  0.57940  0.52233  0.15303  1.0000
  H   H1216     1.0  0.55345  0.53543  0.17648  1.0000
  H   H1217     1.0  0.58311  0.50883  0.21257  1.0000
  H   H1218     1.0  0.57679  0.48558  0.17952  1.0000
  H   H1219     1.0  0.55668  0.50099  0.17132  1.0000
  H   H1220     1.0  0.55549  0.53026  0.20139  1.0000
  C   C766      1.0  0.56692  0.49863  0.18255  1.0000
  H   H1221     1.0  0.61029  0.61513  0.15065  1.0000
  H   H1222     1.0  0.61945  0.60439  0.17228  1.0000
  S   S308      1.0  0.55400  0.63297  0.22560  1.0000
  C   C767      1.0  0.61623  0.64291  0.17279  1.0000
  H   H1223     1.0  0.62016  0.64665  0.15742  1.0000
  N   N76       1.0  0.60046  0.63026  0.17557  1.0000
  H   H1224     1.0  0.34136  0.47243  0.14492  1.0000
  C   C768      1.0  0.53039  0.65587  0.17719  1.0000
  C   C769      1.0  0.53715  0.64258  0.19163  1.0000
  C   C770      1.0  0.54536  0.64893  0.20690  1.0000
  C   C771      1.0  0.66042  0.53712  0.20029  1.0000
  H   H1225     1.0  0.53576  0.62748  0.19108  1.0000
  H   H1226     1.0  0.59113  0.63882  0.20377  1.0000
  H   H1227     1.0  0.59499  0.60243  0.16812  1.0000
  C   C772      1.0  0.60657  0.61232  0.16619  1.0000
  H   H1228     1.0  0.58617  0.64415  0.15185  1.0000
  C   C773      1.0  0.58317  0.64008  0.16729  1.0000
  C   C774      1.0  0.34551  0.45066  0.18911  1.0000
  H   H1229     1.0  0.66625  0.53016  0.21295  1.0000
  H   H1230     1.0  0.57110  0.63078  0.16891  1.0000
  H   H1231     1.0  0.58378  0.61634  0.19868  1.0000
  C   C775      1.0  0.44602  0.34171  0.17432  1.0000
  H   H1232     1.0  0.57782  0.65340  0.17444  1.0000
  C   C776      1.0  0.54684  0.66864  0.20748  1.0000
  H   H1233     1.0  0.33737  0.44270  0.20031  1.0000
  Fe  Fe152     1.0  0.39764  0.37824  0.41791  1.0000
  S   S309      1.0  0.39400  0.35036  0.43607  1.0000
  H   H1234     1.0  0.53933  0.65607  0.47036  1.0000
  C   C777      1.0  0.34761  0.40242  0.35462  1.0000
  C   C778      1.0  0.46000  0.47585  0.26346  1.0000
  H   H1235     1.0  0.41198  0.38926  0.30783  1.0000
  S   S310      1.0  0.40453  0.39464  0.34757  1.0000
  H   H1236     1.0  0.55718  0.63436  0.42505  1.0000
  S   S311      1.0  0.42334  0.38716  0.39901  1.0000
  H   H1237     1.0  0.56294  0.52364  0.48794  1.0000
  H   H1238     1.0  0.57146  0.61749  0.31606  1.0000
  S   S312      1.0  0.37645  0.38940  0.39682  1.0000
  H   H1239     1.0  0.66790  0.66236  0.37099  1.0000
  Fe  Fe153     1.0  0.40190  0.40059  0.37891  1.0000
  S   S313      1.0  0.39387  0.40528  0.43345  1.0000
  H   H1240     1.0  0.48619  0.49100  0.28134  1.0000
  S   S314      1.0  0.59077  0.61292  0.35007  1.0000
  N   N77       1.0  0.58089  0.49697  0.48962  1.0000
  H   H1241     1.0  0.49965  0.44851  0.27762  1.0000
  H   H1242     1.0  0.37509  0.42449  0.36029  1.0000
  H   H1243     1.0  0.45699  0.44074  0.28037  1.0000
  S   S315      1.0  0.44455  0.42870  0.42022  1.0000
  S   S316      1.0  0.39845  0.42914  0.39153  1.0000
  S   S317      1.0  0.48496  0.52399  0.48679  1.0000
  H   H1244     1.0  0.35597  0.37032  0.43928  1.0000
  S   S318      1.0  0.41464  0.45354  0.27494  1.0000
  C   C779      1.0  0.41373  0.41720  0.29315  1.0000
  C   C780      1.0  0.48990  0.45629  0.26750  1.0000
  H   H1245     1.0  0.42160  0.53737  0.47696  1.0000
  C   C781      1.0  0.35357  0.42807  0.33073  1.0000
  C   C782      1.0  0.47809  0.47990  0.28984  1.0000
  H   H1246     1.0  0.57174  0.63821  0.46317  1.0000
  H   H1247     1.0  0.36839  0.42119  0.32699  1.0000
  C   C783      1.0  0.44670  0.44312  0.43925  1.0000
  C   C784      1.0  0.43106  0.44837  0.45229  1.0000
  C   C785      1.0  0.43348  0.45993  0.46710  1.0000
  C   C786      1.0  0.45153  0.46634  0.46907  1.0000
  C   C787      1.0  0.46716  0.46109  0.45604  1.0000
  C   C788      1.0  0.46472  0.44957  0.44123  1.0000
  H   H1248     1.0  0.41712  0.44355  0.45095  1.0000
  H   H1249     1.0  0.42130  0.46387  0.47710  1.0000
  H   H1250     1.0  0.48112  0.46588  0.45736  1.0000
  H   H1251     1.0  0.47691  0.44559  0.43124  1.0000
  H   H1252     1.0  0.36771  0.37843  0.46869  1.0000
  C   C789      1.0  0.41269  0.43689  0.29501  1.0000
  C   C790      1.0  0.40982  0.44367  0.31332  1.0000
  C   C791      1.0  0.40797  0.43090  0.32963  1.0000
  H   H1253     1.0  0.49822  0.46679  0.25839  1.0000
  Fe  Fe154     1.0  0.37444  0.41696  0.41088  1.0000
  C   C792      1.0  0.35574  0.39014  0.47014  1.0000
  C   C793      1.0  0.46175  0.45138  0.28929  1.0000
  H   H1254     1.0  0.57165  0.66565  0.41654  1.0000
  C   C794      1.0  0.56627  0.48619  0.48270  1.0000
  H   H1255     1.0  0.54427  0.63028  0.44779  1.0000
  H   H1256     1.0  0.56677  0.48742  0.46690  1.0000
  Fe  Fe155     1.0  0.57633  0.56782  0.25435  1.0000
  C   C795      1.0  0.41151  0.40446  0.30943  1.0000
  H   H1257     1.0  0.34197  0.35594  0.46975  1.0000
  H   H1258     1.0  0.46519  0.48742  0.29751  1.0000
  Fe  Fe156     1.0  0.41811  0.41517  0.41311  1.0000
  N   N78       1.0  0.47244  0.46585  0.27754  1.0000
  H   H1259     1.0  0.46745  0.48704  0.25443  1.0000
  H   H1260     1.0  0.34394  0.42297  0.32105  1.0000
  H   H1261     1.0  0.60316  0.47369  0.48717  1.0000
  C   C796      1.0  0.40861  0.41122  0.32773  1.0000
  H   H1262     1.0  0.57870  0.51918  0.46702  1.0000
  H   H1263     1.0  0.41591  0.41178  0.27915  1.0000
  H   H1264     1.0  0.40903  0.45889  0.31489  1.0000
  H   H1265     1.0  0.58511  0.64310  0.44079  1.0000
  H   H1266     1.0  0.48609  0.44575  0.25791  1.0000
  H   H1267     1.0  0.35070  0.39536  0.43312  1.0000
  H   H1268     1.0  0.40587  0.43630  0.34362  1.0000
  H   H1269     1.0  0.60198  0.49012  0.46643  1.0000
  H   H1270     1.0  0.55149  0.49170  0.48811  1.0000
  Fe  Fe157     1.0  0.60128  0.60648  0.41956  1.0000
  H   H1271     1.0  0.58824  0.52606  0.48786  1.0000
  H   H1272     1.0  0.61174  0.49688  0.48719  1.0000
  H   H1273     1.0  0.47067  0.44338  0.30003  1.0000
  S   S319      1.0  0.61484  0.58686  0.39745  1.0000
  S   S320      1.0  0.53653  0.52357  0.45421  1.0000
  S   S321      1.0  0.58917  0.55864  0.28247  1.0000
  H   H1274     1.0  0.44335  0.52324  0.48287  1.0000
  H   H1275     1.0  0.54604  0.55280  0.34976  1.0000
  Fe  Fe158     1.0  0.51653  0.51497  0.48020  1.0000
  H   H1276     1.0  0.57193  0.58086  0.39060  1.0000
  C   C797      1.0  0.36000  0.43095  0.36314  1.0000
  H   H1277     1.0  0.58468  0.57620  0.36806  1.0000
  C   C798      1.0  0.60244  0.56872  0.31527  1.0000
  C   C799      1.0  0.34466  0.38260  0.44074  1.0000
  S   S322      1.0  0.34635  0.43505  0.41876  1.0000
  C   C800      1.0  0.57763  0.51736  0.48284  1.0000
  C   C801      1.0  0.54798  0.54501  0.45162  1.0000
  C   C802      1.0  0.54405  0.55893  0.46483  1.0000
  C   C803      1.0  0.55370  0.57567  0.46239  1.0000
  C   C804      1.0  0.56746  0.57857  0.44684  1.0000
  C   C805      1.0  0.57152  0.56456  0.43373  1.0000
  C   C806      1.0  0.56176  0.54789  0.43608  1.0000
  H   H1278     1.0  0.53351  0.55685  0.47688  1.0000
  H   H1279     1.0  0.55051  0.58639  0.47266  1.0000
  H   H1280     1.0  0.58235  0.56646  0.42195  1.0000
  H   H1281     1.0  0.56508  0.53705  0.42596  1.0000
  C   C807      1.0  0.59060  0.57445  0.30046  1.0000
  C   C808      1.0  0.57413  0.57053  0.37932  1.0000
  C   C809      1.0  0.55959  0.55519  0.35583  1.0000
  H   H1282     1.0  0.56673  0.54098  0.36056  1.0000
  S   S323      1.0  0.57915  0.59990  0.44429  1.0000
  H   H1283     1.0  0.61102  0.55503  0.31510  1.0000
  H   H1284     1.0  0.33818  0.39618  0.34549  1.0000
  H   H1285     1.0  0.61254  0.57603  0.34144  1.0000
  H   H1286     1.0  0.35401  0.44377  0.32752  1.0000
  H   H1287     1.0  0.52850  0.55753  0.38173  1.0000
  S   S324      1.0  0.51235  0.48361  0.48517  1.0000
  C   C810      1.0  0.60034  0.48908  0.48227  1.0000
  H   H1288     1.0  0.55620  0.59341  0.35266  1.0000
  C   C811      1.0  0.59203  0.59820  0.33067  1.0000
  H   H1289     1.0  0.58099  0.55677  0.38553  1.0000
  Fe  Fe159     1.0  0.60769  0.61147  0.37613  1.0000
  C   C812      1.0  0.60331  0.58060  0.33022  1.0000
  H   H1290     1.0  0.42139  0.51225  0.48409  1.0000
  H   H1291     1.0  0.53977  0.56863  0.39916  1.0000
  N   N79       1.0  0.55577  0.56798  0.37162  1.0000
  H   H1292     1.0  0.54887  0.54515  0.39250  1.0000
  C   C813      1.0  0.57963  0.59220  0.30077  1.0000
  C   C814      1.0  0.54679  0.58678  0.36445  1.0000
  H   H1293     1.0  0.56924  0.56141  0.34396  1.0000
  H   H1294     1.0  0.53275  0.58548  0.35878  1.0000
  H   H1295     1.0  0.54425  0.59705  0.37577  1.0000
  N   N80       1.0  0.33878  0.38592  0.46090  1.0000
  C   C815      1.0  0.57439  0.64965  0.45166  1.0000
  H   H1296     1.0  0.44634  0.48275  0.27041  1.0000
  C   C816      1.0  0.54263  0.55946  0.38689  1.0000
  C   C817      1.0  0.58024  0.60391  0.31586  1.0000
  H   H1297     1.0  0.57044  0.59679  0.28951  1.0000
  Fe  Fe160     1.0  0.64195  0.60106  0.40029  1.0000
  H   H1298     1.0  0.44847  0.45812  0.29705  1.0000
  S   S325      1.0  0.45377  0.48098  0.48790  1.0000
  H   H1299     1.0  0.56810  0.47073  0.48763  1.0000
  S   S326      1.0  0.59227  0.63020  0.39824  1.0000
  S   S327      1.0  0.62884  0.61897  0.42403  1.0000
  N   N81       1.0  0.55635  0.65736  0.44337  1.0000
  Fe  Fe161     1.0  0.62067  0.64122  0.40085  1.0000
  S   S328      1.0  0.63566  0.62418  0.37719  1.0000
  C   C818      1.0  0.42754  0.52564  0.48683  1.0000
  H   H1300     1.0  0.36149  0.40356  0.46359  1.0000
  H   H1301     1.0  0.48746  0.47285  0.30070  1.0000
  H   H1302     1.0  0.58118  0.66101  0.45784  1.0000
  H   H1303     1.0  0.42704  0.56001  0.50029  1.0000
  C   C819      1.0  0.54741  0.64155  0.43624  1.0000
  H   H1304     1.0  0.36252  0.39536  0.35173  1.0000
  H   H1305     1.0  0.41817  0.33927  0.40196  1.0000
  C   C820      1.0  0.54289  0.66650  0.45815  1.0000
  H   H1306     1.0  0.66544  0.65708  0.39616  1.0000
  N   N82       1.0  0.34705  0.42343  0.35092  1.0000
  H   H1307     1.0  0.35552  0.42777  0.37849  1.0000
  Fe  Fe162     1.0  0.48143  0.49277  0.49436  1.0000
  H   H1308     1.0  0.34275  0.39836  0.36969  1.0000
  H   H1309     1.0  0.53366  0.64671  0.43003  1.0000
  H   H1310     1.0  0.35208  0.39205  0.48555  1.0000
  H   H1311     1.0  0.36013  0.44675  0.36072  1.0000
  H   H1312     1.0  0.45590  0.46568  0.25375  1.0000
  H   H1313     1.0  0.61034  0.67029  0.43843  1.0000
  S   S329      1.0  0.40537  0.56353  0.58906  1.0000
  H   H1314     1.0  0.66086  0.42809  0.63088  1.0000
  H   H1315     1.0  0.43289  0.55108  0.65387  1.0000
  S   S330      1.0  0.48681  0.49364  0.52526  1.0000
  Fe  Fe163     1.0  0.49189  0.52439  0.51707  1.0000
  S   S331      1.0  0.48126  0.55114  0.53241  1.0000
  C   C821      1.0  0.43515  0.56197  0.64178  1.0000
  C   C822      1.0  0.44418  0.53795  0.61926  1.0000
  H   H1316     1.0  0.52792  0.48793  0.73328  1.0000
  H   H1317     1.0  0.57795  0.36757  0.59669  1.0000
  C   C823      1.0  0.41593  0.58977  0.72738  1.0000
  C   C824      1.0  0.42646  0.56041  0.57325  1.0000
  C   C825      1.0  0.43323  0.54188  0.56804  1.0000
  C   C826      1.0  0.45019  0.53874  0.55579  1.0000
  C   C827      1.0  0.46034  0.55417  0.54842  1.0000
  C   C828      1.0  0.45364  0.57266  0.55372  1.0000
  C   C829      1.0  0.43676  0.57580  0.56606  1.0000
  H   H1318     1.0  0.42540  0.52988  0.57367  1.0000
  H   H1319     1.0  0.45545  0.52441  0.55207  1.0000
  H   H1320     1.0  0.46146  0.58467  0.54811  1.0000
  H   H1321     1.0  0.43168  0.59013  0.56993  1.0000
  H   H1322     1.0  0.42347  0.58022  0.73753  1.0000
  H   H1323     1.0  0.45477  0.53274  0.60757  1.0000
  Fe  Fe164     1.0  0.39512  0.59036  0.60463  1.0000
  N   N83       1.0  0.45017  0.55498  0.62712  1.0000
  H   H1324     1.0  0.48024  0.54465  0.62497  1.0000
  H   H1325     1.0  0.43895  0.57508  0.64778  1.0000
  H   H1326     1.0  0.43001  0.54121  0.61324  1.0000
  H   H1327     1.0  0.42095  0.56571  0.63586  1.0000
  H   H1328     1.0  0.47341  0.56245  0.64186  1.0000
  H   H1329     1.0  0.45759  0.58320  0.61705  1.0000
  C   C830      1.0  0.41514  0.58444  0.70872  1.0000
  H   H1330     1.0  0.42207  0.57073  0.70469  1.0000
  H   H1331     1.0  0.36024  0.65381  0.60661  1.0000
  H   H1332     1.0  0.53014  0.34794  0.60661  1.0000
  S   S332      1.0  0.37495  0.58510  0.63087  1.0000
  H   H1333     1.0  0.46345  0.56533  0.59999  1.0000
  H   H1334     1.0  0.53058  0.38302  0.57784  1.0000
  H   H1335     1.0  0.43895  0.57476  0.60541  1.0000
  C   C831      1.0  0.45274  0.57022  0.61173  1.0000
  H   H1336     1.0  0.55968  0.36563  0.62760  1.0000
  S   S333      1.0  0.40535  0.58921  0.67187  1.0000
  C   C832      1.0  0.46858  0.54988  0.63572  1.0000
  H   H1337     1.0  0.46716  0.53842  0.64741  1.0000
  H   H1338     1.0  0.44258  0.52599  0.63038  1.0000
  S   S334      1.0  0.52383  0.51779  0.50981  1.0000
  C   C833      1.0  0.53126  0.38477  0.59323  1.0000
  H   H1339     1.0  0.53328  0.40010  0.59462  1.0000
  C   C834      1.0  0.40563  0.59676  0.69520  1.0000
  C   C835      1.0  0.61260  0.41968  0.71682  1.0000
  C   C836      1.0  0.65662  0.43576  0.64399  1.0000
  C   C837      1.0  0.35895  0.67061  0.57197  1.0000
  H   H1340     1.0  0.51703  0.38197  0.60082  1.0000
  S   S335      1.0  0.37640  0.61602  0.59396  1.0000
  S   S336      1.0  0.37370  0.63068  0.63774  1.0000
  S   S337      1.0  0.62017  0.41154  0.67935  1.0000
  Fe  Fe165     1.0  0.39335  0.63332  0.61062  1.0000
  C   C838      1.0  0.35023  0.66705  0.60576  1.0000
  H   H1341     1.0  0.38939  0.62409  0.69040  1.0000
  Fe  Fe166     1.0  0.39273  0.60368  0.64508  1.0000
  H   H1342     1.0  0.56617  0.37332  0.57526  1.0000
  C   C839      1.0  0.40716  0.60752  0.73276  1.0000
  Fe  Fe167     1.0  0.35765  0.61216  0.62125  1.0000
  H   H1343     1.0  0.56790  0.39162  0.59100  1.0000
  C   C840      1.0  0.60451  0.41703  0.69992  1.0000
  H   H1344     1.0  0.65071  0.43612  0.68205  1.0000
  H   H1345     1.0  0.39067  0.63353  0.72331  1.0000
  H   H1346     1.0  0.60720  0.42615  0.74637  1.0000
  H   H1347     1.0  0.64251  0.43105  0.65012  1.0000
  C   C841      1.0  0.39750  0.61976  0.71930  1.0000
  C   C842      1.0  0.39675  0.61446  0.70062  1.0000
  S   S338      1.0  0.41372  0.60773  0.61906  1.0000
  Fe  Fe168     1.0  0.60771  0.37323  0.62352  1.0000
  C   C843      1.0  0.54406  0.35173  0.59901  1.0000
  C   C844      1.0  0.52347  0.47415  0.74031  1.0000
  S   S339      1.0  0.63358  0.38403  0.63452  1.0000
  S   S340      1.0  0.58674  0.39258  0.64115  1.0000
  Fe  Fe169     1.0  0.61234  0.40502  0.65009  1.0000
  C   C845      1.0  0.54766  0.37494  0.62135  1.0000
  N   N84       1.0  0.54710  0.37191  0.60102  1.0000
  H   H1348     1.0  0.54988  0.39006  0.62336  1.0000
  H   H1349     1.0  0.54400  0.34877  0.58382  1.0000
  C   C846      1.0  0.58443  0.41903  0.69981  1.0000
  H   H1350     1.0  0.53516  0.46272  0.73640  1.0000
  H   H1351     1.0  0.65427  0.45128  0.63959  1.0000
  H   H1352     1.0  0.44819  0.54569  0.50753  1.0000
  H   H1353     1.0  0.66075  0.40498  0.66856  1.0000
  S   S341      1.0  0.60837  0.39362  0.59733  1.0000
  H   H1354     1.0  0.59000  0.50320  0.51645  1.0000
  C   C847      1.0  0.57261  0.42362  0.71645  1.0000
  H   H1355     1.0  0.44738  0.51170  0.51655  1.0000
  H   H1356     1.0  0.51026  0.47095  0.73413  1.0000
  H   H1357     1.0  0.58149  0.47997  0.51627  1.0000
  C   C848      1.0  0.43142  0.51405  0.51936  1.0000
  S   S342      1.0  0.40284  0.66015  0.59339  1.0000
  C   C849      1.0  0.56560  0.37627  0.59050  1.0000
  H   H1358     1.0  0.42804  0.51665  0.53466  1.0000
  Fe  Fe170     1.0  0.63251  0.40606  0.60977  1.0000
  S   S343      1.0  0.61247  0.42763  0.62573  1.0000
  H   H1359     1.0  0.39857  0.53655  0.52667  1.0000
  S   S344      1.0  0.55952  0.42826  0.60754  1.0000
  H   H1360     1.0  0.36841  0.65686  0.57230  1.0000
  S   S345      1.0  0.54322  0.46612  0.52514  1.0000
  Fe  Fe171     1.0  0.51829  0.48685  0.51538  1.0000
  H   H1361     1.0  0.62810  0.41813  0.71709  1.0000
  H   H1362     1.0  0.55710  0.42509  0.71620  1.0000
  Fe  Fe172     1.0  0.58851  0.41348  0.61536  1.0000
  S   S346      1.0  0.65796  0.41771  0.59139  1.0000
  H   H1363     1.0  0.57801  0.41703  0.68692  1.0000
  C   C850      1.0  0.55542  0.43919  0.58468  1.0000
  C   C851      1.0  0.53763  0.44983  0.58196  1.0000
  C   C852      1.0  0.53368  0.45840  0.56389  1.0000
  C   C853      1.0  0.54746  0.45617  0.54832  1.0000
  C   C854      1.0  0.56520  0.44545  0.55104  1.0000
  C   C855      1.0  0.56923  0.43707  0.56914  1.0000
  H   H1364     1.0  0.52686  0.45151  0.59391  1.0000
  H   H1365     1.0  0.51996  0.46656  0.56197  1.0000
  H   H1366     1.0  0.57592  0.44357  0.53908  1.0000
  H   H1367     1.0  0.58296  0.42890  0.57103  1.0000
  C   C856      1.0  0.58070  0.42621  0.73337  1.0000
  C   C857      1.0  0.60078  0.42421  0.73348  1.0000
  H   H1368     1.0  0.42566  0.50037  0.51691  1.0000
  H   H1369     1.0  0.53400  0.37168  0.62982  1.0000
  C   C858      1.0  0.66443  0.44146  0.67531  1.0000
  H   H1370     1.0  0.42858  0.55200  0.52481  1.0000
  C   C859      1.0  0.43215  0.54773  0.50999  1.0000
  H   H1371     1.0  0.56467  0.50083  0.51669  1.0000
  C   C860      1.0  0.57927  0.49521  0.51065  1.0000
  H   H1372     1.0  0.39518  0.52011  0.50944  1.0000
  S   S347      1.0  0.60047  0.34207  0.62667  1.0000
  N   N85       1.0  0.42334  0.53016  0.50693  1.0000
  C   C861      1.0  0.40224  0.53315  0.51157  1.0000
  H   H1373     1.0  0.66154  0.45718  0.67227  1.0000
  H   H1374     1.0  0.33987  0.64013  0.58519  1.0000
  H   H1375     1.0  0.60275  0.34315  0.58483  1.0000
  H   H1376     1.0  0.36712  0.59956  0.74964  1.0000
  H   H1377     1.0  0.35394  0.58013  0.74514  1.0000
  N   N86       1.0  0.34265  0.67009  0.58692  1.0000
  H   H1378     1.0  0.55573  0.34176  0.60502  1.0000
  H   H1379     1.0  0.33849  0.66556  0.61744  1.0000
  H   H1380     1.0  0.39564  0.54521  0.50247  1.0000
  S   S348      1.0  0.43705  0.57356  0.82942  1.0000
  S   S349      1.0  0.42520  0.56700  0.78691  1.0000
  Fe  Fe173     1.0  0.40946  0.57188  0.81576  1.0000
  S   S350      1.0  0.38587  0.55202  0.82572  1.0000
  Fe  Fe174     1.0  0.45235  0.57124  0.80005  1.0000
  S   S351      1.0  0.48145  0.55464  0.79101  1.0000
  H   H1381     1.0  0.48491  0.43736  0.84106  1.0000
  C   C862      1.0  0.49423  0.53401  0.80172  1.0000
  C   C863      1.0  0.66182  0.45441  0.83560  1.0000
  C   C864      1.0  0.36189  0.55729  0.83620  1.0000
  C   C865      1.0  0.35375  0.57605  0.83862  1.0000
  S   S352      1.0  0.40739  0.61488  0.75615  1.0000
  H   H1382     1.0  0.36239  0.58788  0.83476  1.0000
  Fe  Fe175     1.0  0.42125  0.59893  0.78163  1.0000
  H   H1383     1.0  0.53546  0.42568  0.87107  1.0000
  H   H1384     1.0  0.52104  0.40833  0.83786  1.0000
  H   H1385     1.0  0.55051  0.46900  0.76404  1.0000
  C   C866      1.0  0.51349  0.52890  0.79477  1.0000
  H   H1386     1.0  0.47092  0.52606  0.82192  1.0000
  C   C867      1.0  0.51467  0.45638  0.76995  1.0000
  S   S353      1.0  0.44955  0.60333  0.79268  1.0000
  N   N87       1.0  0.36229  0.57936  0.77363  1.0000
  H   H1387     1.0  0.64838  0.53752  0.92614  1.0000
  C   C868      1.0  0.48569  0.52231  0.81640  1.0000
  H   H1388     1.0  0.48220  0.42406  0.87473  1.0000
  H   H1389     1.0  0.50819  0.44200  0.82948  1.0000
  C   C869      1.0  0.49926  0.44173  0.84339  1.0000
  S   S354      1.0  0.40430  0.60363  0.80994  1.0000
  Fe  Fe176     1.0  0.43290  0.60546  0.82143  1.0000
  H   H1390     1.0  0.51870  0.39887  0.86207  1.0000
  C   C870      1.0  0.66289  0.47738  0.85931  1.0000
  H   H1391     1.0  0.52031  0.53798  0.78357  1.0000
  H   H1392     1.0  0.49426  0.44356  0.88130  1.0000
  S   S355      1.0  0.56508  0.43219  0.75382  1.0000
  C   C871      1.0  0.35607  0.59000  0.75607  1.0000
  C   C872      1.0  0.49661  0.42891  0.87611  1.0000
  H   H1393     1.0  0.49713  0.45675  0.84767  1.0000
  C   C873      1.0  0.53892  0.34509  0.86359  1.0000
  H   H1394     1.0  0.39225  0.57670  0.76327  1.0000
  S   S356      1.0  0.43482  0.62614  0.84449  1.0000
  H   H1395     1.0  0.34233  0.59917  0.75895  1.0000
  C   C874      1.0  0.44381  0.65819  0.86029  1.0000
  C   C875      1.0  0.44524  0.64827  0.84364  1.0000
  C   C876      1.0  0.45490  0.65615  0.82707  1.0000
  H   H1396     1.0  0.50843  0.50460  0.76003  1.0000
  H   H1397     1.0  0.45616  0.64869  0.81417  1.0000
  H   H1398     1.0  0.35193  0.55871  0.79523  1.0000
  C   C877      1.0  0.49623  0.50564  0.82384  1.0000
  H   H1399     1.0  0.60013  0.34645  0.86727  1.0000
  H   H1400     1.0  0.66912  0.44332  0.82705  1.0000
  H   H1401     1.0  0.35142  0.60173  0.79198  1.0000
  C   C878      1.0  0.36510  0.59308  0.78756  1.0000
  H   H1402     1.0  0.38561  0.55915  0.78202  1.0000
  C   C879      1.0  0.54724  0.36243  0.86397  1.0000
  C   C880      1.0  0.55136  0.37386  0.84713  1.0000
  C   C881      1.0  0.54672  0.36799  0.82990  1.0000
  C   C882      1.0  0.53826  0.35071  0.82955  1.0000
  H   H1403     1.0  0.53675  0.47846  0.78439  1.0000
  H   H1404     1.0  0.55050  0.36702  0.87740  1.0000
  H   H1405     1.0  0.54971  0.37669  0.81684  1.0000
  C   C883      1.0  0.50457  0.49019  0.76590  1.0000
  S   S357      1.0  0.56203  0.39539  0.84859  1.0000
  H   H1406     1.0  0.37570  0.60324  0.78161  1.0000
  H   H1407     1.0  0.50123  0.45258  0.76463  1.0000
  C   C884      1.0  0.38065  0.56759  0.76910  1.0000
  C   C885      1.0  0.34748  0.56680  0.78190  1.0000
  Fe  Fe177     1.0  0.57335  0.43612  0.78359  1.0000
  S   S358      1.0  0.54812  0.43341  0.80568  1.0000
  Fe  Fe178     1.0  0.59896  0.44728  0.81278  1.0000
  S   S359      1.0  0.57531  0.44590  0.83657  1.0000
  S   S360      1.0  0.63081  0.45083  0.81554  1.0000
  Fe  Fe179     1.0  0.56916  0.41847  0.82507  1.0000
  Fe  Fe180     1.0  0.55535  0.46096  0.81573  1.0000
  S   S361      1.0  0.52769  0.47888  0.82629  1.0000
  S   S362      1.0  0.59400  0.41877  0.80231  1.0000
  S   S363      1.0  0.57954  0.46473  0.79256  1.0000
  H   H1408     1.0  0.52629  0.45012  0.86485  1.0000
  C   C886      1.0  0.51543  0.50047  0.81678  1.0000
  C   C887      1.0  0.52770  0.43519  0.86038  1.0000
  H   H1409     1.0  0.43636  0.65224  0.87318  1.0000
  C   C888      1.0  0.51159  0.40906  0.85146  1.0000
  C   C889      1.0  0.64223  0.46034  0.83359  1.0000
  C   C890      1.0  0.63290  0.47454  0.84489  1.0000
  C   C891      1.0  0.64321  0.48307  0.85759  1.0000
  H   H1410     1.0  0.61788  0.47933  0.84346  1.0000
  H   H1411     1.0  0.63592  0.49430  0.86595  1.0000
  C   C892      1.0  0.53812  0.47934  0.76858  1.0000
  C   C893      1.0  0.35045  0.54211  0.84168  1.0000
  H   H1412     1.0  0.48939  0.49671  0.83513  1.0000
  H   H1413     1.0  0.50346  0.41925  0.88731  1.0000
  H   H1414     1.0  0.37068  0.58552  0.80059  1.0000
  H   H1415     1.0  0.51223  0.45654  0.78571  1.0000
  H   H1416     1.0  0.37925  0.55731  0.75832  1.0000
  H   H1417     1.0  0.49767  0.40366  0.84917  1.0000
  N   N88       1.0  0.50877  0.42872  0.85784  1.0000
  H   H1418     1.0  0.35659  0.52755  0.83990  1.0000
  H   H1419     1.0  0.53719  0.43506  0.84689  1.0000
  H   H1420     1.0  0.53903  0.50904  0.79721  1.0000
  C   C894      1.0  0.52410  0.51238  0.80236  1.0000
  C   C895      1.0  0.53455  0.33904  0.84634  1.0000
  H   H1421     1.0  0.65415  0.53036  0.90231  1.0000
  H   H1422     1.0  0.52619  0.44464  0.76673  1.0000
  H   H1423     1.0  0.53336  0.66415  0.84464  1.0000
  H   H1424     1.0  0.54202  0.49391  0.76346  1.0000
  H   H1425     1.0  0.50151  0.49092  0.78157  1.0000
  C   C896      1.0  0.65811  0.53982  0.91292  1.0000
  H   H1426     1.0  0.65495  0.55491  0.90723  1.0000
  N   N89       1.0  0.52018  0.47503  0.76117  1.0000
  H   H1427     1.0  0.53473  0.34623  0.81616  1.0000
  H   H1428     1.0  0.34505  0.55612  0.77186  1.0000
  H   H1429     1.0  0.49088  0.48767  0.76018  1.0000
  H   H1430     1.0  0.53890  0.65272  0.86731  1.0000
  H   H1431     1.0  0.50436  0.65826  0.87970  1.0000
  C   C897      1.0  0.53730  0.66681  0.85899  1.0000
  H   H1432     1.0  0.49906  0.66930  0.85679  1.0000
  H   H1433     1.0  0.52994  0.66996  0.89668  1.0000
  Fe  Fe181     1.0  0.38912  0.77699  0.02409  1.0000
  S   S364      1.0  0.38898  0.74590  0.03368  1.0000
  Fe  Fe182     1.0  0.36135  0.78984  0.05816  1.0000
  S   S365      1.0  0.35993  0.75928  0.07031  1.0000
  Fe  Fe183     1.0  0.39214  0.75587  0.06264  1.0000
  S   S366      1.0  0.41389  0.73818  0.08052  1.0000
  Fe  Fe184     1.0  0.35692  0.75213  0.04048  1.0000
  S   S367      1.0  0.39384  0.78686  0.05268  1.0000
  S   S368      1.0  0.35692  0.78279  0.02873  1.0000
  S   S369      1.0  0.47479  0.77437  0.12462  1.0000
  H   H1434     1.0  0.65130  0.88968  0.01674  1.0000
  C   C898      1.0  0.53483  0.83381  0.22013  1.0000
  C   C899      1.0  0.49551  0.89259  0.21806  1.0000
  C   C900      1.0  0.53182  0.67560  0.17782  1.0000
  C   C901      1.0  0.43142  0.74870  0.09161  1.0000
  C   C902      1.0  0.42924  0.76812  0.09502  1.0000
  C   C903      1.0  0.44276  0.77577  0.10499  1.0000
  C   C904      1.0  0.45871  0.76417  0.11145  1.0000
  C   C905      1.0  0.46132  0.74492  0.10745  1.0000
  C   C906      1.0  0.44758  0.73715  0.09782  1.0000
  H   H1435     1.0  0.41687  0.77716  0.09038  1.0000
  H   H1436     1.0  0.44066  0.79072  0.10793  1.0000
  H   H1437     1.0  0.47386  0.73606  0.11186  1.0000
  H   H1438     1.0  0.44948  0.72216  0.09503  1.0000
  H   H1439     1.0  0.50128  0.86123  0.24204  1.0000
  H   H1440     1.0  0.35801  0.92500  0.12599  1.0000
  H   H1441     1.0  0.49661  0.77583  0.08472  1.0000
  Fe  Fe185     1.0  0.50078  0.75952  0.13862  1.0000
  H   H1442     1.0  0.51361  0.82193  0.06310  1.0000
  H   H1443     1.0  0.38707  0.91363  0.10561  1.0000
  H   H1444     1.0  0.46460  0.73335  0.15387  1.0000
  C   C907      1.0  0.34932  0.88835  0.10054  1.0000
  H   H1445     1.0  0.58121  0.92146  0.25000  1.0000
  H   H1446     1.0  0.35623  0.83773  0.04448  1.0000
  H   H1447     1.0  0.35897  0.91654  0.07466  1.0000
  C   C908      1.0  0.45429  0.72230  0.15400  1.0000
  C   C909      1.0  0.47328  0.69873  0.17294  1.0000
  H   H1448     1.0  0.63083  0.90622  0.01141  1.0000
  N   N90       1.0  0.46430  0.70272  0.15481  1.0000
  S   S370      1.0  0.34045  0.81110  0.07466  1.0000
  S   S371      1.0  0.36942  0.96008  0.24614  1.0000
  H   H1449     1.0  0.44656  0.72543  0.14093  1.0000
  S   S372      1.0  0.50014  0.74494  0.16803  1.0000
  H   H1450     1.0  0.48613  0.80723  0.09653  1.0000
  H   H1451     1.0  0.49640  0.80485  0.06201  1.0000
  Fe  Fe186     1.0  0.39835  0.97160  0.24051  1.0000
  S   S373      1.0  0.38884  0.99147  0.21592  1.0000
  S   S374      1.0  0.42891  0.95722  0.23537  1.0000
  Fe  Fe187     1.0  0.35919  0.98176  0.22320  1.0000
  H   H1452     1.0  0.48774  0.68668  0.13928  1.0000
  H   H1453     1.0  0.36031  0.93430  0.09145  1.0000
  H   H1454     1.0  0.46241  0.69979  0.18546  1.0000
  H   H1455     1.0  0.49339  0.90387  0.22840  1.0000
  H   H1456     1.0  0.45180  0.87521  0.22805  1.0000
  H   H1457     1.0  0.48406  0.70894  0.17435  1.0000
  C   C910      1.0  0.48631  0.86828  0.24227  1.0000
  C   C911      1.0  0.44057  0.94019  0.25124  1.0000
  H   H1458     1.0  0.43864  0.68957  0.16549  1.0000
  H   H1459     1.0  0.52140  0.76984  0.07607  1.0000
  C   C912      1.0  0.51142  0.80644  0.06513  1.0000
  H   H1460     1.0  0.45924  0.89690  0.23517  1.0000
  C   C913      1.0  0.35096  0.97134  0.16821  1.0000
  C   C914      1.0  0.59923  0.96491  0.25011  1.0000
  H   H1461     1.0  0.36207  0.97003  0.13873  1.0000
  H   H1462     1.0  0.36425  0.97524  0.17274  1.0000
  H   H1463     1.0  0.33812  0.92455  0.08952  1.0000
  N   N91       1.0  0.48235  0.87753  0.22341  1.0000
  H   H1464     1.0  0.52144  0.79891  0.05432  1.0000
  H   H1465     1.0  0.47428  0.00256  0.23294  1.0000
  C   C915      1.0  0.48552  0.86302  0.20918  1.0000
  H   H1466     1.0  0.46873  0.94416  0.23706  1.0000
  C   C916      1.0  0.35131  0.91202  0.12294  1.0000
  N   N92       1.0  0.35858  0.90553  0.10398  1.0000
  C   C917      1.0  0.57429  0.81829  0.24963  1.0000
  H   H1467     1.0  0.45867  0.89372  0.21038  1.0000
  H   H1468     1.0  0.38559  0.89600  0.08896  1.0000
  C   C918      1.0  0.37971  0.90089  0.10313  1.0000
  N   N93       1.0  0.65824  0.91791  0.00612  1.0000
  H   H1469     1.0  0.53984  0.75221  0.01178  1.0000
  C   C919      1.0  0.35392  0.92090  0.08923  1.0000
  C   C920      1.0  0.34536  0.84564  0.05351  1.0000
  C   C921      1.0  0.34967  0.96835  0.14891  1.0000
  H   H1470     1.0  0.51092  0.88659  0.21772  1.0000
  C   C922      1.0  0.53559  0.81100  0.19562  1.0000
  S   S375      1.0  0.61696  0.97832  0.23725  1.0000
  H   H1471     1.0  0.38374  0.88929  0.11406  1.0000
  H   H1472     1.0  0.55309  0.67372  0.21927  1.0000
  H   H1473     1.0  0.50077  0.85650  0.20810  1.0000
  H   H1474     1.0  0.46347  0.98072  0.24001  1.0000
  C   C923      1.0  0.64618  0.90177  0.00680  1.0000
  C   C924      1.0  0.47938  0.70104  0.13872  1.0000
  H   H1475     1.0  0.49316  0.89972  0.20378  1.0000
  H   H1476     1.0  0.56548  0.81265  0.23949  1.0000
  H   H1477     1.0  0.47311  0.70333  0.12479  1.0000
  H   H1478     1.0  0.43184  0.99734  0.23440  1.0000
  C   C925      1.0  0.59640  0.94690  0.24418  1.0000
  H   H1479     1.0  0.35449  0.88310  0.08633  1.0000
  C   C926      1.0  0.46071  0.93636  0.24844  1.0000
  H   H1480     1.0  0.54558  0.79358  0.07762  1.0000
  H   H1481     1.0  0.60452  0.94184  0.23147  1.0000
  Fe  Fe188     1.0  0.52417  0.72420  0.15612  1.0000
  S   S376      1.0  0.54764  0.74139  0.16300  1.0000
  S   S377      1.0  0.52267  0.69175  0.15949  1.0000
  Fe  Fe189     1.0  0.54460  0.75633  0.13380  1.0000
  S   S378      1.0  0.56981  0.76597  0.11391  1.0000
  Fe  Fe190     1.0  0.52354  0.76320  0.17311  1.0000
  S   S379      1.0  0.52295  0.73762  0.12609  1.0000
  H   H1482     1.0  0.51478  0.77167  0.10103  1.0000
  S   S380      1.0  0.57720  0.75918  0.02435  1.0000
  H   H1483     1.0  0.59733  0.77899  0.08410  1.0000
  C   C927      1.0  0.57617  0.76052  0.04928  1.0000
  C   C928      1.0  0.58920  0.77013  0.05777  1.0000
  C   C929      1.0  0.58728  0.77140  0.07764  1.0000
  C   C930      1.0  0.57243  0.76301  0.08917  1.0000
  C   C931      1.0  0.55957  0.75320  0.08068  1.0000
  C   C932      1.0  0.56135  0.75209  0.06082  1.0000
  H   H1484     1.0  0.60066  0.77668  0.04904  1.0000
  H   H1485     1.0  0.54829  0.74644  0.08942  1.0000
  H   H1486     1.0  0.55133  0.74448  0.05439  1.0000
  H   H1487     1.0  0.66625  0.93757  0.02494  1.0000
  C   C933      1.0  0.54018  0.68191  0.19301  1.0000
  H   H1488     1.0  0.50374  0.80336  0.11338  1.0000
  C   C934      1.0  0.52568  0.79847  0.20846  1.0000
  H   H1489     1.0  0.51249  0.79428  0.23710  1.0000
  H   H1490     1.0  0.54133  0.69704  0.19374  1.0000
  S   S381      1.0  0.52238  0.77930  0.14455  1.0000
  S   S382      1.0  0.52011  0.77586  0.20219  1.0000
  H   H1491     1.0  0.50323  0.82452  0.09742  1.0000
  H   H1492     1.0  0.48242  0.86939  0.19479  1.0000
  C   C935      1.0  0.51181  0.77808  0.08663  1.0000
  C   C936      1.0  0.50143  0.80896  0.09854  1.0000
  C   C937      1.0  0.53501  0.80087  0.08814  1.0000
  H   H1493     1.0  0.53781  0.81618  0.08724  1.0000
  H   H1494     1.0  0.53836  0.79457  0.10252  1.0000
  N   N94       1.0  0.51492  0.79860  0.08461  1.0000
  C   C938      1.0  0.52023  0.80384  0.22709  1.0000
  H   H1495     1.0  0.53994  0.80705  0.18127  1.0000
  C   C939      1.0  0.45023  0.68871  0.15355  1.0000
  C   C940      1.0  0.34116  0.86553  0.04969  1.0000
  H   H1496     1.0  0.58948  0.81737  0.24321  1.0000
  H   H1497     1.0  0.47620  0.85115  0.21302  1.0000
  C   C941      1.0  0.46213  0.88620  0.22423  1.0000
  S   S383      1.0  0.54130  0.85588  0.22686  1.0000
  H   H1498     1.0  0.54805  0.83800  0.19147  1.0000
  C   C942      1.0  0.52464  0.82146  0.23288  1.0000
  H   H1499     1.0  0.44319  0.69128  0.14002  1.0000
  C   C943      1.0  0.54016  0.82854  0.20147  1.0000
  H   H1500     1.0  0.35230  0.87640  0.11143  1.0000
  H   H1501     1.0  0.44346  0.72440  0.16643  1.0000
  H   H1502     1.0  0.52022  0.82539  0.24721  1.0000
  H   H1503     1.0  0.48121  0.68416  0.17389  1.0000
  H   H1504     1.0  0.34890  0.87278  0.03770  1.0000
  H   H1505     1.0  0.49000  0.71173  0.13897  1.0000
  H   H1506     1.0  0.64221  0.93057  0.03020  1.0000
  H   H1507     1.0  0.66260  0.91411  0.03586  1.0000
  H   H1508     1.0  0.35431  0.90075  0.13448  1.0000
  H   H1509     1.0  0.47634  0.85718  0.24711  1.0000
  C   C944      1.0  0.46748  0.99413  0.24530  1.0000
  C   C945      1.0  0.65725  0.92535  0.02515  1.0000
  H   H1510     1.0  0.56927  0.83376  0.25058  1.0000
  H   H1511     1.0  0.45735  0.67380  0.15408  1.0000
  Fe  Fe191     1.0  0.60101  0.76789  0.00191  1.0000
  C   C946      1.0  0.65833  0.97184  0.29761  1.0000
  H   H1512     1.0  0.67007  0.75326  0.46282  1.0000
  H   H1513     1.0  0.56995  0.78088  0.25689  1.0000
  Fe  Fe192     1.0  0.36164  0.98380  0.26586  1.0000
  Fe  Fe193     1.0  0.53581  0.86750  0.25630  1.0000
  S   S384      1.0  0.47221  0.89318  0.28876  1.0000
  H   H1514     1.0  0.43223  0.90779  0.28884  1.0000
  C   C947      1.0  0.52348  0.85833  0.43958  1.0000
  H   H1515     1.0  0.65173  0.87446  0.43395  1.0000
  C   C948      1.0  0.44024  0.91585  0.27764  1.0000
  H   H1516     1.0  0.63700  0.89293  0.44621  1.0000
  C   C949      1.0  0.46039  0.91193  0.27474  1.0000
  C   C950      1.0  0.58458  0.81553  0.28137  1.0000
  S   S385      1.0  0.34655  0.97525  0.29488  1.0000
  H   H1517     1.0  0.58316  0.80820  0.29592  1.0000
  H   H1518     1.0  0.59416  0.78513  0.26045  1.0000
  H   H1519     1.0  0.45238  0.98886  0.28133  1.0000
  H   H1520     1.0  0.52264  0.87395  0.44129  1.0000
  N   N95       1.0  0.57249  0.80767  0.26850  1.0000
  H   H1521     1.0  0.64985  0.87372  0.45939  1.0000
  H   H1522     1.0  0.53900  0.85270  0.43876  1.0000
  H   H1523     1.0  0.51837  0.85635  0.42552  1.0000
  N   N96       1.0  0.51215  0.84823  0.45529  1.0000
  H   H1524     1.0  0.65436  0.96616  0.31242  1.0000
  C   C951      1.0  0.63143  0.75635  0.46926  1.0000
  H   H1525     1.0  0.51860  0.86630  0.47649  1.0000
  Fe  Fe194     1.0  0.57773  0.76763  0.44948  1.0000
  S   S386      1.0  0.58369  0.73505  0.45357  1.0000
  S   S387      1.0  0.58626  0.78240  0.47398  1.0000
  H   H1526     1.0  0.57205  0.80839  0.34443  1.0000
  H   H1527     1.0  0.65358  0.72330  0.46456  1.0000
  H   H1528     1.0  0.65260  0.91614  0.46300  1.0000
  H   H1529     1.0  0.48609  0.92003  0.25824  1.0000
  H   H1530     1.0  0.41484  0.93287  0.26833  1.0000
  H   H1531     1.0  0.56649  0.68434  0.43254  1.0000
  H   H1532     1.0  0.54691  0.82495  0.27807  1.0000
  C   C952      1.0  0.61318  0.69000  0.41380  1.0000
  C   C953      1.0  0.61015  0.70928  0.40690  1.0000
  C   C954      1.0  0.60098  0.72330  0.41877  1.0000
  C   C955      1.0  0.59507  0.71817  0.43777  1.0000
  C   C956      1.0  0.59849  0.69897  0.44476  1.0000
  C   C957      1.0  0.60744  0.68494  0.43283  1.0000
  H   H1533     1.0  0.61468  0.71335  0.39220  1.0000
  H   H1534     1.0  0.59837  0.73800  0.41316  1.0000
  H   H1535     1.0  0.59425  0.69497  0.45954  1.0000
  H   H1536     1.0  0.65048  0.98218  0.26157  1.0000
  H   H1537     1.0  0.65998  0.77453  0.45025  1.0000
  N   N97       1.0  0.64303  0.75060  0.45171  1.0000
  S   S388      1.0  0.54811  0.78393  0.45023  1.0000
  H   H1538     1.0  0.57762  0.77879  0.28051  1.0000
  Fe  Fe195     1.0  0.55764  0.80017  0.47301  1.0000
  H   H1539     1.0  0.60009  0.81413  0.27596  1.0000
  S   S389      1.0  0.59091  0.78808  0.42700  1.0000
  H   H1540     1.0  0.62711  0.94927  0.27542  1.0000
  H   H1541     1.0  0.66563  0.89661  0.47572  1.0000
  C   C958      1.0  0.55214  0.80967  0.27653  1.0000
  H   H1542     1.0  0.62883  0.77223  0.46934  1.0000
  N   N98       1.0  0.66758  0.89478  0.44542  1.0000
  C   C959      1.0  0.63277  0.75808  0.43500  1.0000
  C   C960      1.0  0.66594  0.90608  0.46231  1.0000
  H   H1543     1.0  0.47860  0.98992  0.25546  1.0000
  C   C961      1.0  0.64591  0.72948  0.45211  1.0000
  S   S390      1.0  0.62528  0.67293  0.39860  1.0000
  H   H1544     1.0  0.43697  0.98006  0.26595  1.0000
  H   H1545     1.0  0.64066  0.75340  0.42151  1.0000
  S   S391      1.0  0.52275  0.89789  0.25925  1.0000
  C   C962      1.0  0.57886  0.78720  0.26651  1.0000
  H   H1546     1.0  0.62698  0.95214  0.30042  1.0000
  Fe  Fe196     1.0  0.53906  0.85952  0.29905  1.0000
  S   S392      1.0  0.55946  0.87057  0.27494  1.0000
  S   S393      1.0  0.55251  0.83473  0.31788  1.0000
  Fe  Fe197     1.0  0.54452  0.89981  0.28019  1.0000
  C   C963      1.0  0.57288  0.94160  0.27128  1.0000
  S   S394      1.0  0.51630  0.85487  0.27991  1.0000
  S   S395      1.0  0.52551  0.88887  0.30555  1.0000
  C   C964      1.0  0.49168  0.85596  0.45573  1.0000
  S   S396      1.0  0.57069  0.82270  0.45265  1.0000
  Fe  Fe198     1.0  0.56217  0.80578  0.42967  1.0000
  C   C965      1.0  0.58865  0.97132  0.26656  1.0000
  C   C966      1.0  0.51968  0.85093  0.47357  1.0000
  S   S397      1.0  0.54408  0.82440  0.40880  1.0000
  H   H1547     1.0  0.54254  0.80373  0.26736  1.0000
  C   C967      1.0  0.65079  0.88352  0.44625  1.0000
  C   C968      1.0  0.63384  0.83157  0.47990  1.0000
  C   C969      1.0  0.64257  0.82366  0.46332  1.0000
  H   H1548     1.0  0.53513  0.84524  0.47368  1.0000
  H   H1549     1.0  0.61710  0.75053  0.47069  1.0000
  H   H1550     1.0  0.61883  0.82984  0.48431  1.0000
  H   H1551     1.0  0.56937  0.80400  0.37976  1.0000
  H   H1552     1.0  0.51172  0.84315  0.48572  1.0000
  C   C970      1.0  0.66417  0.84399  0.48548  1.0000
  H   H1553     1.0  0.50548  0.81943  0.46386  1.0000
  H   H1554     1.0  0.50864  0.82492  0.43844  1.0000
  H   H1555     1.0  0.56771  0.96463  0.28998  1.0000
  C   C971      1.0  0.55057  0.83263  0.34319  1.0000
  C   C972      1.0  0.56202  0.81793  0.35265  1.0000
  C   C973      1.0  0.56055  0.81542  0.37271  1.0000
  C   C974      1.0  0.54738  0.82745  0.38353  1.0000
  C   C975      1.0  0.53596  0.84215  0.37406  1.0000
  C   C976      1.0  0.53762  0.84483  0.35403  1.0000
  C   C977      1.0  0.64460  0.84162  0.49090  1.0000
  H   H1556     1.0  0.63098  0.77400  0.43385  1.0000
  H   H1557     1.0  0.52570  0.85153  0.38225  1.0000
  H   H1558     1.0  0.52868  0.85616  0.34698  1.0000
  H   H1559     1.0  0.48563  0.85402  0.44212  1.0000
  S   S398      1.0  0.62993  0.81054  0.44898  1.0000
  H   H1560     1.0  0.59057  0.98520  0.27122  1.0000
  C   C978      1.0  0.51378  0.82759  0.45228  1.0000
  H   H1561     1.0  0.62371  0.97270  0.28394  1.0000
  H   H1562     1.0  0.48991  0.87153  0.45793  1.0000
  S   S399      1.0  0.39161  0.99346  0.26218  1.0000
  H   H1563     1.0  0.52901  0.82139  0.45200  1.0000
  Fe  Fe199     1.0  0.50463  0.88544  0.28413  1.0000
  C   C979      1.0  0.66188  0.75857  0.45044  1.0000
  H   H1564     1.0  0.55027  0.80225  0.29100  1.0000
  Fe  Fe200     1.0  0.59843  0.80349  0.45168  1.0000
  H   H1565     1.0  0.61812  0.75309  0.43595  1.0000
  H   H1566     1.0  0.48279  0.84857  0.46744  1.0000
  C   C980      1.0  0.57568  0.95964  0.27715  1.0000
  C   C981      1.0  0.63177  0.95831  0.28599  1.0000
  H   H1567     1.0  0.58016  0.83100  0.28309  1.0000
  H   H1568     1.0  0.65920  0.93347  0.30061  1.0000
  S   S400      1.0  0.55695  0.92731  0.28572  1.0000
  C   C982      1.0  0.43036  0.93006  0.26604  1.0000
  H   H1569     1.0  0.50894  0.78942  0.48659  1.0000
  H   H1570     1.0  0.63181  0.72322  0.45309  1.0000
  C   C983      1.0  0.66214  0.82601  0.45789  1.0000
  H   H1571     1.0  0.63876  0.75110  0.48218  1.0000
  H   H1572     1.0  0.65109  0.98664  0.29585  1.0000
  H   H1573     1.0  0.54757  0.67713  0.42029  1.0000
  N   N99       1.0  0.65284  0.95953  0.28348  1.0000
  C   C984      1.0  0.58321  0.93532  0.25465  1.0000
  C   C985      1.0  0.47059  0.92253  0.26031  1.0000
  H   H1574     1.0  0.42138  0.85380  0.49931  1.0000
  H   H1575     1.0  0.65445  0.72458  0.43900  1.0000
  H   H1576     1.0  0.42905  0.00129  0.27808  1.0000
  H   H1577     1.0  0.66971  0.89979  0.41498  1.0000
  H   H1578     1.0  0.65497  0.91801  0.42764  1.0000
  C   C986      1.0  0.66298  0.94017  0.28612  1.0000
  H   H1579     1.0  0.65450  0.95891  0.25298  1.0000
  H   H1580     1.0  0.54921  0.67851  0.46386  1.0000
  C   C987      1.0  0.66823  0.90786  0.42800  1.0000
  H   H1581     1.0  0.66909  0.81988  0.44515  1.0000
  C   C988      1.0  0.65828  0.96783  0.26411  1.0000
  S   S401      1.0  0.53917  0.81008  0.49964  1.0000
  H   H1582     1.0  0.65909  0.93058  0.27565  1.0000
  H   H1583     1.0  0.40783  0.83448  0.49501  1.0000
  H   H1584     1.0  0.48463  0.87889  0.25325  1.0000
  C   C989      1.0  0.50388  0.79454  0.50036  1.0000
  H   H1585     1.0  0.52912  0.67250  0.45240  1.0000
  C   C990      1.0  0.44183  0.99334  0.27067  1.0000
  H   H1586     1.0  0.47600  0.78374  0.50111  1.0000
  C   C991      1.0  0.56069  0.67171  0.42750  1.0000
  C   C992      1.0  0.47838  0.79748  0.52677  1.0000
  Fe  Fe201     1.0  0.41488  0.77303  0.59791  1.0000
  S   S402      1.0  0.40841  0.78768  0.56946  1.0000
  S   S403      1.0  0.40437  0.74639  0.61486  1.0000
  H   H1587     1.0  0.43125  0.77925  0.65774  1.0000
  S   S404      1.0  0.44621  0.77839  0.59376  1.0000
  H   H1588     1.0  0.47837  0.75083  0.64717  1.0000
  Fe  Fe202     1.0  0.43935  0.79533  0.56644  1.0000
  H   H1589     1.0  0.43255  0.73010  0.64155  1.0000
  C   C993      1.0  0.44664  0.74454  0.67073  1.0000
  H   H1590     1.0  0.45884  0.73337  0.67293  1.0000
  C   C994      1.0  0.44617  0.73707  0.63811  1.0000
  C   C995      1.0  0.40332  0.68397  0.59982  1.0000
  C   C996      1.0  0.41014  0.69777  0.58599  1.0000
  C   C997      1.0  0.41061  0.71692  0.59030  1.0000
  C   C998      1.0  0.40413  0.72251  0.60851  1.0000
  C   C999      1.0  0.39723  0.70872  0.62232  1.0000
  C   C1000     1.0  0.39683  0.68955  0.61804  1.0000
  H   H1591     1.0  0.41521  0.69361  0.57186  1.0000
  H   H1592     1.0  0.41597  0.72734  0.57952  1.0000
  H   H1593     1.0  0.39217  0.71289  0.63646  1.0000
  C   C1001     1.0  0.42732  0.96740  0.74336  1.0000
  N   N100      1.0  0.44732  0.75254  0.65077  1.0000
  C   C1002     1.0  0.46556  0.76140  0.64566  1.0000
  C   C1003     1.0  0.43085  0.76721  0.64856  1.0000
  H   H1594     1.0  0.41677  0.76108  0.65191  1.0000
  C   C1004     1.0  0.34351  0.85606  0.56793  1.0000
  H   H1595     1.0  0.45844  0.72579  0.63921  1.0000
  H   H1596     1.0  0.43109  0.77355  0.63372  1.0000
  S   S405      1.0  0.40577  0.79974  0.61338  1.0000
  H   H1597     1.0  0.43298  0.73784  0.67499  1.0000
  H   H1598     1.0  0.42449  0.86134  0.53234  1.0000
  H   H1599     1.0  0.44630  0.74272  0.62295  1.0000
  H   H1600     1.0  0.46675  0.77335  0.65474  1.0000
  H   H1601     1.0  0.54837  0.84284  0.74051  1.0000
  S   S406      1.0  0.45434  0.79363  0.53616  1.0000
  H   H1602     1.0  0.46644  0.76768  0.63068  1.0000
  H   H1603     1.0  0.44746  0.75590  0.68060  1.0000
  Fe  Fe203     1.0  0.43680  0.80568  0.60839  1.0000
  Fe  Fe204     1.0  0.46205  0.87522  0.72191  1.0000
  S   S407      1.0  0.49140  0.86433  0.73069  1.0000
  S   S408      1.0  0.44671  0.87228  0.69517  1.0000
  S   S409      1.0  0.46572  0.90545  0.72850  1.0000
  C   C1005     1.0  0.53680  0.85175  0.74857  1.0000
  S   S410      1.0  0.43245  0.82298  0.58063  1.0000
  S   S411      1.0  0.37773  0.83863  0.57960  1.0000
  H   H1604     1.0  0.39471  0.82126  0.54608  1.0000
  H   H1605     1.0  0.36289  0.81199  0.55573  1.0000
  H   H1606     1.0  0.42004  0.91333  0.73593  1.0000
  C   C1006     1.0  0.35316  0.82495  0.55614  1.0000
  C   C1007     1.0  0.35662  0.83952  0.56733  1.0000
  H   H1607     1.0  0.41247  0.84815  0.55189  1.0000
  H   H1608     1.0  0.63768  0.84761  0.50373  1.0000
  S   S412      1.0  0.40400  0.00099  0.74192  1.0000
  C   C1008     1.0  0.44903  0.85444  0.67832  1.0000
  C   C1009     1.0  0.46325  0.83893  0.67861  1.0000
  C   C1010     1.0  0.46471  0.82545  0.66467  1.0000
  C   C1011     1.0  0.45194  0.82719  0.65030  1.0000
  C   C1012     1.0  0.43758  0.84258  0.65014  1.0000
  C   C1013     1.0  0.43620  0.85612  0.66400  1.0000
  H   H1609     1.0  0.42765  0.84416  0.63922  1.0000
  H   H1610     1.0  0.42515  0.86803  0.66356  1.0000
  H   H1611     1.0  0.43597  0.97415  0.73171  1.0000
  C   C1014     1.0  0.53526  0.91889  0.74719  1.0000
  H   H1612     1.0  0.40272  0.94421  0.72481  1.0000
  H   H1613     1.0  0.39425  0.94698  0.70156  1.0000
  S   S413      1.0  0.45473  0.80983  0.63295  1.0000
  C   C1015     1.0  0.39671  0.93653  0.71393  1.0000
  H   H1614     1.0  0.39158  0.67911  0.62885  1.0000
  H   H1615     1.0  0.39270  0.86852  0.51829  1.0000
  Fe  Fe205     1.0  0.49384  0.89379  0.73994  1.0000
  H   H1616     1.0  0.47594  0.81369  0.66493  1.0000
  C   C1016     1.0  0.38935  0.85389  0.52381  1.0000
  Fe  Fe206     1.0  0.40185  0.81474  0.58457  1.0000
  C   C1017     1.0  0.41988  0.84699  0.53729  1.0000
  H   H1617     1.0  0.57743  0.94005  0.74557  1.0000
  H   H1618     1.0  0.39873  0.91917  0.68115  1.0000
  H   H1619     1.0  0.66833  0.89649  0.57466  1.0000
  C   C1018     1.0  0.50905  0.81074  0.52790  1.0000
  H   H1620     1.0  0.47327  0.83743  0.68944  1.0000
  H   H1621     1.0  0.51819  0.81839  0.53544  1.0000
  C   C1019     1.0  0.41294  0.90649  0.72529  1.0000
  H   H1622     1.0  0.41105  0.89696  0.68963  1.0000
  H   H1623     1.0  0.43050  0.82940  0.50520  1.0000
  C   C1020     1.0  0.42854  0.92606  0.69997  1.0000
  C   C1021     1.0  0.48519  0.79129  0.50867  1.0000
  H   H1624     1.0  0.37893  0.84907  0.51474  1.0000
  H   H1625     1.0  0.34599  0.86743  0.57653  1.0000
  H   H1626     1.0  0.43537  0.93377  0.71024  1.0000
  N   N101      1.0  0.40701  0.84043  0.52434  1.0000
  H   H1627     1.0  0.43890  0.91367  0.69578  1.0000
  H   H1628     1.0  0.42682  0.93588  0.68702  1.0000
  N   N102      1.0  0.40986  0.91969  0.70833  1.0000
  C   C1022     1.0  0.40131  0.90967  0.69416  1.0000
  S   S414      1.0  0.60842  0.98134  0.75004  1.0000
  H   H1629     1.0  0.66186  0.99267  0.72214  1.0000
  C   C1023     1.0  0.41713  0.83953  0.50507  1.0000
  C   C1024     1.0  0.51592  0.80441  0.50989  1.0000
  H   H1630     1.0  0.48552  0.81210  0.55025  1.0000
  C   C1025     1.0  0.49050  0.80717  0.53638  1.0000
  H   H1631     1.0  0.39150  0.81591  0.52238  1.0000
  H   H1632     1.0  0.42237  0.89337  0.72159  1.0000
  S   S415      1.0  0.52273  0.90619  0.73240  1.0000
  H   H1633     1.0  0.55846  0.92329  0.72538  1.0000
  H   H1634     1.0  0.38171  0.85513  0.53830  1.0000
  H   H1635     1.0  0.36832  0.68203  0.57399  1.0000
  H   H1636     1.0  0.43312  0.83683  0.53847  1.0000
  H   H1637     1.0  0.38732  0.90443  0.70005  1.0000
  H   H1638     1.0  0.38243  0.93229  0.72020  1.0000
  H   H1639     1.0  0.41468  0.81053  0.53153  1.0000
  C   C1026     1.0  0.40174  0.82117  0.53134  1.0000
  C   C1027     1.0  0.55302  0.92550  0.73995  1.0000
  H   H1640     1.0  0.35388  0.67320  0.55752  1.0000
  S   S416      1.0  0.66215  0.95249  0.73637  1.0000
  H   H1641     1.0  0.39914  0.90185  0.73240  1.0000
  H   H1642     1.0  0.35857  0.67899  0.60861  1.0000
  H   H1643     1.0  0.44591  0.94096  0.74388  1.0000
  H   H1644     1.0  0.66332  0.86208  0.57467  1.0000
  H   H1645     1.0  0.33871  0.70068  0.58779  1.0000
  H   H1646     1.0  0.53262  0.86458  0.73905  1.0000
  H   H1647     1.0  0.66869  0.88123  0.54405  1.0000
  C   C1028     1.0  0.43292  0.94853  0.75016  1.0000
  S   S417      1.0  0.44717  0.86762  0.75084  1.0000
  C   C1029     1.0  0.33709  0.82722  0.54530  1.0000
  C   C1030     1.0  0.56383  0.93501  0.75138  1.0000
  H   H1648     1.0  0.43786  0.78479  0.82003  1.0000
  H   H1649     1.0  0.46485  0.75251  0.83431  1.0000
  Fe  Fe207     1.0  0.45823  0.74096  0.90614  1.0000
  S   S418      1.0  0.48142  0.71825  0.89674  1.0000
  S   S419      1.0  0.43993  0.73238  0.93312  1.0000
  Fe  Fe208     1.0  0.46884  0.76823  0.87200  1.0000
  S   S420      1.0  0.45741  0.79615  0.85676  1.0000
  Fe  Fe209     1.0  0.47249  0.72523  0.86728  1.0000
  S   S421      1.0  0.47237  0.70544  0.84326  1.0000
  S   S422      1.0  0.44762  0.74598  0.87700  1.0000
  S   S423      1.0  0.47760  0.76477  0.90214  1.0000
  C   C1031     1.0  0.35440  0.73984  0.96178  1.0000
  H   H1650     1.0  0.41171  0.98795  0.82296  1.0000
  H   H1651     1.0  0.55542  0.74143  0.96184  1.0000
  H   H1652     1.0  0.36333  0.73775  0.99797  1.0000
  H   H1653     1.0  0.39027  0.97330  0.84937  1.0000
  H   H1654     1.0  0.42353  0.75768  0.79343  1.0000
  C   C1032     1.0  0.46694  0.80595  0.83439  1.0000
  S   S424      1.0  0.65403  0.81410  0.98543  1.0000
  C   C1033     1.0  0.65648  0.83770  0.97501  1.0000
  C   C1034     1.0  0.43176  0.77128  0.82584  1.0000
  H   H1655     1.0  0.45056  0.68315  0.87334  1.0000
  H   H1656     1.0  0.44493  0.77002  0.78910  1.0000
  H   H1657     1.0  0.41606  0.77300  0.82404  1.0000
  H   H1658     1.0  0.43336  0.77002  0.84140  1.0000
  C   C1035     1.0  0.41666  0.77270  0.97955  1.0000
  C   C1036     1.0  0.42296  0.78030  0.96131  1.0000
  C   C1037     1.0  0.43097  0.76815  0.94711  1.0000
  C   C1038     1.0  0.43252  0.74830  0.95105  1.0000
  C   C1039     1.0  0.42675  0.74075  0.96944  1.0000
  C   C1040     1.0  0.41915  0.75291  0.98372  1.0000
  H   H1659     1.0  0.43536  0.77412  0.93298  1.0000
  H   H1660     1.0  0.42807  0.72541  0.97263  1.0000
  C   C1041     1.0  0.37917  0.97331  0.83914  1.0000
  H   H1661     1.0  0.44661  0.74443  0.78840  1.0000
  C   C1042     1.0  0.50377  0.67204  0.87081  1.0000
  C   C1043     1.0  0.42182  0.93963  0.76514  1.0000
  H   H1662     1.0  0.46930  0.76582  0.81197  1.0000
  H   H1663     1.0  0.43568  0.73459  0.84044  1.0000
  C   C1044     1.0  0.46250  0.75317  0.81900  1.0000
  N   N103      1.0  0.52256  0.68024  0.86859  1.0000
  S   S425      1.0  0.49320  0.74787  0.86061  1.0000
  H   H1664     1.0  0.44086  0.72391  0.81829  1.0000
  N   N104      1.0  0.44171  0.75451  0.81644  1.0000
  C   C1045     1.0  0.43906  0.75675  0.79592  1.0000
  H   H1665     1.0  0.47038  0.74008  0.81310  1.0000
  C   C1046     1.0  0.43361  0.73687  0.82501  1.0000
  H   H1666     1.0  0.41789  0.73737  0.82355  1.0000
  S   S426      1.0  0.63356  0.76572  0.99991  1.0000
  C   C1047     1.0  0.37534  0.76537  0.95777  1.0000
  H   H1667     1.0  0.57489  0.91953  0.85242  1.0000
  S   S427      1.0  0.59847  0.79706  0.98637  1.0000
  H   H1668     1.0  0.51456  0.86075  0.78048  1.0000
  Fe  Fe210     1.0  0.50032  0.74238  0.89097  1.0000
  H   H1669     1.0  0.42120  0.79562  0.95798  1.0000
  H   H1670     1.0  0.56059  0.83065  0.77134  1.0000
  H   H1671     1.0  0.38662  0.97650  0.77277  1.0000
  C   C1048     1.0  0.46300  0.67369  0.82720  1.0000
  H   H1672     1.0  0.49131  0.78484  0.83102  1.0000
  H   H1673     1.0  0.36803  0.77188  0.94523  1.0000
  C   C1049     1.0  0.48358  0.79745  0.82464  1.0000
  S   S428      1.0  0.48064  0.88774  0.76971  1.0000
  H   H1674     1.0  0.59112  0.96649  0.86146  1.0000
  C   C1050     1.0  0.48055  0.82190  0.79819  1.0000
  C   C1051     1.0  0.46398  0.83047  0.80800  1.0000
  H   H1675     1.0  0.51625  0.69685  0.84268  1.0000
  H   H1676     1.0  0.45636  0.84322  0.80172  1.0000
  S   S429      1.0  0.48956  0.83125  0.77544  1.0000
  C   C1052     1.0  0.58338  0.93030  0.85751  1.0000
  C   C1053     1.0  0.59940  0.95904  0.84954  1.0000
  H   H1677     1.0  0.39642  0.94295  0.78487  1.0000
  H   H1678     1.0  0.63603  0.93894  0.99659  1.0000
  S   S430      1.0  0.42803  0.91564  0.77346  1.0000
  C   C1054     1.0  0.39964  0.96883  0.76669  1.0000
  S   S431      1.0  0.66267  0.89995  0.95085  1.0000
  C   C1055     1.0  0.45720  0.82248  0.82599  1.0000
  C   C1056     1.0  0.40517  0.94986  0.77341  1.0000
  H   H1679     1.0  0.54086  0.78330  0.96680  1.0000
  H   H1680     1.0  0.50988  0.70902  0.86390  1.0000
  H   H1681     1.0  0.44435  0.82919  0.83347  1.0000
  N   N105      1.0  0.38074  0.98914  0.82420  1.0000
  C   C1057     1.0  0.49029  0.80535  0.80658  1.0000
  H   H1682     1.0  0.52404  0.84337  0.75141  1.0000
  N   N106      1.0  0.53558  0.75630  0.98201  1.0000
  H   H1683     1.0  0.38118  0.95912  0.83292  1.0000
  S   S432      1.0  0.40409  0.78817  0.99608  1.0000
  H   H1684     1.0  0.38503  0.73553  0.98224  1.0000
  H   H1685     1.0  0.53618  0.83116  0.78211  1.0000
  C   C1058     1.0  0.54247  0.74439  0.99859  1.0000
  N   N107      1.0  0.54323  0.85729  0.76642  1.0000
  H   H1686     1.0  0.47049  0.67956  0.81429  1.0000
  Fe  Fe211     1.0  0.61464  0.00272  0.77017  1.0000
  H   H1687     1.0  0.35099  0.99048  0.81848  1.0000
  H   H1688     1.0  0.40285  0.97297  0.80713  1.0000
  H   H1689     1.0  0.41482  0.74689  0.99781  1.0000
  S   S433      1.0  0.60066  0.75195  0.97563  1.0000
  S   S434      1.0  0.63153  0.78027  0.95432  1.0000
  Fe  Fe212     1.0  0.59929  0.78087  0.96007  1.0000
  S   S435      1.0  0.57619  0.79075  0.94002  1.0000
  Fe  Fe213     1.0  0.63291  0.75233  0.97227  1.0000
  H   H1690     1.0  0.52258  0.88193  0.76764  1.0000
  C   C1059     1.0  0.52084  0.69864  0.85699  1.0000
  S   S436      1.0  0.53097  0.73425  0.89886  1.0000
  C   C1060     1.0  0.56404  0.77486  0.92839  1.0000
  C   C1061     1.0  0.57142  0.75581  0.92638  1.0000
  C   C1062     1.0  0.56121  0.74358  0.91720  1.0000
  C   C1063     1.0  0.54345  0.75019  0.91011  1.0000
  C   C1064     1.0  0.53604  0.76921  0.91219  1.0000
  C   C1065     1.0  0.54638  0.78150  0.92115  1.0000
  H   H1691     1.0  0.58509  0.75057  0.93175  1.0000
  H   H1692     1.0  0.56711  0.72892  0.91558  1.0000
  H   H1693     1.0  0.52245  0.77452  0.90672  1.0000
  H   H1694     1.0  0.54062  0.79624  0.92252  1.0000
  Fe  Fe214     1.0  0.63103  0.79393  0.98196  1.0000
  Fe  Fe215     1.0  0.63816  0.96754  0.75546  1.0000
  H   H1695     1.0  0.36661  0.00022  0.79945  1.0000
  C   C1066     1.0  0.65659  0.98260  0.84824  1.0000
  C   C1067     1.0  0.36576  0.98855  0.81100  1.0000
  H   H1696     1.0  0.51754  0.69357  0.89516  1.0000
  C   C1068     1.0  0.54566  0.77389  0.97920  1.0000
  C   C1069     1.0  0.52733  0.86895  0.77661  1.0000
  H   H1697     1.0  0.65122  0.99391  0.83831  1.0000
  C   C1070     1.0  0.66264  0.94900  0.85791  1.0000
  H   H1698     1.0  0.61362  0.92852  0.83060  1.0000
  C   C1071     1.0  0.40004  0.98702  0.81358  1.0000
  H   H1699     1.0  0.53243  0.73193  0.96648  1.0000
  C   C1072     1.0  0.54867  0.83989  0.77857  1.0000
  N   N108      1.0  0.36215  0.75483  0.97142  1.0000
  H   H1700     1.0  0.66702  0.72571  0.99764  1.0000
  C   C1073     1.0  0.37279  0.74579  0.98731  1.0000
  Fe  Fe216     1.0  0.47686  0.85876  0.76020  1.0000
  C   C1074     1.0  0.55993  0.86865  0.76193  1.0000
  C   C1075     1.0  0.34612  0.76829  0.97896  1.0000
  C   C1076     1.0  0.53965  0.74538  0.96488  1.0000
  H   H1701     1.0  0.40155  0.99834  0.80175  1.0000
  C   C1077     1.0  0.41073  0.97765  0.75163  1.0000
  H   H1702     1.0  0.55345  0.84354  0.79223  1.0000
  H   H1703     1.0  0.50316  0.79867  0.79912  1.0000
  Fe  Fe217     1.0  0.59742  0.96454  0.77670  1.0000
  S   S437      1.0  0.60193  0.98685  0.79658  1.0000
  S   S438      1.0  0.57037  0.94914  0.78553  1.0000
  Fe  Fe218     1.0  0.63177  0.97179  0.79869  1.0000
  S   S439      1.0  0.64566  0.95657  0.82446  1.0000
  S   S440      1.0  0.62644  0.94882  0.78014  1.0000
  H   H1704     1.0  0.54331  0.78233  0.99198  1.0000
  H   H1705     1.0  0.37878  0.75676  0.99484  1.0000
  H   H1706     1.0  0.53451  0.75388  0.95212  1.0000
  H   H1707     1.0  0.61308  0.95198  0.85480  1.0000
  C   C1078     1.0  0.64432  0.86706  0.95771  1.0000
  C   C1079     1.0  0.64200  0.84816  0.96519  1.0000
  C   C1080     1.0  0.66124  0.87566  0.95962  1.0000
  C   C1081     1.0  0.65556  0.96347  0.84479  1.0000
  H   H1708     1.0  0.56493  0.87348  0.77502  1.0000
  H   H1709     1.0  0.57229  0.86030  0.75434  1.0000
  H   H1710     1.0  0.53171  0.87383  0.78995  1.0000
  H   H1711     1.0  0.35164  0.77983  0.98618  1.0000
  H   H1712     1.0  0.53468  0.70537  0.85509  1.0000
  H   H1713     1.0  0.55833  0.74029  0.99650  1.0000
  H   H1714     1.0  0.50899  0.77052  0.97297  1.0000
  C   C1082     1.0  0.55705  0.93787  0.77028  1.0000
  C   C1083     1.0  0.53932  0.93118  0.77755  1.0000
  H   H1715     1.0  0.60359  0.97016  0.83823  1.0000
  H   H1716     1.0  0.53389  0.93339  0.79211  1.0000
  H   H1717     1.0  0.49216  0.68196  0.87762  1.0000
  S   S441      1.0  0.65306  0.72806  0.95967  1.0000
  H   H1718     1.0  0.38092  0.77719  0.96449  1.0000
  H   H1719     1.0  0.36724  0.97472  0.80419  1.0000
  H   H1720     1.0  0.51097  0.76980  0.99813  1.0000
  H   H1721     1.0  0.51469  0.91707  0.77180  1.0000
  S   S442      1.0  0.64504  0.98965  0.77406  1.0000
  Fe  Fe219     1.0  0.45229  0.89732  0.75774  1.0000
  H   H1722     1.0  0.62890  0.84178  0.96355  1.0000
  H   H1723     1.0  0.56154  0.94493  0.82934  1.0000
  C   C1084     1.0  0.52841  0.92186  0.76606  1.0000
  H   H1724     1.0  0.57329  0.96623  0.82382  1.0000
  C   C1085     1.0  0.57016  0.95500  0.83541  1.0000
  H   H1725     1.0  0.59170  0.92521  0.82023  1.0000
  H   H1726     1.0  0.56093  0.96205  0.84702  1.0000
  H   H1727     1.0  0.36624  0.72953  0.95593  1.0000
  H   H1728     1.0  0.60321  0.94661  0.81447  1.0000
  H   H1729     1.0  0.59670  0.92249  0.86282  1.0000
  C   C1086     1.0  0.59968  0.93583  0.82625  1.0000
  H   H1730     1.0  0.57473  0.93676  0.86984  1.0000
  H   H1731     1.0  0.63290  0.87507  0.95034  1.0000
  N   N109      1.0  0.58814  0.94505  0.84220  1.0000
  H   H1732     1.0  0.36476  0.97448  0.84742  1.0000
  H   H1733     1.0  0.54228  0.69007  0.88631  1.0000
  H   H1734     1.0  0.38813  0.75583  0.95245  1.0000
  H   H1735     1.0  0.56151  0.77049  0.97640  1.0000
  H   H1736     1.0  0.34616  0.74613  0.94976  1.0000
  C   C1087     1.0  0.45185  0.67575  0.86041  1.0000
  C   C1088     1.0  0.66466  0.98713  0.86466  1.0000
  C   C1089     1.0  0.52835  0.68351  0.88750  1.0000
  H   H1737     1.0  0.66661  0.95045  0.77899  1.0000
  H   H1738     1.0  0.55166  0.67254  0.85710  1.0000
  H   H1739     1.0  0.33759  0.77530  0.96744  1.0000
  C   C1090     1.0  0.51457  0.76153  0.98530  1.0000
  H   H1740     1.0  0.55615  0.88175  0.75258  1.0000
  H   H1741     1.0  0.66196  0.93414  0.85543  1.0000
  H   H1742     1.0  0.50648  0.74860  0.98739  1.0000
  H   H1743     1.0  0.66542  0.00196  0.86718  1.0000
  H   H1744     1.0  0.65153  0.92816  0.97791  1.0000
  H   H1745     1.0  0.66021  0.94560  0.99124  1.0000
  C   C1091     1.0  0.46150  0.68360  0.84384  1.0000
  H   H1746     1.0  0.64656  0.89604  0.99253  1.0000
  H   H1747     1.0  0.34455  0.73154  0.97183  1.0000
  C   C1092     1.0  0.65117  0.93335  0.99239  1.0000
  H   H1748     1.0  0.53525  0.73096  0.00118  1.0000
  Fe  Fe220     1.0  0.85852  0.11452  0.12774  1.0000
  S   S443      1.0  0.86928  0.13172  0.10162  1.0000
  S   S444      1.0  0.82765  0.10602  0.13395  1.0000
  Fe  Fe221     1.0  0.89624  0.11529  0.14633  1.0000
  S   S445      1.0  0.90988  0.13227  0.12104  1.0000
  S   S446      1.0  0.91577  0.10996  0.17066  1.0000
  Fe  Fe222     1.0  0.88153  0.15005  0.12105  1.0000
  S   S447      1.0  0.87743  0.18253  0.11554  1.0000
  Fe  Fe223     1.0  0.89717  0.11276  0.10317  1.0000
  S   S448      1.0  0.91211  0.10627  0.07405  1.0000
  S   S449      1.0  0.86848  0.13449  0.14740  1.0000
  S   S450      1.0  0.88573  0.09408  0.12832  1.0000
  Fe  Fe224     1.0  0.98386  0.02425  0.02855  1.0000
  S   S451      1.0  0.97386  0.03490  0.05776  1.0000
  C   C1093     1.0  0.92791  0.04806  0.24194  1.0000
  H   H1749     1.0  0.72147  0.17150  0.06351  1.0000
  H   H1750     1.0  0.74490  0.12236  0.09614  1.0000
  H   H1751     1.0  0.90897  0.14995  0.15801  1.0000
  Fe  Fe225     1.0  0.73960  0.08136  0.07533  1.0000
  S   S452      1.0  0.71554  0.08963  0.09725  1.0000
  S   S453      1.0  0.76990  0.09127  0.07325  1.0000
  Fe  Fe226     1.0  0.71372  0.05910  0.05327  1.0000
  S   S454      1.0  0.68757  0.06619  0.07390  1.0000
  S   S455      1.0  0.71701  0.04435  0.02494  1.0000
  Fe  Fe227     1.0  0.69718  0.09603  0.07267  1.0000
  H   H1752     1.0  0.78580  0.03251  0.10775  1.0000
  Fe  Fe228     1.0  0.70775  0.05954  0.09704  1.0000
  S   S456      1.0  0.70307  0.04042  0.12438  1.0000
  S   S457      1.0  0.72176  0.08962  0.05058  1.0000
  S   S458      1.0  0.73339  0.05059  0.07653  1.0000
  C   C1094     1.0  0.71106  0.02261  0.01642  1.0000
  H   H1753     1.0  0.97278  0.02994  0.22526  1.0000
  H   H1754     1.0  0.69634  0.16897  0.02206  1.0000
  C   C1095     1.0  0.68752  0.14843  0.04473  1.0000
  H   H1755     1.0  0.92002  0.03542  0.24046  1.0000
  C   C1096     1.0  0.68676  0.16664  0.03481  1.0000
  H   H1756     1.0  0.69743  0.13681  0.03947  1.0000
  C   C1097     1.0  0.93453  0.27002  0.18398  1.0000
  C   C1098     1.0  0.68790  0.04687  0.14500  1.0000
  H   H1757     1.0  0.67962  0.07578  0.13449  1.0000
  H   H1758     1.0  0.93842  0.29861  0.14313  1.0000
  H   H1759     1.0  0.98877  0.32628  0.16641  1.0000
  H   H1760     1.0  0.97250  0.27189  0.17520  1.0000
  H   H1761     1.0  0.94174  0.20514  0.11801  1.0000
  C   C1099     1.0  0.72120  0.16315  0.07757  1.0000
  C   C1100     1.0  0.96252  0.33168  0.15228  1.0000
  H   H1762     1.0  0.88751  0.18857  0.20033  1.0000
  C   C1101     1.0  0.92884  0.08601  0.06982  1.0000
  C   C1102     1.0  0.93593  0.07391  0.08472  1.0000
  C   C1103     1.0  0.94964  0.05828  0.08078  1.0000
  C   C1104     1.0  0.95625  0.05448  0.06193  1.0000
  C   C1105     1.0  0.94908  0.06651  0.04702  1.0000
  C   C1106     1.0  0.93551  0.08225  0.05098  1.0000
  H   H1763     1.0  0.93092  0.07665  0.09928  1.0000
  H   H1764     1.0  0.95508  0.04905  0.09240  1.0000
  H   H1765     1.0  0.95405  0.06376  0.03246  1.0000
  H   H1766     1.0  0.93009  0.09150  0.03935  1.0000
  C   C1107     1.0  0.81163  0.10242  0.11684  1.0000
  C   C1108     1.0  0.79245  0.09895  0.12299  1.0000
  C   C1109     1.0  0.77939  0.09571  0.10988  1.0000
  C   C1110     1.0  0.78547  0.09564  0.09047  1.0000
  C   C1111     1.0  0.80455  0.09932  0.08432  1.0000
  C   C1112     1.0  0.81756  0.10270  0.09738  1.0000
  H   H1767     1.0  0.78769  0.09884  0.13800  1.0000
  H   H1768     1.0  0.76468  0.09326  0.11478  1.0000
  H   H1769     1.0  0.80941  0.09936  0.06933  1.0000
  H   H1770     1.0  0.83224  0.10530  0.09241  1.0000
  C   C1113     1.0  0.90932  0.10448  0.19520  1.0000
  C   C1114     1.0  0.92351  0.10397  0.20804  1.0000
  C   C1115     1.0  0.91898  0.10010  0.22771  1.0000
  C   C1116     1.0  0.90022  0.09648  0.23471  1.0000
  C   C1117     1.0  0.88604  0.09700  0.22188  1.0000
  C   C1118     1.0  0.89053  0.10104  0.20223  1.0000
  H   H1771     1.0  0.93808  0.10670  0.20273  1.0000
  H   H1772     1.0  0.92998  0.09993  0.23745  1.0000
  H   H1773     1.0  0.87150  0.09415  0.22715  1.0000
  H   H1774     1.0  0.87949  0.10130  0.19250  1.0000
  H   H1775     1.0  0.89199  0.17000  0.15230  1.0000
  H   H1776     1.0  0.89768  0.19487  0.04763  1.0000
  C   C1119     1.0  0.91388  0.19478  0.11689  1.0000
  H   H1777     1.0  0.91971  0.14430  0.19007  1.0000
  H   H1778     1.0  0.91896  0.18000  0.12034  1.0000
  H   H1779     1.0  0.92009  0.14459  0.07923  1.0000
  H   H1780     1.0  0.69320  0.01906  0.15970  1.0000
  H   H1781     1.0  0.95646  0.24892  0.15829  1.0000
  H   H1782     1.0  0.89675  0.19439  0.07306  1.0000
  H   H1783     1.0  0.73933  0.06042  0.12054  1.0000
  S   S459      1.0  0.92119  0.33106  0.08315  1.0000
  H   H1784     1.0  0.88588  0.13971  0.18449  1.0000
  N   N110      1.0  0.94880  0.04261  0.24283  1.0000
  N   N111      1.0  0.76163  0.03874  0.12833  1.0000
  C   C1120     1.0  0.75149  0.02283  0.12304  1.0000
  C   C1121     1.0  0.74739  0.05509  0.13298  1.0000
  C   C1122     1.0  0.77540  0.04470  0.11227  1.0000
  C   C1123     1.0  0.77220  0.03234  0.14513  1.0000
  H   H1785     1.0  0.86914  0.16014  0.17964  1.0000
  H   H1786     1.0  0.73640  0.05096  0.14468  1.0000
  H   H1787     1.0  0.91073  0.16009  0.20822  1.0000
  C   C1124     1.0  0.85428  0.32963  0.06705  1.0000
  H   H1788     1.0  0.78396  0.05606  0.11608  1.0000
  H   H1789     1.0  0.88013  0.16554  0.05074  1.0000
  C   C1125     1.0  0.67526  0.14526  0.06127  1.0000
  H   H1790     1.0  0.90947  0.16497  0.09145  1.0000
  H   H1791     1.0  0.92056  0.14482  0.04465  1.0000
  N   N112      1.0  0.73572  0.14632  0.07731  1.0000
  C   C1126     1.0  0.73177  0.13384  0.06268  1.0000
  C   C1127     1.0  0.75529  0.15255  0.07283  1.0000
  H   H1792     1.0  0.71753  0.12809  0.06618  1.0000
  H   H1793     1.0  0.74289  0.12141  0.06146  1.0000
  H   H1794     1.0  0.73163  0.14166  0.04840  1.0000
  H   H1795     1.0  0.71984  0.13101  0.10012  1.0000
  H   H1796     1.0  0.72367  0.17296  0.08844  1.0000
  H   H1797     1.0  0.75882  0.16204  0.08355  1.0000
  H   H1798     1.0  0.75673  0.16052  0.05862  1.0000
  H   H1799     1.0  0.76647  0.14002  0.07264  1.0000
  H   H1800     1.0  0.73805  0.14428  0.10748  1.0000
  N   N113      1.0  0.90754  0.16771  0.06134  1.0000
  C   C1128     1.0  0.91782  0.16051  0.07811  1.0000
  C   C1129     1.0  0.90531  0.18888  0.06017  1.0000
  C   C1130     1.0  0.88829  0.16053  0.06320  1.0000
  C   C1131     1.0  0.91872  0.16080  0.04400  1.0000
  H   H1801     1.0  0.87943  0.16554  0.07613  1.0000
  C   C1132     1.0  0.89450  0.19974  0.11379  1.0000
  S   S460      1.0  0.67608  0.12297  0.07491  1.0000
  C   C1133     1.0  0.83472  0.32714  0.06610  1.0000
  C   C1134     1.0  0.90412  0.16502  0.16111  1.0000
  H   H1802     1.0  0.95003  0.02117  0.22269  1.0000
  H   H1803     1.0  0.96748  0.32228  0.14112  1.0000
  H   H1804     1.0  0.92723  0.16796  0.18869  1.0000
  H   H1805     1.0  0.91626  0.17373  0.15613  1.0000
  H   H1806     1.0  0.91952  0.19485  0.05908  1.0000
  H   H1807     1.0  0.69227  0.01423  0.04087  1.0000
  C   C1135     1.0  0.73458  0.13553  0.09612  1.0000
  H   H1808     1.0  0.87988  0.19258  0.17668  1.0000
  C   C1136     1.0  0.68581  0.03327  0.16058  1.0000
  H   H1809     1.0  0.90414  0.19600  0.18074  1.0000
  S   S461      1.0  0.73405  0.32789  0.04534  1.0000
  N   N114      1.0  0.89824  0.16659  0.18158  1.0000
  H   H1810     1.0  0.74067  0.01827  0.13470  1.0000
  H   H1811     1.0  0.93339  0.16585  0.04220  1.0000
  H   H1812     1.0  0.76168  0.01012  0.11960  1.0000
  C   C1137     1.0  0.91469  0.15949  0.19265  1.0000
  H   H1813     1.0  0.91138  0.16586  0.03103  1.0000
  C   C1138     1.0  0.88195  0.15497  0.18745  1.0000
  C   C1139     1.0  0.67642  0.30991  0.02995  1.0000
  H   H1814     1.0  0.70631  0.15875  0.08088  1.0000
  C   C1140     1.0  0.89218  0.18684  0.18504  1.0000
  H   H1815     1.0  0.95663  0.07082  0.23324  1.0000
  H   H1816     1.0  0.88947  0.14457  0.06432  1.0000
  H   H1817     1.0  0.87748  0.15530  0.20294  1.0000
  H   H1818     1.0  0.93222  0.16601  0.07749  1.0000
  H   H1819     1.0  0.78308  0.02002  0.14214  1.0000
  H   H1820     1.0  0.76218  0.02778  0.15750  1.0000
  C   C1141     1.0  0.95702  0.03419  0.22500  1.0000
  H   H1821     1.0  0.93328  0.25619  0.14971  1.0000
  H   H1822     1.0  0.92909  0.30528  0.16638  1.0000
  H   H1823     1.0  0.96100  0.29566  0.17804  1.0000
  C   C1142     1.0  0.88830  0.21902  0.10902  1.0000
  C   C1143     1.0  0.94717  0.26138  0.15250  1.0000
  C   C1144     1.0  0.92679  0.20906  0.11551  1.0000
  C   C1145     1.0  0.69849  0.01060  0.02687  1.0000
  Fe  Fe229     1.0  0.93036  0.27714  0.09889  1.0000
  S   S462      1.0  0.92399  0.28751  0.06900  1.0000
  S   S463      1.0  0.93719  0.24592  0.10970  1.0000
  Fe  Fe230     1.0  0.92849  0.31804  0.11190  1.0000
  C   C1146     1.0  0.96285  0.28358  0.16857  1.0000
  H   H1824     1.0  0.91735  0.28871  0.15460  1.0000
  Fe  Fe231     1.0  0.90115  0.30819  0.08320  1.0000
  S   S464      1.0  0.86952  0.31042  0.07707  1.0000
  Fe  Fe232     1.0  0.94474  0.30959  0.07132  1.0000
  S   S465      1.0  0.96658  0.32355  0.04964  1.0000
  S   S466      1.0  0.90668  0.29654  0.11297  1.0000
  S   S467      1.0  0.95289  0.29774  0.10030  1.0000
  H   H1825     1.0  0.75442  0.06723  0.13746  1.0000
  C   C1147     1.0  0.98520  0.31264  0.03388  1.0000
  H   H1826     1.0  0.77999  0.04403  0.14955  1.0000
  H   H1827     1.0  0.97921  0.28358  0.04182  1.0000
  C   C1148     1.0  0.71146  0.32144  0.03997  1.0000
  C   C1149     1.0  0.70874  0.30194  0.03988  1.0000
  C   C1150     1.0  0.69128  0.29618  0.03499  1.0000
  H   H1828     1.0  0.92508  0.05855  0.22966  1.0000
  H   H1829     1.0  0.99702  0.00903  0.08520  1.0000
  H   H1830     1.0  0.94347  0.25786  0.19079  1.0000
  H   H1831     1.0  0.72029  0.29121  0.04347  1.0000
  H   H1832     1.0  0.68944  0.28112  0.03490  1.0000
  C   C1151     1.0  0.93168  0.29307  0.15709  1.0000
  C   C1152     1.0  0.67406  0.03784  0.17728  1.0000
  H   H1833     1.0  0.95501  0.04454  0.21244  1.0000
  H   H1834     1.0  0.82935  0.31369  0.07150  1.0000
  H   H1835     1.0  0.93199  0.28155  0.19408  1.0000
  H   H1836     1.0  0.97054  0.28870  0.15489  1.0000
  H   H1837     1.0  0.74338  0.02712  0.11040  1.0000
  H   H1838     1.0  0.76785  0.05057  0.09961  1.0000
  C   C1153     1.0  0.90124  0.23324  0.10744  1.0000
  C   C1154     1.0  0.92055  0.22837  0.11078  1.0000
  H   H1839     1.0  0.87336  0.22303  0.10652  1.0000
  H   H1840     1.0  0.89621  0.24802  0.10377  1.0000
  C   C1155     1.0  0.98831  0.29280  0.03285  1.0000
  H   H1841     1.0  0.92027  0.26503  0.18218  1.0000
  H   H1842     1.0  0.95428  0.26622  0.13840  1.0000
  N   N115      1.0  0.94407  0.27699  0.16555  1.0000
  S   S468      1.0  0.67285  0.20422  0.02781  1.0000
  C   C1156     1.0  0.69641  0.33518  0.03538  1.0000
  H   H1843     1.0  0.97424  0.05622  0.24642  1.0000
  C   C1157     1.0  0.67906  0.32943  0.03020  1.0000
  C   C1158     1.0  0.95849  0.05980  0.24527  1.0000
  C   C1159     1.0  0.67351  0.18174  0.04108  1.0000
  H   H1844     1.0  0.67251  0.02720  0.18909  1.0000
  C   C1160     1.0  0.99724  0.32436  0.02204  1.0000
  C   C1161     1.0  0.97458  0.33403  0.16659  1.0000
  C   C1162     1.0  0.67819  0.06517  0.14634  1.0000
  H   H1845     1.0  0.96108  0.33618  0.09129  1.0000
  C   C1163     1.0  0.00329  0.28482  0.02018  1.0000
  S   S469      1.0  0.98969  0.18553  0.36150  1.0000
  Fe  Fe233     1.0  0.78049  0.04084  0.36565  1.0000
  S   S470      1.0  0.75463  0.06269  0.36537  1.0000
  S   S471      1.0  0.80702  0.03956  0.34408  1.0000
  H   H1846     1.0  0.67409  0.05176  0.33454  1.0000
  S   S472      1.0  0.73418  0.03524  0.39998  1.0000
  Fe  Fe234     1.0  0.73658  0.03785  0.36787  1.0000
  S   S473      1.0  0.70791  0.04275  0.35452  1.0000
  Fe  Fe235     1.0  0.75320  0.05929  0.39738  1.0000
  S   S474      1.0  0.74223  0.08576  0.41320  1.0000
  C   C1164     1.0  0.70724  0.01435  0.30642  1.0000
  S   S475      1.0  0.78068  0.03969  0.39740  1.0000
  Fe  Fe236     1.0  0.91380  0.08853  0.28309  1.0000
  S   S476      1.0  0.91980  0.05982  0.29885  1.0000
  Fe  Fe237     1.0  0.93350  0.10963  0.31155  1.0000
  S   S477      1.0  0.94116  0.08227  0.32918  1.0000
  S   S478      1.0  0.93477  0.14105  0.31711  1.0000
  Fe  Fe238     1.0  0.94942  0.06899  0.30108  1.0000
  S   S479      1.0  0.97663  0.05075  0.28981  1.0000
  Fe  Fe239     1.0  0.91099  0.07509  0.32548  1.0000
  S   S480      1.0  0.88996  0.06670  0.35070  1.0000
  S   S481      1.0  0.94370  0.09709  0.28356  1.0000
  S   S482      1.0  0.90299  0.10307  0.30963  1.0000
  C   C1165     1.0  0.91515  0.18113  0.41244  1.0000
  H   H1847     1.0  0.84872  0.32945  0.46288  1.0000
  H   H1848     1.0  0.83906  0.08398  0.32699  1.0000
  H   H1849     1.0  0.86115  0.09499  0.32221  1.0000
  H   H1850     1.0  0.70952  0.09611  0.38516  1.0000
  H   H1851     1.0  0.87125  0.07648  0.29511  1.0000
  C   C1166     1.0  0.79281  0.14834  0.49228  1.0000
  H   H1852     1.0  0.71570  0.07102  0.38377  1.0000
  H   H1853     1.0  0.97779  0.33833  0.33404  1.0000
  C   C1167     1.0  0.98420  0.02133  0.31781  1.0000
  C   C1168     1.0  0.98943  0.02963  0.29966  1.0000
  C   C1169     1.0  0.94726  0.18606  0.39863  1.0000
  C   C1170     1.0  0.70141  0.03441  0.33322  1.0000
  C   C1171     1.0  0.70362  0.08248  0.38286  1.0000
  H   H1854     1.0  0.81641  0.16679  0.46651  1.0000
  C   C1172     1.0  0.68930  0.02134  0.29988  1.0000
  H   H1855     1.0  0.69939  0.08327  0.36805  1.0000
  C   C1173     1.0  0.71333  0.02092  0.32294  1.0000
  C   C1174     1.0  0.67155  0.09393  0.39526  1.0000
  C   C1175     1.0  0.84912  0.31672  0.49945  1.0000
  H   H1856     1.0  0.90525  0.19390  0.37764  1.0000
  C   C1176     1.0  0.74853  0.08956  0.43612  1.0000
  C   C1177     1.0  0.73826  0.10439  0.44619  1.0000
  C   C1178     1.0  0.74314  0.10813  0.46428  1.0000
  C   C1179     1.0  0.75860  0.09725  0.47228  1.0000
  C   C1180     1.0  0.76889  0.08248  0.46218  1.0000
  C   C1181     1.0  0.76379  0.07853  0.44426  1.0000
  H   H1857     1.0  0.72645  0.11302  0.44000  1.0000
  H   H1858     1.0  0.73505  0.11949  0.47193  1.0000
  H   H1859     1.0  0.78087  0.07400  0.46826  1.0000
  H   H1860     1.0  0.77182  0.06710  0.43666  1.0000
  C   C1182     1.0  0.86716  0.05851  0.34901  1.0000
  C   C1183     1.0  0.86348  0.04891  0.33344  1.0000
  C   C1184     1.0  0.84509  0.04278  0.33246  1.0000
  C   C1185     1.0  0.83015  0.04642  0.34686  1.0000
  C   C1186     1.0  0.83391  0.05566  0.36263  1.0000
  C   C1187     1.0  0.85240  0.06154  0.36375  1.0000
  H   H1861     1.0  0.87486  0.04609  0.32225  1.0000
  H   H1862     1.0  0.84237  0.03533  0.32038  1.0000
  H   H1863     1.0  0.82256  0.05849  0.37386  1.0000
  H   H1864     1.0  0.85520  0.06878  0.37595  1.0000
  C   C1188     1.0  0.97451  0.17323  0.34897  1.0000
  C   C1189     1.0  0.95915  0.18297  0.33985  1.0000
  C   C1190     1.0  0.94720  0.17282  0.33026  1.0000
  C   C1191     1.0  0.95044  0.15283  0.32955  1.0000
  C   C1192     1.0  0.96577  0.14303  0.33873  1.0000
  C   C1193     1.0  0.97775  0.15321  0.34834  1.0000
  C   C1194     1.0  0.67746  0.03494  0.31009  1.0000
  H   H1865     1.0  0.93549  0.18057  0.32311  1.0000
  H   H1866     1.0  0.96848  0.12766  0.33829  1.0000
  H   H1867     1.0  0.98964  0.14553  0.35528  1.0000
  C   C1195     1.0  0.84592  0.09593  0.31861  1.0000
  H   H1868     1.0  0.90045  0.17778  0.40998  1.0000
  C   C1196     1.0  0.97618  0.33358  0.30457  1.0000
  H   H1869     1.0  0.82303  0.09381  0.27880  1.0000
  H   H1870     1.0  0.86818  0.11231  0.29000  1.0000
  H   H1871     1.0  0.94575  0.03429  0.27280  1.0000
  H   H1872     1.0  0.92135  0.05488  0.25501  1.0000
  H   H1873     1.0  0.81795  0.08213  0.30201  1.0000
  H   H1874     1.0  0.69939  0.09083  0.41940  1.0000
  S   S483      1.0  0.68208  0.01223  0.27930  1.0000
  H   H1875     1.0  0.81721  0.13138  0.46570  1.0000
  H   H1876     1.0  0.91543  0.15917  0.38267  1.0000
  H   H1877     1.0  0.88646  0.32292  0.49682  1.0000
  C   C1197     1.0  0.92964  0.16288  0.38626  1.0000
  N   N116      1.0  0.79173  0.15066  0.47148  1.0000
  H   H1878     1.0  0.69197  0.04800  0.39459  1.0000
  H   H1879     1.0  0.96567  0.29171  0.28896  1.0000
  C   C1198     1.0  0.80180  0.13359  0.46269  1.0000
  H   H1880     1.0  0.83844  0.10950  0.32379  1.0000
  H   H1881     1.0  0.97197  0.02782  0.32638  1.0000
  C   C1199     1.0  0.91989  0.19663  0.38092  1.0000
  N   N117      1.0  0.92797  0.18165  0.39457  1.0000
  H   H1882     1.0  0.79504  0.12035  0.46827  1.0000
  H   H1883     1.0  0.94654  0.19973  0.40559  1.0000
  N   N118      1.0  0.68733  0.07841  0.39702  1.0000
  H   H1884     1.0  0.00295  0.31264  0.35337  1.0000
  H   H1885     1.0  0.92096  0.17018  0.42317  1.0000
  H   H1886     1.0  0.83246  0.00732  0.39849  1.0000
  C   C1200     1.0  0.97528  0.32811  0.32415  1.0000
  H   H1887     1.0  0.85243  0.11136  0.27186  1.0000
  S   S484      1.0  0.76636  0.10219  0.49429  1.0000
  H   H1888     1.0  0.67553  0.06030  0.37899  1.0000
  H   H1889     1.0  0.79375  0.18098  0.47032  1.0000
  H   H1890     1.0  0.85890  0.30345  0.49717  1.0000
  C   C1201     1.0  0.86203  0.33134  0.46963  1.0000
  C   C1202     1.0  0.95184  0.02843  0.25910  1.0000
  S   S485      1.0  0.99804  0.24160  0.35706  1.0000
  H   H1891     1.0  0.97333  0.32443  0.27682  1.0000
  N   N119      1.0  0.84479  0.09494  0.29798  1.0000
  C   C1203     1.0  0.85602  0.07731  0.29154  1.0000
  C   C1204     1.0  0.85280  0.11179  0.28750  1.0000
  H   H1892     1.0  0.95695  0.18760  0.38537  1.0000
  C   C1205     1.0  0.82441  0.09469  0.29422  1.0000
  H   H1893     1.0  0.84971  0.06429  0.29821  1.0000
  H   H1894     1.0  0.85645  0.07669  0.27584  1.0000
  C   C1206     1.0  0.68346  0.04135  0.32671  1.0000
  Fe  Fe240     1.0  0.99494  0.25112  0.38692  1.0000
  H   H1895     1.0  0.93947  0.16284  0.37289  1.0000
  H   H1896     1.0  0.95666  0.19837  0.33987  1.0000
  H   H1897     1.0  0.76988  0.15406  0.45176  1.0000
  H   H1898     1.0  0.91361  0.19523  0.41888  1.0000
  H   H1899     1.0  0.76384  0.14010  0.47338  1.0000
  H   H1900     1.0  0.76326  0.16562  0.47353  1.0000
  H   H1901     1.0  0.83523  0.31482  0.49378  1.0000
  H   H1902     1.0  0.91872  0.21105  0.38660  1.0000
  H   H1903     1.0  0.84473  0.12540  0.29189  1.0000
  Fe  Fe241     1.0  0.76161  0.01574  0.39737  1.0000
  H   H1904     1.0  0.92916  0.19735  0.36723  1.0000
  H   H1905     1.0  0.96749  0.02434  0.26048  1.0000
  H   H1906     1.0  0.94495  0.01514  0.25772  1.0000
  H   H1907     1.0  0.80125  0.13478  0.44699  1.0000
  H   H1908     1.0  0.93562  0.15119  0.39616  1.0000
  H   H1909     1.0  0.80021  0.17031  0.44806  1.0000
  H   H1910     1.0  0.92306  0.29199  0.45240  1.0000
  Fe  Fe242     1.0  0.98200  0.21651  0.36909  1.0000
  S   S486      1.0  0.95291  0.23165  0.36489  1.0000
  S   S487      1.0  0.96618  0.26843  0.38380  1.0000
  Fe  Fe243     1.0  0.95323  0.24118  0.39441  1.0000
  S   S488      1.0  0.92743  0.23508  0.41542  1.0000
  Fe  Fe244     1.0  0.96868  0.25738  0.35470  1.0000
  S   S489      1.0  0.96222  0.27290  0.32630  1.0000
  S   S490      1.0  0.98169  0.22455  0.39937  1.0000
  H   H1911     1.0  0.00158  0.28856  0.36357  1.0000
  H   H1912     1.0  0.95430  0.17463  0.40811  1.0000
  C   C1207     1.0  0.96764  0.29634  0.31838  1.0000
  C   C1208     1.0  0.97096  0.30958  0.33106  1.0000
  C   C1209     1.0  0.77130  0.15275  0.46733  1.0000
  C   C1210     1.0  0.80094  0.16794  0.46370  1.0000
  C   C1211     1.0  0.97266  0.32040  0.29192  1.0000
  H   H1913     1.0  0.96997  0.30556  0.34616  1.0000
  S   S491      1.0  0.76245  0.01608  0.36554  1.0000
  C   C1212     1.0  0.92001  0.24867  0.43530  1.0000
  C   C1213     1.0  0.90730  0.24124  0.45002  1.0000
  C   C1214     1.0  0.90047  0.25193  0.46570  1.0000
  C   C1215     1.0  0.90600  0.27034  0.46657  1.0000
  C   C1216     1.0  0.91872  0.27776  0.45185  1.0000
  C   C1217     1.0  0.92588  0.26690  0.43638  1.0000
  H   H1914     1.0  0.90266  0.22717  0.44930  1.0000
  H   H1915     1.0  0.89063  0.24610  0.47691  1.0000
  H   H1916     1.0  0.93560  0.27279  0.42511  1.0000
  C   C1218     1.0  0.87597  0.33583  0.49855  1.0000
  H   H1917     1.0  0.81549  0.10779  0.29887  1.0000
  C   C1219     1.0  0.96834  0.30188  0.29883  1.0000
  H   H1918     1.0  0.70583  0.06575  0.41809  1.0000
  S   S492      1.0  0.89386  0.09090  0.25923  1.0000
  H   H1919     1.0  0.81730  0.01884  0.38111  1.0000
  H   H1920     1.0  0.95257  0.06649  0.25857  1.0000
  H   H1921     1.0  0.72714  0.01541  0.32779  1.0000
  S   S493      1.0  0.89654  0.28495  0.48516  1.0000
  C   C1220     1.0  0.69381  0.07725  0.41636  1.0000
  C   C1221     1.0  0.68035  0.06000  0.39355  1.0000
  N   N120      1.0  0.85781  0.33374  0.49021  1.0000
  H   H1922     1.0  0.87239  0.31844  0.46704  1.0000
  H   H1923     1.0  0.67640  0.10801  0.39775  1.0000
  H   H1924     1.0  0.68195  0.07416  0.42747  1.0000
  H   H1925     1.0  0.80797  0.14718  0.49602  1.0000
  H   H1926     1.0  0.78646  0.13513  0.49848  1.0000
  H   H1927     1.0  0.78484  0.16068  0.49949  1.0000
  C   C1222     1.0  0.81987  0.00560  0.39058  1.0000
  C   C1223     1.0  0.80998  0.18081  0.53714  1.0000
  H   H1928     1.0  0.70315  0.06036  0.65437  1.0000
  H   H1929     1.0  0.75567  0.17800  0.60587  1.0000
  S   S494      1.0  0.72627  0.11582  0.53736  1.0000
  Fe  Fe245     1.0  0.75721  0.15959  0.53315  1.0000
  S   S495      1.0  0.73290  0.15595  0.55601  1.0000
  H   H1930     1.0  0.80088  0.14875  0.57104  1.0000
  Fe  Fe246     1.0  0.74481  0.12489  0.55860  1.0000
  S   S496      1.0  0.74958  0.11077  0.58802  1.0000
  Fe  Fe247     1.0  0.71624  0.14736  0.53313  1.0000
  S   S497      1.0  0.68610  0.16024  0.52657  1.0000
  S   S498      1.0  0.77028  0.12929  0.53742  1.0000
  C   C1224     1.0  0.69855  0.04780  0.64805  1.0000
  H   H1931     1.0  0.73756  0.04919  0.64372  1.0000
  H   H1932     1.0  0.72401  0.05289  0.60471  1.0000
  N   N121      1.0  0.78072  0.16463  0.59023  1.0000
  C   C1225     1.0  0.87048  0.31689  0.58533  1.0000
  H   H1933     1.0  0.86892  0.28048  0.59929  1.0000
  H   H1934     1.0  0.80396  0.15060  0.60542  1.0000
  C   C1226     1.0  0.75961  0.16918  0.59349  1.0000
  H   H1935     1.0  0.74206  0.03022  0.62778  1.0000
  H   H1936     1.0  0.83973  0.17655  0.54369  1.0000
  C   C1227     1.0  0.79453  0.19425  0.53296  1.0000
  H   H1937     1.0  0.80828  0.16570  0.53771  1.0000
  C   C1228     1.0  0.75631  0.08578  0.59047  1.0000
  C   C1229     1.0  0.76055  0.07701  0.60833  1.0000
  C   C1230     1.0  0.76602  0.05717  0.61063  1.0000
  C   C1231     1.0  0.76702  0.04588  0.59512  1.0000
  C   C1232     1.0  0.76290  0.05469  0.57728  1.0000
  C   C1233     1.0  0.75752  0.07452  0.57495  1.0000
  H   H1938     1.0  0.75990  0.08566  0.62036  1.0000
  H   H1939     1.0  0.76990  0.05070  0.62426  1.0000
  H   H1940     1.0  0.76391  0.04617  0.56512  1.0000
  H   H1941     1.0  0.75441  0.08108  0.56111  1.0000
  S   S499      1.0  0.77393  0.02088  0.59704  1.0000
  H   H1942     1.0  0.87045  0.30703  0.57385  1.0000
  H   H1943     1.0  0.88333  0.29224  0.61320  1.0000
  H   H1944     1.0  0.98188  0.08660  0.66425  1.0000
  C   C1234     1.0  0.73162  0.03650  0.63900  1.0000
  H   H1945     1.0  0.75204  0.15590  0.59622  1.0000
  H   H1946     1.0  0.77835  0.13862  0.57708  1.0000
  H   H1947     1.0  0.83012  0.30314  0.61133  1.0000
  H   H1948     1.0  0.97286  0.08257  0.68874  1.0000
  C   C1235     1.0  0.78807  0.15431  0.60746  1.0000
  C   C1236     1.0  0.82784  0.18700  0.54042  1.0000
  H   H1949     1.0  0.78126  0.14068  0.61106  1.0000
  Fe  Fe248     1.0  0.75102  0.12231  0.51574  1.0000
  C   C1237     1.0  0.71355  0.05720  0.61689  1.0000
  S   S500      1.0  0.77142  0.18756  0.52942  1.0000
  N   N122      1.0  0.71238  0.04155  0.63209  1.0000
  H   H1950     1.0  0.69932  0.06141  0.61125  1.0000
  C   C1238     1.0  0.79008  0.18255  0.58574  1.0000
  S   S501      1.0  0.85320  0.21370  0.54387  1.0000
  C   C1239     1.0  0.78507  0.15235  0.57413  1.0000
  C   C1240     1.0  0.99521  0.29247  0.58031  1.0000
  H   H1951     1.0  0.69733  0.03614  0.65965  1.0000
  H   H1952     1.0  0.73108  0.02575  0.65134  1.0000
  H   H1953     1.0  0.78451  0.19080  0.57298  1.0000
  H   H1954     1.0  0.77947  0.15963  0.56099  1.0000
  H   H1955     1.0  0.87348  0.32602  0.62078  1.0000
  H   H1956     1.0  0.78743  0.19207  0.59771  1.0000
  H   H1957     1.0  0.85643  0.33288  0.54418  1.0000
  H   H1958     1.0  0.78499  0.16308  0.61998  1.0000
  C   C1241     1.0  0.82618  0.33340  0.55315  1.0000
  H   H1959     1.0  0.75372  0.17739  0.58086  1.0000
  H   H1960     1.0  0.80599  0.17967  0.58258  1.0000
  C   C1242     1.0  0.86819  0.29131  0.61002  1.0000
  C   C1243     1.0  0.85866  0.32406  0.61734  1.0000
  C   C1244     1.0  0.98476  0.27137  0.55897  1.0000
  H   H1961     1.0  0.71850  0.07020  0.62210  1.0000
  C   C1245     1.0  0.98325  0.09047  0.67894  1.0000
  C   C1246     1.0  0.99085  0.01966  0.72932  1.0000
  H   H1962     1.0  0.98179  0.02874  0.73887  1.0000
  H   H1963     1.0  0.97867  0.10605  0.67957  1.0000
  H   H1964     1.0  0.81697  0.23513  0.53402  1.0000
  H   H1965     1.0  0.70519  0.01245  0.63549  1.0000
  Fe  Fe249     1.0  0.88228  0.27323  0.51335  1.0000
  S   S502      1.0  0.89379  0.24902  0.53310  1.0000
  Fe  Fe250     1.0  0.84997  0.28697  0.54307  1.0000
  S   S503      1.0  0.85864  0.26342  0.56477  1.0000
  S   S504      1.0  0.82462  0.30874  0.55084  1.0000
  Fe  Fe251     1.0  0.88915  0.27002  0.55587  1.0000
  S   S505      1.0  0.90800  0.27996  0.57690  1.0000
  Fe  Fe252     1.0  0.86218  0.24423  0.54042  1.0000
  S   S506      1.0  0.88000  0.29462  0.53551  1.0000
  S   S507      1.0  0.85110  0.26736  0.51925  1.0000
  S   S508      1.0  0.97712  0.23173  0.61662  1.0000
  C   C1247     1.0  0.92744  0.26631  0.58737  1.0000
  C   C1248     1.0  0.93824  0.27523  0.59920  1.0000
  C   C1249     1.0  0.95355  0.26485  0.60818  1.0000
  C   C1250     1.0  0.95815  0.24541  0.60546  1.0000
  C   C1251     1.0  0.94743  0.23652  0.59354  1.0000
  C   C1252     1.0  0.93217  0.24693  0.58447  1.0000
  H   H1966     1.0  0.93462  0.29021  0.60160  1.0000
  H   H1967     1.0  0.96151  0.27178  0.61754  1.0000
  H   H1968     1.0  0.95086  0.22146  0.59141  1.0000
  H   H1969     1.0  0.92394  0.23988  0.57544  1.0000
  H   H1970     1.0  0.68386  0.05183  0.64341  1.0000
  H   H1971     1.0  0.97816  0.28371  0.55022  1.0000
  H   H1972     1.0  0.97326  0.26660  0.56981  1.0000
  C   C1253     1.0  0.81513  0.22001  0.53491  1.0000
  H   H1973     1.0  0.99468  0.08304  0.71432  1.0000
  C   C1254     1.0  0.83053  0.20663  0.53932  1.0000
  C   C1255     1.0  0.79725  0.21383  0.53179  1.0000
  H   H1974     1.0  0.98899  0.25939  0.54962  1.0000
  H   H1975     1.0  0.83209  0.32187  0.59262  1.0000
  H   H1976     1.0  0.85027  0.31934  0.63077  1.0000
  H   H1977     1.0  0.69129  0.02781  0.61938  1.0000
  H   H1978     1.0  0.71596  0.01960  0.61229  1.0000
  N   N123      1.0  0.00146  0.27657  0.56802  1.0000
  H   H1979     1.0  0.78542  0.22436  0.52851  1.0000
  H   H1980     1.0  0.98919  0.30542  0.57202  1.0000
  N   N124      1.0  0.85913  0.31007  0.60281  1.0000
  H   H1981     1.0  0.84607  0.31778  0.51504  1.0000
  C   C1256     1.0  0.70590  0.02463  0.62444  1.0000
  C   C1257     1.0  0.99898  0.31710  0.70872  1.0000
  H   H1982     1.0  0.87338  0.33781  0.51402  1.0000
  H   H1983     1.0  0.99889  0.05644  0.69304  1.0000
  H   H1984     1.0  0.99928  0.33666  0.73075  1.0000
  H   H1985     1.0  0.86005  0.28562  0.62318  1.0000
  H   H1986     1.0  0.88585  0.31765  0.58778  1.0000
  H   H1987     1.0  0.68186  0.15967  0.56807  1.0000
  S   S509      1.0  0.73983  0.15302  0.50988  1.0000
  H   H1988     1.0  0.98348  0.31923  0.70837  1.0000
  Fe  Fe253     1.0  0.00006  0.24468  0.63074  1.0000
  C   C1258     1.0  0.83923  0.30806  0.59847  1.0000
  H   H1989     1.0  0.83905  0.29747  0.58765  1.0000
  H   H1990     1.0  0.00037  0.10672  0.70514  1.0000
  H   H1991     1.0  0.99938  0.24782  0.72557  1.0000
  H   H1992     1.0  0.99843  0.25482  0.59086  1.0000
  H   H1993     1.0  0.98389  0.28841  0.59166  1.0000
  H   H1994     1.0  0.86457  0.33136  0.57992  1.0000
  H   H1995     1.0  0.68291  0.00901  0.69699  1.0000
  S   S510      1.0  0.99787  0.29192  0.68118  1.0000
  N   N125      1.0  0.00318  0.08580  0.68422  1.0000
  H   H1996     1.0  0.85181  0.33834  0.61231  1.0000
  H   H1997     1.0  0.73699  0.32982  0.98315  1.0000
  H   H1998     1.0  0.97282  0.32000  0.97505  1.0000
  C   C1259     1.0  0.98062  0.30692  0.96908  1.0000
  H   H1999     1.0  0.96970  0.29755  0.96582  1.0000
  N   N126      1.0  0.68808  0.01883  0.93765  1.0000
  H   H2000     1.0  0.67593  0.03743  0.95932  1.0000
  C   C1260     1.0  0.70719  0.01323  0.92772  1.0000
  H   H2001     1.0  0.97177  0.31255  0.93267  1.0000
  H   H2002     1.0  0.00038  0.33761  0.96305  1.0000
  H   H2003     1.0  0.99211  0.32538  0.92391  1.0000
  H   H2004     1.0  0.67304  0.01672  0.91298  1.0000
  H   H2005     1.0  0.98880  0.29915  0.98056  1.0000
  H   H2006     1.0  0.71758  0.00672  0.93791  1.0000
  H   H2007     1.0  0.72879  0.02658  0.99002  1.0000
  H   H2008     1.0  0.70004  0.02719  0.96218  1.0000
  N   N127      1.0  0.99368  0.31172  0.95204  1.0000
  H   H2009     1.0  0.71351  0.02573  0.91981  1.0000
  C   C1261     1.0  0.98245  0.32165  0.93692  1.0000
  C   C1262     1.0  0.71892  0.01754  0.99819  1.0000
  H   H2010     1.0  0.99408  0.28403  0.94110  1.0000
  C   C1263     1.0  0.67476  0.02717  0.92356  1.0000
  Fe  Fe254     1.0  0.00109  0.03078  0.98767  1.0000
  H   H2011     1.0  0.97451  0.33523  0.94163  1.0000
  C   C1264     1.0  0.69004  0.03306  0.95140  1.0000
  H   H2012     1.0  0.69581  0.04619  0.94421  1.0000
  H   H2013     1.0  0.68014  0.04007  0.91550  1.0000
  H   H2014     1.0  0.71543  0.33055  0.99909  1.0000
  S   S511      1.0  0.97038  0.02897  0.00083  1.0000
  Fe  Fe255     1.0  0.97981  0.36878  0.22319  1.0000
  H   H2015     1.0  0.97010  0.61217  0.23475  1.0000
  Fe  Fe256     1.0  0.78082  0.37832  0.04038  1.0000
  S   S512      1.0  0.76203  0.36694  0.06535  1.0000
  S   S513      1.0  0.81342  0.37812  0.04072  1.0000
  Fe  Fe257     1.0  0.74598  0.39547  0.01929  1.0000
  S   S514      1.0  0.72493  0.38537  0.04319  1.0000
  H   H2016     1.0  0.82789  0.40077  0.10487  1.0000
  Fe  Fe258     1.0  0.74402  0.35785  0.04355  1.0000
  S   S515      1.0  0.76421  0.36722  0.01849  1.0000
  H   H2017     1.0  0.82092  0.60261  0.00744  1.0000
  H   H2018     1.0  0.84391  0.60751  0.03084  1.0000
  H   H2019     1.0  0.69820  0.35020  0.03579  1.0000
  C   C1265     1.0  0.82886  0.35912  0.05075  1.0000
  C   C1266     1.0  0.84839  0.36171  0.05182  1.0000
  H   H2020     1.0  0.95446  0.36899  0.11740  1.0000
  S   S516      1.0  0.92545  0.41770  0.24398  1.0000
  H   H2021     1.0  0.85381  0.37507  0.04622  1.0000
  C   C1267     1.0  0.95883  0.60637  0.24439  1.0000
  H   H2022     1.0  0.76755  0.55645  0.21370  1.0000
  H   H2023     1.0  0.81192  0.65553  0.00411  1.0000
  C   C1268     1.0  0.93811  0.35409  0.16688  1.0000
  C   C1269     1.0  0.95019  0.35651  0.18113  1.0000
  C   C1270     1.0  0.80142  0.40638  0.07963  1.0000
  H   H2024     1.0  0.92394  0.36191  0.16712  1.0000
  H   H2025     1.0  0.94530  0.36609  0.19219  1.0000
  H   H2026     1.0  0.99056  0.45274  0.21167  1.0000
  H   H2027     1.0  0.81629  0.40499  0.07231  1.0000
  S   S517      1.0  0.91586  0.57229  0.24081  1.0000
  Fe  Fe259     1.0  0.74464  0.39560  0.06259  1.0000
  S   S518      1.0  0.98402  0.34833  0.19918  1.0000
  H   H2028     1.0  0.77834  0.38698  0.12000  1.0000
  H   H2029     1.0  0.98929  0.48111  0.23074  1.0000
  H   H2030     1.0  0.79724  0.42178  0.08178  1.0000
  H   H2031     1.0  0.79171  0.40191  0.06963  1.0000
  H   H2032     1.0  0.79514  0.63336  0.02821  1.0000
  H   H2033     1.0  0.82208  0.37277  0.08816  1.0000
  N   N128      1.0  0.80017  0.39450  0.09781  1.0000
  H   H2034     1.0  0.79811  0.36884  0.08394  1.0000
  H   H2035     1.0  0.95911  0.38404  0.06549  1.0000
  H   H2036     1.0  0.80789  0.41662  0.11400  1.0000
  H   H2037     1.0  0.93751  0.45659  0.22304  1.0000
  N   N129      1.0  0.96805  0.36515  0.08914  1.0000
  H   H2038     1.0  0.96865  0.44291  0.20827  1.0000
  H   H2039     1.0  0.95055  0.36072  0.06687  1.0000
  H   H2040     1.0  0.72016  0.55651  0.19475  1.0000
  C   C1271     1.0  0.73223  0.56122  0.20180  1.0000
  C   C1272     1.0  0.84382  0.62270  0.02505  1.0000
  S   S519      1.0  0.97555  0.40082  0.21856  1.0000
  C   C1273     1.0  0.81256  0.40147  0.11097  1.0000
  H   H2041     1.0  0.72690  0.57482  0.20835  1.0000
  C   C1274     1.0  0.77995  0.39586  0.10632  1.0000
  H   H2042     1.0  0.77015  0.39090  0.09669  1.0000
  C   C1275     1.0  0.94411  0.34157  0.15248  1.0000
  H   H2043     1.0  0.97188  0.49395  0.21613  1.0000
  H   H2044     1.0  0.72850  0.53129  0.24178  1.0000
  C   C1276     1.0  0.97325  0.34448  0.09331  1.0000
  H   H2045     1.0  0.98123  0.39145  0.08870  1.0000
  Fe  Fe260     1.0  0.75001  0.51142  0.12864  1.0000
  S   S520      1.0  0.71998  0.52576  0.12639  1.0000
  S   S521      1.0  0.76381  0.48832  0.10942  1.0000
  Fe  Fe261     1.0  0.76096  0.54169  0.15375  1.0000
  S   S522      1.0  0.73196  0.55864  0.15203  1.0000
  S   S523      1.0  0.78141  0.55538  0.17071  1.0000
  Fe  Fe262     1.0  0.71967  0.53040  0.15756  1.0000
  S   S524      1.0  0.69652  0.52737  0.18249  1.0000
  Fe  Fe263     1.0  0.73477  0.55287  0.12112  1.0000
  S   S525      1.0  0.72436  0.57431  0.09773  1.0000
  S   S526      1.0  0.74870  0.51341  0.16041  1.0000
  S   S527      1.0  0.76474  0.53856  0.12219  1.0000
  C   C1277     1.0  0.86105  0.34707  0.05997  1.0000
  C   C1278     1.0  0.74614  0.52858  0.20664  1.0000
  Fe  Fe264     1.0  0.95416  0.39965  0.24429  1.0000
  H   H2046     1.0  0.71598  0.59834  0.06432  1.0000
  N   N130      1.0  0.73941  0.54636  0.21603  1.0000
  H   H2047     1.0  0.94697  0.38723  0.09964  1.0000
  H   H2048     1.0  0.96156  0.43912  0.24317  1.0000
  C   C1279     1.0  0.95130  0.37167  0.10224  1.0000
  C   C1280     1.0  0.79804  0.54479  0.18688  1.0000
  C   C1281     1.0  0.80818  0.55678  0.19638  1.0000
  C   C1282     1.0  0.82119  0.54912  0.20968  1.0000
  C   C1283     1.0  0.82426  0.52930  0.21359  1.0000
  C   C1284     1.0  0.81401  0.51732  0.20417  1.0000
  C   C1285     1.0  0.80094  0.52498  0.19093  1.0000
  H   H2049     1.0  0.80605  0.57213  0.19337  1.0000
  H   H2050     1.0  0.82899  0.55852  0.21676  1.0000
  H   H2051     1.0  0.81633  0.50197  0.20704  1.0000
  H   H2052     1.0  0.79333  0.51555  0.18372  1.0000
  C   C1286     1.0  0.73925  0.58112  0.07712  1.0000
  H   H2053     1.0  0.73421  0.52303  0.20007  1.0000
  H   H2054     1.0  0.80561  0.36481  0.10756  1.0000
  C   C1287     1.0  0.73107  0.59299  0.06251  1.0000
  C   C1288     1.0  0.76992  0.57925  0.05765  1.0000
  C   C1289     1.0  0.75878  0.57439  0.07468  1.0000
  H   H2055     1.0  0.84692  0.63132  0.03668  1.0000
  H   H2056     1.0  0.76530  0.56542  0.08590  1.0000
  C   C1290     1.0  0.98462  0.37577  0.09175  1.0000
  H   H2057     1.0  0.97521  0.36344  0.05903  1.0000
  C   C1291     1.0  0.74072  0.43352  0.09351  1.0000
  C   C1292     1.0  0.73130  0.44352  0.10872  1.0000
  C   C1293     1.0  0.73795  0.46052  0.11366  1.0000
  C   C1294     1.0  0.75435  0.46740  0.10364  1.0000
  C   C1295     1.0  0.76371  0.45744  0.08839  1.0000
  C   C1296     1.0  0.75680  0.44072  0.08319  1.0000
  H   H2058     1.0  0.71885  0.43803  0.11680  1.0000
  H   H2059     1.0  0.73063  0.46805  0.12544  1.0000
  H   H2060     1.0  0.77636  0.46273  0.08051  1.0000
  H   H2061     1.0  0.76405  0.43327  0.07137  1.0000
  C   C1297     1.0  0.80948  0.62828  0.03323  1.0000
  N   N131      1.0  0.73385  0.52026  0.06609  1.0000
  C   C1298     1.0  0.75185  0.52426  0.07363  1.0000
  C   C1299     1.0  0.71883  0.53627  0.06959  1.0000
  C   C1300     1.0  0.72730  0.50234  0.07571  1.0000
  C   C1301     1.0  0.73750  0.51821  0.04542  1.0000
  H   H2062     1.0  0.76323  0.51205  0.07223  1.0000
  H   H2063     1.0  0.74938  0.52680  0.08899  1.0000
  H   H2064     1.0  0.75771  0.53719  0.06614  1.0000
  H   H2065     1.0  0.70505  0.53391  0.06400  1.0000
  H   H2066     1.0  0.71569  0.53822  0.08507  1.0000
  H   H2067     1.0  0.72344  0.55009  0.06280  1.0000
  H   H2068     1.0  0.71340  0.49913  0.07093  1.0000
  H   H2069     1.0  0.72524  0.50313  0.09143  1.0000
  H   H2070     1.0  0.73809  0.48989  0.07292  1.0000
  H   H2071     1.0  0.74231  0.53161  0.03779  1.0000
  H   H2072     1.0  0.72426  0.51501  0.03928  1.0000
  H   H2073     1.0  0.74896  0.50641  0.04232  1.0000
  S   S528      1.0  0.76426  0.40767  0.03878  1.0000
  C   C1302     1.0  0.94635  0.59440  0.23779  1.0000
  H   H2074     1.0  0.81206  0.39273  0.12480  1.0000
  N   N132      1.0  0.96512  0.46580  0.22698  1.0000
  C   C1303     1.0  0.82205  0.34178  0.05806  1.0000
  C   C1304     1.0  0.82565  0.64987  0.01014  1.0000
  H   H2075     1.0  0.81158  0.63696  0.04517  1.0000
  C   C1305     1.0  0.94429  0.46993  0.22469  1.0000
  C   C1306     1.0  0.74225  0.59800  0.04554  1.0000
  H   H2076     1.0  0.75786  0.53104  0.19518  1.0000
  C   C1307     1.0  0.97358  0.48383  0.22890  1.0000
  C   C1308     1.0  0.97487  0.45647  0.21019  1.0000
  H   H2077     1.0  0.98329  0.44937  0.24641  1.0000
  H   H2078     1.0  0.76187  0.54201  0.23510  1.0000
  S   S529      1.0  0.73260  0.41165  0.08843  1.0000
  H   H2079     1.0  0.78500  0.57389  0.05586  1.0000
  H   H2080     1.0  0.80709  0.33954  0.05733  1.0000
  H   H2081     1.0  0.93852  0.36393  0.10063  1.0000
  C   C1309     1.0  0.67230  0.53805  0.18306  1.0000
  H   H2082     1.0  0.77449  0.41087  0.10918  1.0000
  S   S530      1.0  0.84071  0.51872  0.22994  1.0000
  C   C1310     1.0  0.96302  0.36859  0.06928  1.0000
  H   H2083     1.0  0.75107  0.56631  0.23218  1.0000
  H   H2084     1.0  0.74384  0.56457  0.19045  1.0000
  C   C1311     1.0  0.76172  0.59106  0.04302  1.0000
  C   C1312     1.0  0.75563  0.55307  0.22470  1.0000
  H   H2085     1.0  0.99502  0.33972  0.02274  1.0000
  H   H2086     1.0  0.97693  0.34122  0.10823  1.0000
  S   S531      1.0  0.77625  0.59648  0.02174  1.0000
  H   H2087     1.0  0.89753  0.45021  0.24022  1.0000
  H   H2088     1.0  0.73577  0.60716  0.03441  1.0000
  H   H2089     1.0  0.67348  0.54788  0.15346  1.0000
  H   H2090     1.0  0.82800  0.65931  0.02137  1.0000
  H   H2091     1.0  0.75198  0.51710  0.21684  1.0000
  H   H2092     1.0  0.94810  0.59109  0.22304  1.0000
  C   C1313     1.0  0.96848  0.34640  0.18115  1.0000
  C   C1314     1.0  0.72362  0.54251  0.23085  1.0000
  C   C1315     1.0  0.80676  0.37436  0.09429  1.0000
  C   C1316     1.0  0.96775  0.45288  0.24421  1.0000
  N   N133      1.0  0.82514  0.62970  0.01768  1.0000
  H   H2093     1.0  0.98875  0.37342  0.10662  1.0000
  H   H2094     1.0  0.93641  0.47668  0.23728  1.0000
  H   H2095     1.0  0.80852  0.61319  0.03907  1.0000
  H   H2096     1.0  0.85593  0.62356  0.01365  1.0000
  H   H2097     1.0  0.96648  0.49119  0.24146  1.0000
  H   H2098     1.0  0.97345  0.46587  0.19691  1.0000
  H   H2099     1.0  0.99751  0.37110  0.08210  1.0000
  H   H2100     1.0  0.94167  0.47984  0.21196  1.0000
  H   H2101     1.0  0.87606  0.34918  0.06056  1.0000
  S   S532      1.0  0.95654  0.36744  0.24753  1.0000
  C   C1317     1.0  0.82166  0.61790  0.00227  1.0000
  Fe  Fe265     1.0  0.99772  0.40165  0.23942  1.0000
  C   C1318     1.0  0.93141  0.58692  0.25004  1.0000
  H   H2102     1.0  0.71533  0.37298  0.00636  1.0000
  Fe  Fe266     1.0  0.85913  0.53238  0.24914  1.0000
  H   H2103     1.0  0.71810  0.55563  0.23821  1.0000
  S   S533      1.0  0.89153  0.52610  0.24704  1.0000
  H   H2104     1.0  0.71122  0.53744  0.22455  1.0000
  H   H2105     1.0  0.98927  0.67046  0.08339  1.0000
  H   H2106     1.0  0.99797  0.65273  0.06687  1.0000
  C   C1319     1.0  0.99683  0.66829  0.06902  1.0000
  H   H2107     1.0  0.73534  0.34275  0.00414  1.0000
  S   S534      1.0  0.92800  0.33881  0.13521  1.0000
  H   H2108     1.0  0.98572  0.33895  0.08358  1.0000
  H   H2109     1.0  0.69438  0.36201  0.00175  1.0000
  H   H2110     1.0  0.89235  0.36315  0.30813  1.0000
  H   H2111     1.0  0.84363  0.64093  0.50077  1.0000
  Fe  Fe267     1.0  0.99977  0.63716  0.25918  1.0000
  S   S535      1.0  0.98120  0.35717  0.29670  1.0000
  H   H2112     1.0  0.91970  0.34090  0.29490  1.0000
  S   S536      1.0  0.85977  0.56271  0.25689  1.0000
  C   C1320     1.0  0.79569  0.51778  0.49500  1.0000
  Fe  Fe268     1.0  0.98007  0.37030  0.26628  1.0000
  C   C1321     1.0  0.90025  0.37540  0.30178  1.0000
  N   N134      1.0  0.92134  0.37032  0.30038  1.0000
  C   C1322     1.0  0.92631  0.35391  0.28846  1.0000
  H   H2113     1.0  0.88308  0.34836  0.49169  1.0000
  H   H2114     1.0  0.70823  0.65792  0.40266  1.0000
  C   C1323     1.0  0.93115  0.38690  0.29163  1.0000
  H   H2115     1.0  0.94710  0.38368  0.29073  1.0000
  H   H2116     1.0  0.81023  0.49011  0.48902  1.0000
  H   H2117     1.0  0.92746  0.39971  0.29997  1.0000
  H   H2118     1.0  0.98346  0.58066  0.28113  1.0000
  H   H2119     1.0  0.92138  0.35719  0.27398  1.0000
  H   H2120     1.0  0.76029  0.52260  0.47714  1.0000
  H   H2121     1.0  0.88952  0.47912  0.25835  1.0000
  H   H2122     1.0  0.93195  0.45761  0.29661  1.0000
  H   H2123     1.0  0.86613  0.62512  0.45537  1.0000
  H   H2124     1.0  0.83715  0.50595  0.36073  1.0000
  Fe  Fe269     1.0  0.88825  0.51670  0.27800  1.0000
  Fe  Fe270     1.0  0.85856  0.55048  0.28753  1.0000
  S   S537      1.0  0.83494  0.55998  0.31055  1.0000
  C   C1324     1.0  0.69093  0.58888  0.41163  1.0000
  S   S538      1.0  0.85606  0.52063  0.27964  1.0000
  S   S539      1.0  0.89090  0.54578  0.28807  1.0000
  S   S540      1.0  0.78793  0.56417  0.42982  1.0000
  S   S541      1.0  0.90458  0.49063  0.29206  1.0000
  H   H2125     1.0  0.85031  0.36417  0.48663  1.0000
  S   S542      1.0  0.82610  0.57329  0.44927  1.0000
  Fe  Fe271     1.0  0.81379  0.58066  0.42117  1.0000
  S   S543      1.0  0.83805  0.57785  0.39709  1.0000
  Fe  Fe272     1.0  0.79940  0.55877  0.45868  1.0000
  S   S544      1.0  0.80203  0.52791  0.47167  1.0000
  S   S545      1.0  0.97581  0.40255  0.26470  1.0000
  S   S546      1.0  0.78404  0.58545  0.47041  1.0000
  C   C1325     1.0  0.72284  0.59743  0.42999  1.0000
  H   H2126     1.0  0.98720  0.57507  0.25669  1.0000
  C   C1326     1.0  0.83622  0.56531  0.33444  1.0000
  C   C1327     1.0  0.85370  0.56736  0.34169  1.0000
  C   C1328     1.0  0.85398  0.57112  0.36091  1.0000
  C   C1329     1.0  0.83682  0.57286  0.37309  1.0000
  C   C1330     1.0  0.81935  0.57071  0.36586  1.0000
  C   C1331     1.0  0.81908  0.56702  0.34663  1.0000
  H   H2127     1.0  0.86696  0.56640  0.33241  1.0000
  H   H2128     1.0  0.80604  0.57206  0.37503  1.0000
  H   H2129     1.0  0.80548  0.56548  0.34113  1.0000
  H   H2130     1.0  0.72095  0.53145  0.44484  1.0000
  Fe  Fe273     1.0  0.77382  0.59180  0.44107  1.0000
  H   H2131     1.0  0.84245  0.61126  0.41424  1.0000
  H   H2132     1.0  0.69789  0.61603  0.37841  1.0000
  H   H2133     1.0  0.94048  0.42900  0.27803  1.0000
  H   H2134     1.0  0.94218  0.35010  0.28666  1.0000
  C   C1332     1.0  0.92930  0.43979  0.27376  1.0000
  S   S547      1.0  0.79878  0.60896  0.43017  1.0000
  H   H2135     1.0  0.88567  0.51515  0.32060  1.0000
  H   H2136     1.0  0.69947  0.65338  0.35246  1.0000
  H   H2137     1.0  0.89600  0.38770  0.31073  1.0000
  H   H2138     1.0  0.91774  0.58583  0.27861  1.0000
  H   H2139     1.0  0.73229  0.57053  0.47302  1.0000
  C   C1333     1.0  0.85380  0.49627  0.32620  1.0000
  H   H2140     1.0  0.86145  0.59233  0.45014  1.0000
  H   H2141     1.0  0.86444  0.53169  0.32048  1.0000
  C   C1334     1.0  0.84139  0.64963  0.48772  1.0000
  H   H2142     1.0  0.87521  0.60596  0.39918  1.0000
  N   N135      1.0  0.69266  0.64624  0.38228  1.0000
  C   C1335     1.0  0.94158  0.60350  0.27561  1.0000
  Fe  Fe274     1.0  0.80992  0.60067  0.45867  1.0000
  Fe  Fe275     1.0  0.89219  0.55567  0.25699  1.0000
  H   H2143     1.0  0.86620  0.48260  0.35989  1.0000
  N   N136      1.0  0.86183  0.50710  0.34009  1.0000
  C   C1336     1.0  0.87436  0.49390  0.35189  1.0000
  C   C1337     1.0  0.87335  0.52174  0.32982  1.0000
  C   C1338     1.0  0.84587  0.51655  0.35231  1.0000
  H   H2144     1.0  0.84367  0.50577  0.31760  1.0000
  H   H2145     1.0  0.86541  0.48981  0.31604  1.0000
  H   H2146     1.0  0.84566  0.48455  0.33335  1.0000
  H   H2147     1.0  0.88652  0.48664  0.34292  1.0000
  H   H2148     1.0  0.85130  0.52560  0.36242  1.0000
  H   H2149     1.0  0.87936  0.53052  0.33975  1.0000
  H   H2150     1.0  0.83589  0.52615  0.34363  1.0000
  C   C1339     1.0  0.92772  0.36508  0.31956  1.0000
  H   H2151     1.0  0.88073  0.50169  0.36243  1.0000
  H   H2152     1.0  0.92085  0.35243  0.32652  1.0000
  H   H2153     1.0  0.69225  0.64063  0.41259  1.0000
  C   C1340     1.0  0.92448  0.45603  0.28425  1.0000
  H   H2154     1.0  0.71040  0.54575  0.48427  1.0000
  C   C1341     1.0  0.99455  0.57913  0.26879  1.0000
  H   H2155     1.0  0.76428  0.53051  0.45258  1.0000
  H   H2156     1.0  0.67878  0.62834  0.36567  1.0000
  H   H2157     1.0  0.93956  0.60710  0.29028  1.0000
  C   C1342     1.0  0.92920  0.59141  0.26905  1.0000
  H   H2158     1.0  0.92423  0.37711  0.32896  1.0000
  H   H2159     1.0  0.72980  0.53217  0.49568  1.0000
  H   H2160     1.0  0.71186  0.57067  0.39525  1.0000
  C   C1343     1.0  0.91024  0.47038  0.27867  1.0000
  C   C1344     1.0  0.72556  0.58474  0.41555  1.0000
  H   H2161     1.0  0.73993  0.57845  0.41121  1.0000
  C   C1345     1.0  0.70964  0.58041  0.40651  1.0000
  H   H2162     1.0  0.71716  0.52118  0.47928  1.0000
  H   H2163     1.0  0.96059  0.45942  0.25718  1.0000
  N   N137      1.0  0.73677  0.54100  0.46626  1.0000
  C   C1346     1.0  0.90062  0.46822  0.26271  1.0000
  H   H2164     1.0  0.86755  0.57287  0.36633  1.0000
  C   C1347     1.0  0.86991  0.59382  0.43600  1.0000
  C   C1348     1.0  0.70239  0.64437  0.40004  1.0000
  H   H2165     1.0  0.88516  0.58862  0.43806  1.0000
  C   C1349     1.0  0.72711  0.54448  0.44850  1.0000
  H   H2166     1.0  0.86446  0.58405  0.42658  1.0000
  S   S548      1.0  0.74219  0.60385  0.44169  1.0000
  H   H2167     1.0  0.74820  0.51241  0.45983  1.0000
  C   C1350     1.0  0.68824  0.60152  0.42609  1.0000
  C   C1351     1.0  0.75303  0.52597  0.46381  1.0000
  H   H2168     1.0  0.94363  0.36132  0.31888  1.0000
  H   H2169     1.0  0.89512  0.37965  0.28749  1.0000
  H   H2170     1.0  0.89544  0.61095  0.41112  1.0000
  S   S549      1.0  0.82511  0.61859  0.47715  1.0000
  C   C1352     1.0  0.87993  0.61535  0.40944  1.0000
  H   H2171     1.0  0.92707  0.39096  0.27694  1.0000
  C   C1353     1.0  0.83189  0.64243  0.47361  1.0000
  C   C1354     1.0  0.82909  0.65390  0.45684  1.0000
  H   H2172     1.0  0.82136  0.64887  0.44606  1.0000
  C   C1355     1.0  0.95639  0.61111  0.26333  1.0000
  C   C1356     1.0  0.70411  0.60570  0.43524  1.0000
  H   H2173     1.0  0.87872  0.63026  0.40283  1.0000
  C   C1357     1.0  0.87462  0.62637  0.44122  1.0000
  H   H2174     1.0  0.89006  0.62256  0.44361  1.0000
  C   C1358     1.0  0.80147  0.49833  0.49953  1.0000
  H   H2175     1.0  0.71514  0.55620  0.44963  1.0000
  S   S550      1.0  0.97163  0.62611  0.27250  1.0000
  H   H2176     1.0  0.87280  0.64172  0.43595  1.0000
  H   H2177     1.0  0.83823  0.61788  0.43822  1.0000
  H   H2178     1.0  0.99943  0.59359  0.26480  1.0000
  H   H2179     1.0  0.70187  0.61551  0.44643  1.0000
  H   H2180     1.0  0.84552  0.63515  0.41955  1.0000
  C   C1359     1.0  0.84770  0.61983  0.42482  1.0000
  N   N138      1.0  0.86808  0.61386  0.42786  1.0000
  H   H2181     1.0  0.75412  0.56427  0.45877  1.0000
  C   C1360     1.0  0.74414  0.55888  0.47070  1.0000
  H   H2182     1.0  0.75218  0.55672  0.48363  1.0000
  C   C1361     1.0  0.84819  0.66794  0.48508  1.0000
  H   H2183     1.0  0.73740  0.54883  0.43628  1.0000
  C   C1362     1.0  0.84418  0.35097  0.49321  1.0000
  C   C1363     1.0  0.90515  0.45179  0.25248  1.0000
  C   C1364     1.0  0.68586  0.62770  0.37913  1.0000
  C   C1365     1.0  0.72289  0.53475  0.48206  1.0000
  H   H2184     1.0  0.99288  0.54624  0.29066  1.0000
  H   H2185     1.0  0.71909  0.64102  0.36449  1.0000
  H   H2186     1.0  0.71185  0.66584  0.36797  1.0000
  H   H2187     1.0  0.71462  0.63288  0.39964  1.0000
  C   C1366     1.0  0.70638  0.65189  0.36608  1.0000
  H   H2188     1.0  0.83035  0.34991  0.48703  1.0000
  C   C1367     1.0  0.91967  0.43765  0.25780  1.0000
  H   H2189     1.0  0.99691  0.54117  0.26609  1.0000
  H   H2190     1.0  0.86858  0.34391  0.46211  1.0000
  H   H2191     1.0  0.67392  0.60804  0.43027  1.0000
  H   H2192     1.0  0.67511  0.62333  0.39088  1.0000
  C   C1368     1.0  0.67595  0.66089  0.38392  1.0000
  S   S551      1.0  0.67146  0.58378  0.39923  1.0000
  C   C1369     1.0  0.70839  0.40159  0.61551  1.0000
  H   H2193     1.0  0.98059  0.64269  0.71080  1.0000
  C   C1370     1.0  0.81027  0.36467  0.56140  1.0000
  C   C1371     1.0  0.82752  0.37305  0.55654  1.0000
  C   C1372     1.0  0.84413  0.36143  0.55024  1.0000
  H   H2194     1.0  0.99870  0.63025  0.69532  1.0000
  H   H2195     1.0  0.79736  0.37345  0.56622  1.0000
  H   H2196     1.0  0.85755  0.36779  0.54656  1.0000
  C   C1373     1.0  0.68958  0.43898  0.64939  1.0000
  H   H2197     1.0  0.71351  0.39122  0.62644  1.0000
  H   H2198     1.0  0.67969  0.39213  0.61799  1.0000
  H   H2199     1.0  0.93908  0.58520  0.74457  1.0000
  S   S552      1.0  0.82897  0.39795  0.55742  1.0000
  S   S553      1.0  0.85026  0.50801  0.74583  1.0000
  H   H2200     1.0  0.67966  0.40313  0.64970  1.0000
  C   C1374     1.0  0.68918  0.40217  0.61087  1.0000
  H   H2201     1.0  0.89044  0.40194  0.69032  1.0000
  C   C1375     1.0  0.80960  0.34496  0.55958  1.0000
  H   H2202     1.0  0.83563  0.50208  0.56699  1.0000
  H   H2203     1.0  0.70130  0.43546  0.65899  1.0000
  C   C1376     1.0  0.72099  0.41441  0.60618  1.0000
  H   H2204     1.0  0.86240  0.41315  0.71252  1.0000
  C   C1377     1.0  0.82303  0.49655  0.57572  1.0000
  H   H2205     1.0  0.88923  0.45396  0.67335  1.0000
  S   S554      1.0  0.88442  0.48954  0.71536  1.0000
  H   H2206     1.0  0.88817  0.62619  0.71554  1.0000
  Fe  Fe276     1.0  0.88206  0.51085  0.73792  1.0000
  S   S555      1.0  0.89633  0.53843  0.72962  1.0000
  Fe  Fe277     1.0  0.85363  0.48486  0.72498  1.0000
  S   S556      1.0  0.83003  0.47665  0.70779  1.0000
  C   C1378     1.0  0.67438  0.41091  0.66251  1.0000
  Fe  Fe278     1.0  0.76960  0.42842  0.59740  1.0000
  S   S557      1.0  0.77635  0.42974  0.56553  1.0000
  C   C1379     1.0  0.82533  0.51728  0.60069  1.0000
  Fe  Fe279     1.0  0.80624  0.44696  0.60433  1.0000
  S   S558      1.0  0.81539  0.44887  0.57292  1.0000
  S   S559      1.0  0.82755  0.46071  0.62049  1.0000
  Fe  Fe280     1.0  0.78476  0.45951  0.56854  1.0000
  S   S560      1.0  0.77596  0.48887  0.55356  1.0000
  Fe  Fe281     1.0  0.80664  0.41902  0.57254  1.0000
  S   S561      1.0  0.77577  0.45880  0.60009  1.0000
  H   H2207     1.0  0.85925  0.41353  0.67764  1.0000
  C   C1380     1.0  0.88307  0.45046  0.68816  1.0000
  H   H2208     1.0  0.90219  0.41903  0.67409  1.0000
  C   C1381     1.0  0.77847  0.51911  0.52655  1.0000
  C   C1382     1.0  0.78422  0.49963  0.53103  1.0000
  H   H2209     1.0  0.89422  0.45242  0.69781  1.0000
  H   H2210     1.0  0.76937  0.52721  0.53691  1.0000
  S   S562      1.0  0.86185  0.46162  0.74721  1.0000
  H   H2211     1.0  0.82856  0.48387  0.58473  1.0000
  C   C1383     1.0  0.92064  0.56413  0.73828  1.0000
  H   H2212     1.0  0.92501  0.56516  0.72318  1.0000
  C   C1384     1.0  0.82916  0.47325  0.68327  1.0000
  C   C1385     1.0  0.81416  0.46359  0.67786  1.0000
  C   C1386     1.0  0.81330  0.45972  0.65874  1.0000
  C   C1387     1.0  0.82747  0.46553  0.64476  1.0000
  C   C1388     1.0  0.84233  0.47541  0.65011  1.0000
  C   C1389     1.0  0.84313  0.47937  0.66921  1.0000
  H   H2213     1.0  0.80320  0.45889  0.68858  1.0000
  H   H2214     1.0  0.80176  0.45215  0.65485  1.0000
  H   H2215     1.0  0.85330  0.48009  0.63940  1.0000
  H   H2216     1.0  0.85449  0.48724  0.67301  1.0000
  C   C1390     1.0  0.91515  0.62313  0.74027  1.0000
  H   H2217     1.0  0.87697  0.42958  0.72115  1.0000
  H   H2218     1.0  0.68517  0.40736  0.67308  1.0000
  N   N139      1.0  0.89405  0.62635  0.74470  1.0000
  H   H2219     1.0  0.98839  0.66936  0.72753  1.0000
  C   C1391     1.0  0.86724  0.42776  0.71003  1.0000
  H   H2220     1.0  0.68993  0.43858  0.57640  1.0000
  S   S563      1.0  0.74437  0.41436  0.61389  1.0000
  C   C1392     1.0  0.69504  0.42819  0.58732  1.0000
  C   C1393     1.0  0.71427  0.42758  0.59190  1.0000
  H   H2221     1.0  0.90466  0.41854  0.69912  1.0000
  Fe  Fe282     1.0  0.89242  0.46760  0.73881  1.0000
  H   H2222     1.0  0.85032  0.43823  0.67823  1.0000
  S   S564      1.0  0.79965  0.41632  0.60423  1.0000
  H   H2223     1.0  0.72380  0.43751  0.58459  1.0000
  C   C1394     1.0  0.79594  0.48933  0.51748  1.0000
  H   H2224     1.0  0.86931  0.63832  0.73051  1.0000
  S   S565      1.0  0.91334  0.44176  0.73178  1.0000
  N   N140      1.0  0.87709  0.43084  0.69074  1.0000
  H   H2225     1.0  0.79582  0.52363  0.56479  1.0000
  S   S566      1.0  0.94603  0.66682  0.72452  1.0000
  H   H2226     1.0  0.81782  0.52842  0.60981  1.0000
  H   H2227     1.0  0.78548  0.49885  0.58904  1.0000
  H   H2228     1.0  0.81781  0.53423  0.56624  1.0000
  C   C1395     1.0  0.89434  0.41694  0.68843  1.0000
  H   H2229     1.0  0.91901  0.61335  0.72861  1.0000
  C   C1396     1.0  0.86372  0.42831  0.67643  1.0000
  H   H2230     1.0  0.68790  0.45477  0.64625  1.0000
  H   H2231     1.0  0.80020  0.49064  0.60794  1.0000
  H   H2232     1.0  0.87032  0.43127  0.66167  1.0000
  H   H2233     1.0  0.80042  0.47434  0.52067  1.0000
  H   H2234     1.0  0.87068  0.46125  0.69142  1.0000
  H   H2235     1.0  0.78740  0.51406  0.60772  1.0000
  H   H2236     1.0  0.79738  0.53934  0.58321  1.0000
  C   C1397     1.0  0.93204  0.43344  0.74631  1.0000
  H   H2237     1.0  0.83054  0.50490  0.61035  1.0000
  H   H2238     1.0  0.83825  0.52318  0.59288  1.0000
  H   H2239     1.0  0.81363  0.49148  0.56576  1.0000
  H   H2240     1.0  0.85425  0.43822  0.71230  1.0000
  H   H2241     1.0  0.69463  0.43259  0.63571  1.0000
  H   H2242     1.0  0.77974  0.54316  0.50547  1.0000
  C   C1398     1.0  0.90714  0.55131  0.74558  1.0000
  N   N141      1.0  0.81240  0.51131  0.58746  1.0000
  C   C1399     1.0  0.79564  0.50340  0.59853  1.0000
  C   C1400     1.0  0.80558  0.52791  0.57490  1.0000
  H   H2243     1.0  0.89113  0.64940  0.72304  1.0000
  C   C1401     1.0  0.94434  0.41711  0.74161  1.0000
  S   S567      1.0  0.96693  0.62157  0.75126  1.0000
  C   C1402     1.0  0.84352  0.34168  0.54874  1.0000
  H   H2244     1.0  0.79610  0.33869  0.56308  1.0000
  C   C1403     1.0  0.68232  0.41569  0.59696  1.0000
  C   C1404     1.0  0.78428  0.52820  0.50870  1.0000
  H   H2245     1.0  0.88993  0.59746  0.73912  1.0000
  H   H2246     1.0  0.94284  0.41037  0.72872  1.0000
  C   C1405     1.0  0.92853  0.57561  0.75036  1.0000
  H   H2247     1.0  0.84056  0.35297  0.50865  1.0000
  H   H2248     1.0  0.92159  0.63677  0.73580  1.0000
  C   C1406     1.0  0.99633  0.63825  0.70838  1.0000
  H   H2249     1.0  0.67518  0.43888  0.68602  1.0000
  N   N142      1.0  0.67128  0.43178  0.65780  1.0000
  H   H2250     1.0  0.00030  0.62806  0.72054  1.0000
  C   C1407     1.0  0.88524  0.63548  0.72769  1.0000
  C   C1408     1.0  0.00195  0.66810  0.69043  1.0000
  H   H2251     1.0  0.96746  0.39634  0.75019  1.0000
  C   C1409     1.0  0.88612  0.60783  0.75029  1.0000
  C   C1410     1.0  0.69089  0.53887  0.89863  1.0000
  H   H2252     1.0  0.73811  0.49953  0.79833  1.0000
  H   H2253     1.0  0.72967  0.38026  0.96387  1.0000
  C   C1411     1.0  0.83272  0.66522  0.95822  1.0000
  H   H2254     1.0  0.70646  0.53578  0.90089  1.0000
  H   H2255     1.0  0.83034  0.63044  0.91756  1.0000
  N   N143      1.0  0.71916  0.35666  0.98170  1.0000
  H   H2256     1.0  0.77833  0.63765  0.90959  1.0000
  H   H2257     1.0  0.89188  0.60103  0.76358  1.0000
  H   H2258     1.0  0.85665  0.65134  0.94126  1.0000
  H   H2259     1.0  0.87400  0.64199  0.76419  1.0000
  H   H2260     1.0  0.71232  0.46035  0.82414  1.0000
  Fe  Fe283     1.0  0.75380  0.62195  0.95717  1.0000
  H   H2261     1.0  0.76598  0.40183  0.97233  1.0000
  Fe  Fe284     1.0  0.86071  0.48480  0.76723  1.0000
  S   S568      1.0  0.84957  0.47793  0.79807  1.0000
  H   H2262     1.0  0.88701  0.45572  0.81157  1.0000
  C   C1412     1.0  0.78208  0.49481  0.93618  1.0000
  Fe  Fe285     1.0  0.74288  0.46072  0.89397  1.0000
  S   S569      1.0  0.71817  0.47923  0.90730  1.0000
  S   S570      1.0  0.75698  0.43409  0.90920  1.0000
  Fe  Fe286     1.0  0.74850  0.48902  0.85955  1.0000
  S   S571      1.0  0.72451  0.51009  0.87102  1.0000
  S   S572      1.0  0.76152  0.49637  0.82952  1.0000
  Fe  Fe287     1.0  0.73658  0.50343  0.89930  1.0000
  S   S573      1.0  0.73808  0.52038  0.92507  1.0000
  Fe  Fe288     1.0  0.70786  0.48440  0.87808  1.0000
  C   C1413     1.0  0.81057  0.62606  0.88756  1.0000
  S   S574      1.0  0.76202  0.48458  0.88725  1.0000
  S   S575      1.0  0.73113  0.46361  0.86514  1.0000
  C   C1414     1.0  0.93417  0.44210  0.76294  1.0000
  H   H2263     1.0  0.75300  0.46087  0.95463  1.0000
  H   H2264     1.0  0.86169  0.43789  0.78698  1.0000
  H   H2265     1.0  0.77706  0.49701  0.92167  1.0000
  H   H2266     1.0  0.83374  0.60586  0.91161  1.0000
  Fe  Fe289     1.0  0.76549  0.61744  0.99811  1.0000
  C   C1415     1.0  0.70735  0.35124  0.96718  1.0000
  C   C1416     1.0  0.74580  0.58399  0.92893  1.0000
  C   C1417     1.0  0.74402  0.57702  0.91118  1.0000
  C   C1418     1.0  0.74195  0.55752  0.90963  1.0000
  C   C1419     1.0  0.74154  0.54485  0.92588  1.0000
  C   C1420     1.0  0.74335  0.55181  0.94360  1.0000
  C   C1421     1.0  0.74557  0.57126  0.94513  1.0000
  H   H2267     1.0  0.74417  0.58680  0.89858  1.0000
  H   H2268     1.0  0.74061  0.55236  0.89590  1.0000
  H   H2269     1.0  0.74295  0.54214  0.95628  1.0000
  H   H2270     1.0  0.74688  0.57645  0.95886  1.0000
  C   C1422     1.0  0.82500  0.48301  0.80655  1.0000
  C   C1423     1.0  0.81139  0.49192  0.79470  1.0000
  C   C1424     1.0  0.79203  0.49587  0.80196  1.0000
  C   C1425     1.0  0.78605  0.49090  0.82110  1.0000
  C   C1426     1.0  0.79962  0.48184  0.83294  1.0000
  C   C1427     1.0  0.81901  0.47795  0.82568  1.0000
  H   H2271     1.0  0.81581  0.49590  0.77995  1.0000
  H   H2272     1.0  0.78167  0.50291  0.79269  1.0000
  H   H2273     1.0  0.79521  0.47793  0.84768  1.0000
  H   H2274     1.0  0.82944  0.47107  0.83496  1.0000
  H   H2275     1.0  0.77459  0.50669  0.94440  1.0000
  C   C1428     1.0  0.90931  0.56173  0.77716  1.0000
  H   H2276     1.0  0.89367  0.42602  0.77039  1.0000
  H   H2277     1.0  0.71741  0.51146  0.78784  1.0000
  H   H2278     1.0  0.90460  0.56094  0.79220  1.0000
  C   C1429     1.0  0.73828  0.41826  0.97197  1.0000
  C   C1430     1.0  0.76171  0.41561  0.94438  1.0000
  C   C1431     1.0  0.74935  0.42775  0.93321  1.0000
  C   C1432     1.0  0.73134  0.43488  0.94144  1.0000
  C   C1433     1.0  0.72582  0.43008  0.96070  1.0000
  H   H2279     1.0  0.75151  0.47479  0.93238  1.0000
  H   H2280     1.0  0.72155  0.44393  0.93293  1.0000
  H   H2281     1.0  0.71177  0.43555  0.96690  1.0000
  C   C1434     1.0  0.95987  0.41731  0.77079  1.0000
  C   C1435     1.0  0.94781  0.43386  0.77530  1.0000
  H   H2282     1.0  0.94903  0.44028  0.78844  1.0000
  H   H2283     1.0  0.70109  0.36410  0.95887  1.0000
  N   N144      1.0  0.71155  0.48711  0.80713  1.0000
  C   C1436     1.0  0.70691  0.49874  0.82373  1.0000
  C   C1437     1.0  0.72432  0.49717  0.79263  1.0000
  C   C1438     1.0  0.69353  0.48415  0.79897  1.0000
  C   C1439     1.0  0.72150  0.46837  0.81320  1.0000
  H   H2284     1.0  0.69758  0.49145  0.83512  1.0000
  H   H2285     1.0  0.74490  0.35813  0.96247  1.0000
  C   C1440     1.0  0.73516  0.36712  0.97229  1.0000
  H   H2286     1.0  0.78259  0.60394  0.90168  1.0000
  H   H2287     1.0  0.73515  0.47012  0.81947  1.0000
  S   S576      1.0  0.73014  0.41243  0.99592  1.0000
  H   H2288     1.0  0.92505  0.45490  0.76647  1.0000
  H   H2289     1.0  0.68763  0.52952  0.88763  1.0000
  H   H2290     1.0  0.69641  0.47516  0.78659  1.0000
  H   H2291     1.0  0.68698  0.45782  0.85003  1.0000
  N   N145      1.0  0.67861  0.53562  0.91656  1.0000
  H   H2292     1.0  0.72816  0.48880  0.77990  1.0000
  H   H2293     1.0  0.69883  0.54536  0.93371  1.0000
  H   H2294     1.0  0.68345  0.47685  0.80961  1.0000
  H   H2295     1.0  0.68573  0.49799  0.79409  1.0000
  H   H2296     1.0  0.81773  0.63959  0.88613  1.0000
  H   H2297     1.0  0.69916  0.51288  0.81977  1.0000
  S   S577      1.0  0.77201  0.64803  0.99721  1.0000
  H   H2298     1.0  0.68873  0.55398  0.89270  1.0000
  C   C1441     1.0  0.90175  0.54994  0.76515  1.0000
  Fe  Fe290     1.0  0.94870  0.61548  0.77832  1.0000
  C   C1442     1.0  0.72708  0.33921  0.99245  1.0000
  H   H2299     1.0  0.78501  0.44617  0.94031  1.0000
  H   H2300     1.0  0.90876  0.41587  0.81906  1.0000
  H   H2301     1.0  0.89134  0.40348  0.78388  1.0000
  H   H2302     1.0  0.78153  0.45944  0.97186  1.0000
  C   C1443     1.0  0.86621  0.42972  0.80021  1.0000
  H   H2303     1.0  0.89029  0.45576  0.78629  1.0000
  C   C1444     1.0  0.89281  0.41732  0.81838  1.0000
  S   S578      1.0  0.89231  0.48904  0.76060  1.0000
  H   H2304     1.0  0.90993  0.44677  0.80006  1.0000
  N   N146      1.0  0.88741  0.42804  0.80058  1.0000
  H   H2305     1.0  0.88809  0.40263  0.81958  1.0000
  H   H2306     1.0  0.89135  0.54018  0.77096  1.0000
  C   C1445     1.0  0.75631  0.41105  0.96379  1.0000
  S   S579      1.0  0.97505  0.40608  0.78775  1.0000
  C   C1446     1.0  0.78792  0.46063  0.93383  1.0000
  C   C1447     1.0  0.78449  0.47363  0.96462  1.0000
  H   H2307     1.0  0.80381  0.46128  0.93236  1.0000
  H   H2308     1.0  0.79781  0.49642  0.93479  1.0000
  S   S580      1.0  0.67560  0.48938  0.87461  1.0000
  C   C1448     1.0  0.92253  0.57480  0.76983  1.0000
  C   C1449     1.0  0.75682  0.47445  0.94671  1.0000
  H   H2309     1.0  0.78308  0.46173  0.91924  1.0000
  H   H2310     1.0  0.77703  0.48484  0.97370  1.0000
  H   H2311     1.0  0.88614  0.42471  0.83107  1.0000
  H   H2312     1.0  0.91256  0.41552  0.78440  1.0000
  H   H2313     1.0  0.86058  0.41546  0.80095  1.0000
  C   C1450     1.0  0.89660  0.41781  0.78410  1.0000
  N   N147      1.0  0.77784  0.47589  0.94533  1.0000
  H   H2314     1.0  0.80029  0.47468  0.96415  1.0000
  H   H2315     1.0  0.79862  0.64898  0.91591  1.0000
  H   H2316     1.0  0.67912  0.50544  0.91331  1.0000
  C   C1451     1.0  0.89402  0.44738  0.79962  1.0000
  H   H2317     1.0  0.74861  0.48649  0.95416  1.0000
  S   S581      1.0  0.92966  0.59092  0.78526  1.0000
  H   H2318     1.0  0.77561  0.40989  0.93805  1.0000
  S   S582      1.0  0.74816  0.60865  0.93019  1.0000
  H   H2319     1.0  0.97740  0.65579  0.84389  1.0000
  H   H2320     1.0  0.85881  0.43760  0.81232  1.0000
  H   H2321     1.0  0.80571  0.59026  0.90277  1.0000
  H   H2322     1.0  0.78821  0.63105  0.93174  1.0000
  S   S583      1.0  0.78162  0.61285  0.96964  1.0000
  Fe  Fe291     1.0  0.95902  0.65126  0.79587  1.0000
  S   S584      1.0  0.97845  0.65991  0.76973  1.0000
  C   C1452     1.0  0.82313  0.61700  0.91791  1.0000
  H   H2323     1.0  0.79173  0.59738  0.92420  1.0000
  Fe  Fe292     1.0  0.98928  0.62851  0.76970  1.0000
  S   S585      1.0  0.97170  0.62029  0.79719  1.0000
  S   S586      1.0  0.93512  0.64582  0.77842  1.0000
  Fe  Fe293     1.0  0.74422  0.65471  0.98318  1.0000
  S   S587      1.0  0.75925  0.65316  0.95366  1.0000
  Fe  Fe294     1.0  0.78642  0.64399  0.96792  1.0000
  S   S588      1.0  0.81740  0.64720  0.95554  1.0000
  H   H2324     1.0  0.79750  0.62863  0.87958  1.0000
  C   C1453     1.0  0.79208  0.63516  0.91652  1.0000
  H   H2325     1.0  0.82064  0.61497  0.88045  1.0000
  H   H2326     1.0  0.72021  0.50147  0.83004  1.0000
  C   C1454     1.0  0.68210  0.51542  0.92388  1.0000
  C   C1455     1.0  0.85175  0.66342  0.94957  1.0000
  H   H2327     1.0  0.72532  0.45922  0.80103  1.0000
  H   H2328     1.0  0.81973  0.61243  0.93320  1.0000
  H   H2329     1.0  0.71608  0.34186  0.95697  1.0000
  N   N148      1.0  0.80548  0.62006  0.90775  1.0000
  S   S589      1.0  0.73677  0.62402  0.98590  1.0000
  C   C1456     1.0  0.79605  0.60209  0.90911  1.0000
  C   C1457     1.0  0.67204  0.46273  0.84849  1.0000
  H   H2330     1.0  0.98112  0.66047  0.87775  1.0000
  H   H2331     1.0  0.89612  0.63231  0.77366  1.0000
  H   H2332     1.0  0.74405  0.37184  0.98289  1.0000
  H   H2333     1.0  0.69736  0.51188  0.92715  1.0000
  H   H2334     1.0  0.67445  0.54622  0.94447  1.0000
  H   H2335     1.0  0.70150  0.38284  0.98740  1.0000
  H   H2336     1.0  0.69514  0.34328  0.97385  1.0000
  C   C1458     1.0  0.96821  0.66667  0.87146  1.0000
  C   C1459     1.0  0.96614  0.66396  0.85224  1.0000
  C   C1460     1.0  0.68340  0.54827  0.93072  1.0000
  C   C1461     1.0  0.70701  0.36913  0.99487  1.0000
  C   C1462     1.0  0.88980  0.63900  0.76056  1.0000
  H   H2337     1.0  0.83307  0.61874  0.99018  1.0000
  H   H2338     1.0  0.80772  0.62283  0.99643  1.0000
  Fe  Fe295     1.0  0.95536  0.65242  0.75266  1.0000
  H   H2339     1.0  0.83742  0.65143  0.99849  1.0000
  H   H2340     1.0  0.87014  0.60959  0.75299  1.0000
  H   H2341     1.0  0.68111  0.56364  0.92561  1.0000
  H   H2342     1.0  0.89598  0.65295  0.75701  1.0000
  H   H2343     1.0  0.92230  0.61663  0.75289  1.0000
  C   C1463     1.0  0.95835  0.40918  0.75370  1.0000
  H   H2344     1.0  0.67279  0.51228  0.93718  1.0000
  C   C1464     1.0  0.99991  0.73106  0.02728  1.0000
  H   H2345     1.0  0.68430  0.89952  0.01003  1.0000
  H   H2346     1.0  0.00079  0.73741  0.04052  1.0000
  C   C1465     1.0  0.99779  0.94387  0.01770  1.0000
  S   S590      1.0  0.98759  0.99229  0.02728  1.0000
  H   H2347     1.0  0.98416  0.95328  0.01607  1.0000
  H   H2348     1.0  0.99478  0.93295  0.02959  1.0000
  H   H2349     1.0  0.68391  0.98495  0.02736  1.0000
  C   C1466     1.0  0.98072  0.72483  0.00151  1.0000
  H   H2350     1.0  0.69554  0.70713  0.01065  1.0000
  H   H2351     1.0  0.98748  0.67584  0.05835  1.0000
  C   C1467     1.0  0.69375  0.99397  0.01912  1.0000
  H   H2352     1.0  0.96966  0.74046  0.02586  1.0000
  C   C1468     1.0  0.98225  0.73282  0.01886  1.0000
  H   H2353     1.0  0.98628  0.91223  0.00534  1.0000
  H   H2354     1.0  0.97079  0.80156  0.44578  1.0000
  Fe  Fe296     1.0  0.88558  0.75900  0.47561  1.0000
  S   S591      1.0  0.90136  0.77442  0.45022  1.0000
  S   S592      1.0  0.85601  0.70141  0.46305  1.0000
  S   S593      1.0  0.85518  0.75324  0.47209  1.0000
  S   S594      1.0  0.89480  0.72858  0.48512  1.0000
  H   H2355     1.0  0.98853  0.81786  0.39634  1.0000
  H   H2356     1.0  0.91678  0.73250  0.40112  1.0000
  H   H2357     1.0  0.99827  0.83307  0.44323  1.0000
  C   C1469     1.0  0.96699  0.76331  0.43767  1.0000
  C   C1470     1.0  0.95808  0.75797  0.45568  1.0000
  C   C1471     1.0  0.93793  0.76083  0.45954  1.0000
  C   C1472     1.0  0.92657  0.76954  0.44552  1.0000
  C   C1473     1.0  0.93543  0.77477  0.42743  1.0000
  C   C1474     1.0  0.95555  0.77132  0.42339  1.0000
  H   H2358     1.0  0.96683  0.75168  0.46677  1.0000
  H   H2359     1.0  0.93125  0.75673  0.47351  1.0000
  H   H2360     1.0  0.92671  0.78147  0.41649  1.0000
  H   H2361     1.0  0.96218  0.77501  0.40931  1.0000
  H   H2362     1.0  0.83432  0.68060  0.44086  1.0000
  C   C1475     1.0  0.97927  0.81220  0.40878  1.0000
  Fe  Fe297     1.0  0.86395  0.72295  0.48301  1.0000
  S   S595      1.0  0.99247  0.76105  0.43430  1.0000
  C   C1476     1.0  0.81760  0.80692  0.48975  1.0000
  Fe  Fe298     1.0  0.75002  0.86951  0.48886  1.0000
  C   C1477     1.0  0.82579  0.97119  0.39280  1.0000
  N   N149      1.0  0.89067  0.72932  0.41938  1.0000
  C   C1478     1.0  0.90296  0.74086  0.40577  1.0000
  C   C1479     1.0  0.88565  0.71257  0.41030  1.0000
  C   C1480     1.0  0.87279  0.74119  0.42546  1.0000
  C   C1481     1.0  0.90126  0.72264  0.43610  1.0000
  H   H2363     1.0  0.90669  0.75369  0.41233  1.0000
  H   H2364     1.0  0.89555  0.74604  0.39287  1.0000
  H   H2365     1.0  0.98535  0.79733  0.41260  1.0000
  H   H2366     1.0  0.87636  0.70369  0.42042  1.0000
  H   H2367     1.0  0.87756  0.71704  0.39767  1.0000
  H   H2368     1.0  0.89879  0.70325  0.40555  1.0000
  H   H2369     1.0  0.87598  0.75392  0.43249  1.0000
  H   H2370     1.0  0.86316  0.73297  0.43580  1.0000
  H   H2371     1.0  0.86445  0.74652  0.41322  1.0000
  H   H2372     1.0  0.89238  0.71397  0.44675  1.0000
  H   H2373     1.0  0.90526  0.73489  0.44334  1.0000
  H   H2374     1.0  0.91485  0.71367  0.43207  1.0000
  H   H2375     1.0  0.69847  0.88975  0.44351  1.0000
  H   H2376     1.0  0.95068  0.81588  0.43654  1.0000
  H   H2377     1.0  0.99891  0.72522  0.31646  1.0000
  C   C1482     1.0  0.99811  0.82383  0.43125  1.0000
  H   H2378     1.0  0.68042  0.67520  0.38608  1.0000
  H   H2379     1.0  0.79287  0.98606  0.37874  1.0000
  H   H2380     1.0  0.96469  0.81146  0.40404  1.0000
  C   C1483     1.0  0.68548  0.88168  0.44521  1.0000
  S   S596      1.0  0.72737  0.87055  0.46808  1.0000
  S   S597      1.0  0.77947  0.85375  0.48107  1.0000
  C   C1484     1.0  0.84588  0.67916  0.46810  1.0000
  Fe  Fe299     1.0  0.72511  0.90243  0.47032  1.0000
  S   S598      1.0  0.71703  0.92365  0.44578  1.0000
  C   C1485     1.0  0.97134  0.84401  0.41913  1.0000
  H   H2381     1.0  0.81483  0.83177  0.46991  1.0000
  H   H2382     1.0  0.85351  0.99106  0.37357  1.0000
  C   C1486     1.0  0.96547  0.81645  0.44088  1.0000
  N   N150      1.0  0.97852  0.82416  0.42504  1.0000
  S   S599      1.0  0.77121  0.98906  0.41554  1.0000
  C   C1487     1.0  0.67290  0.83606  0.46889  1.0000
  S   S600      1.0  0.70251  0.90125  0.49484  1.0000
  H   H2383     1.0  0.96426  0.82527  0.45335  1.0000
  H   H2384     1.0  0.68801  0.83742  0.46467  1.0000
  H   H2385     1.0  0.67892  0.94062  0.28421  1.0000
  H   H2386     1.0  0.67398  0.96964  0.26178  1.0000
  C   C1488     1.0  0.73200  0.94206  0.43785  1.0000
  C   C1489     1.0  0.75027  0.94216  0.44422  1.0000
  C   C1490     1.0  0.76205  0.95670  0.43731  1.0000
  C   C1491     1.0  0.75561  0.97140  0.42414  1.0000
  C   C1492     1.0  0.73727  0.97143  0.41787  1.0000
  C   C1493     1.0  0.72557  0.95674  0.42463  1.0000
  H   H2387     1.0  0.75544  0.93090  0.45430  1.0000
  H   H2388     1.0  0.77622  0.95654  0.44222  1.0000
  H   H2389     1.0  0.73219  0.98263  0.40768  1.0000
  H   H2390     1.0  0.71148  0.95677  0.41959  1.0000
  Fe  Fe300     1.0  0.70610  0.86938  0.49401  1.0000
  H   H2391     1.0  0.81275  0.96982  0.40310  1.0000
  H   H2392     1.0  0.83828  0.97174  0.40123  1.0000
  H   H2393     1.0  0.68079  0.91656  0.42713  1.0000
  C   C1494     1.0  0.80821  0.82420  0.48237  1.0000
  H   H2394     1.0  0.83132  0.80129  0.48298  1.0000
  H   H2395     1.0  0.83872  0.00286  0.35598  1.0000
  H   H2396     1.0  0.67413  0.97323  0.29601  1.0000
  C   C1495     1.0  0.84049  0.98990  0.36606  1.0000
  C   C1496     1.0  0.80625  0.98710  0.36895  1.0000
  H   H2397     1.0  0.95664  0.84469  0.41422  1.0000
  H   H2398     1.0  0.84340  0.97722  0.35745  1.0000
  H   H2399     1.0  0.97059  0.85353  0.43102  1.0000
  H   H2400     1.0  0.68607  0.87250  0.45871  1.0000
  H   H2401     1.0  0.98097  0.85007  0.40713  1.0000
  S   S601      1.0  0.74907  0.90174  0.48925  1.0000
  C   C1497     1.0  0.79035  0.83177  0.49092  1.0000
  H   H2402     1.0  0.82824  0.95791  0.38504  1.0000
  H   H2403     1.0  0.80814  0.97428  0.36053  1.0000
  H   H2404     1.0  0.68676  0.87209  0.43333  1.0000
  C   C1498     1.0  0.99489  0.00462  0.32495  1.0000
  H   H2405     1.0  0.67096  0.75473  0.43725  1.0000
  H   H2406     1.0  0.99072  0.99836  0.33902  1.0000
  S   S602      1.0  0.67685  0.85709  0.49982  1.0000
  H   H2407     1.0  0.67842  0.91475  0.46210  1.0000
  N   N151      1.0  0.82313  0.98843  0.37959  1.0000
  H   H2408     1.0  0.71650  0.00383  0.29864  1.0000
  H   H2409     1.0  0.85561  0.67316  0.49602  1.0000
  H   H2410     1.0  0.80375  0.99990  0.35887  1.0000
  H   H2411     1.0  0.80709  0.00478  0.40121  1.0000
  H   H2412     1.0  0.00373  0.80904  0.43617  1.0000
  C   C1499     1.0  0.83633  0.67200  0.45400  1.0000
  C   C1500     1.0  0.79140  0.80465  0.51452  1.0000
  H   H2413     1.0  0.96051  0.79672  0.73143  1.0000
  H   H2414     1.0  0.85420  0.78717  0.58967  1.0000
  Fe  Fe301     1.0  0.92900  0.94708  0.74612  1.0000
  S   S603      1.0  0.90219  0.72800  0.54003  1.0000
  N   N152      1.0  0.97710  0.75643  0.55235  1.0000
  C   C1501     1.0  0.68572  0.99376  0.70028  1.0000
  Fe  Fe302     1.0  0.99094  0.76914  0.61788  1.0000
  Fe  Fe303     1.0  0.96713  0.76183  0.65622  1.0000
  S   S604      1.0  0.94571  0.78753  0.65050  1.0000
  S   S605      1.0  0.96911  0.74760  0.68631  1.0000
  Fe  Fe304     1.0  0.94744  0.77797  0.62053  1.0000
  S   S606      1.0  0.92302  0.78242  0.60104  1.0000
  S   S607      1.0  0.96651  0.75097  0.62715  1.0000
  S   S608      1.0  0.72890  0.86601  0.51491  1.0000
  H   H2415     1.0  0.84700  0.79035  0.53821  1.0000
  H   H2416     1.0  0.85060  0.80379  0.55779  1.0000
  C   C1502     1.0  0.98377  0.00309  0.72379  1.0000
  H   H2417     1.0  0.86695  0.75251  0.55232  1.0000
  C   C1503     1.0  0.82585  0.77780  0.56971  1.0000
  C   C1504     1.0  0.96265  0.72497  0.69641  1.0000
  C   C1505     1.0  0.96668  0.71930  0.71523  1.0000
  C   C1506     1.0  0.96161  0.70163  0.72405  1.0000
  C   C1507     1.0  0.95240  0.68940  0.71414  1.0000
  C   C1508     1.0  0.94838  0.69503  0.69531  1.0000
  C   C1509     1.0  0.95354  0.71268  0.68644  1.0000
  H   H2418     1.0  0.97364  0.72872  0.72310  1.0000
  H   H2419     1.0  0.96462  0.69761  0.73861  1.0000
  H   H2420     1.0  0.95030  0.71687  0.67198  1.0000
  S   S609      1.0  0.87799  0.76873  0.50523  1.0000
  H   H2421     1.0  0.84362  0.75545  0.54353  1.0000
  C   C1510     1.0  0.90887  0.74337  0.55635  1.0000
  C   C1511     1.0  0.91723  0.73538  0.57281  1.0000
  C   C1512     1.0  0.92243  0.74716  0.58626  1.0000
  C   C1513     1.0  0.91896  0.76707  0.58353  1.0000
  C   C1514     1.0  0.91092  0.77506  0.56691  1.0000
  C   C1515     1.0  0.90613  0.76329  0.55327  1.0000
  H   H2422     1.0  0.91950  0.71997  0.57527  1.0000
  H   H2423     1.0  0.92847  0.74082  0.59906  1.0000
  H   H2424     1.0  0.90829  0.79046  0.56463  1.0000
  H   H2425     1.0  0.90027  0.76960  0.54040  1.0000
  S   S610      1.0  0.82082  0.77559  0.51602  1.0000
  H   H2426     1.0  0.85354  0.96458  0.73869  1.0000
  H   H2427     1.0  0.96944  0.99954  0.72909  1.0000
  H   H2428     1.0  0.77689  0.00165  0.54602  1.0000
  S   S611      1.0  0.76872  0.00053  0.65439  1.0000
  C   C1516     1.0  0.97154  0.76687  0.56965  1.0000
  C   C1517     1.0  0.76483  0.97873  0.57597  1.0000
  H   H2429     1.0  0.84675  0.74340  0.56642  1.0000
  H   H2430     1.0  0.82202  0.79161  0.57640  1.0000
  Fe  Fe305     1.0  0.77020  0.99913  0.62257  1.0000
  H   H2431     1.0  0.98156  0.83100  0.69406  1.0000
  C   C1518     1.0  0.96227  0.74353  0.55004  1.0000
  N   N153      1.0  0.84693  0.77406  0.56526  1.0000
  C   C1519     1.0  0.95995  0.80144  0.69364  1.0000
  H   H2432     1.0  0.69164  0.90431  0.56732  1.0000
  S   S612      1.0  0.99313  0.77794  0.64721  1.0000
  H   H2433     1.0  0.99544  0.73495  0.56707  1.0000
  H   H2434     1.0  0.85150  0.76198  0.59353  1.0000
  C   C1520     1.0  0.85126  0.75555  0.55654  1.0000
  H   H2435     1.0  0.68301  0.84513  0.56721  1.0000
  S   S613      1.0  0.97183  0.79562  0.61016  1.0000
  C   C1521     1.0  0.76743  0.96566  0.54528  1.0000
  H   H2436     1.0  0.79559  0.99620  0.56166  1.0000
  C   C1522     1.0  0.85668  0.77329  0.58293  1.0000
  C   C1523     1.0  0.85389  0.78957  0.55181  1.0000
  H   H2437     1.0  0.97021  0.75686  0.58261  1.0000
  H   H2438     1.0  0.82001  0.76623  0.57955  1.0000
  H   H2439     1.0  0.87256  0.76995  0.58012  1.0000
  H   H2440     1.0  0.86973  0.78733  0.54821  1.0000
  H   H2441     1.0  0.69189  0.88939  0.53689  1.0000
  Fe  Fe306     1.0  0.97166  0.80311  0.64046  1.0000
  H   H2442     1.0  0.96550  0.82932  0.71531  1.0000
  H   H2443     1.0  0.92628  0.91547  0.64303  1.0000
  S   S614      1.0  0.85495  0.72938  0.51343  1.0000
  H   H2444     1.0  0.81813  0.77864  0.55658  1.0000
  H   H2445     1.0  0.98285  0.76291  0.52227  1.0000
  H   H2446     1.0  0.77268  0.98376  0.58717  1.0000
  H   H2447     1.0  0.95725  0.78642  0.69188  1.0000
  S   S615      1.0  0.97822  0.83254  0.64839  1.0000
  S   S616      1.0  0.74337  0.98402  0.62326  1.0000
  Fe  Fe307     1.0  0.78630  0.97169  0.65487  1.0000
  S   S617      1.0  0.76016  0.95499  0.65754  1.0000
  S   S618      1.0  0.80881  0.95853  0.67476  1.0000
  Fe  Fe308     1.0  0.76292  0.95675  0.62549  1.0000
  S   S619      1.0  0.76554  0.93095  0.60756  1.0000
  Fe  Fe309     1.0  0.74285  0.98365  0.65518  1.0000
  H   H2448     1.0  0.90612  0.94707  0.66744  1.0000
  S   S620      1.0  0.78998  0.97170  0.62299  1.0000
  Fe  Fe310     1.0  0.95814  0.95752  0.71278  1.0000
  S   S621      1.0  0.93224  0.97389  0.72685  1.0000
  S   S622      1.0  0.98683  0.97024  0.70362  1.0000
  Fe  Fe311     1.0  0.93668  0.92136  0.71246  1.0000
  S   S623      1.0  0.90946  0.93551  0.72742  1.0000
  S   S624      1.0  0.93162  0.89153  0.70433  1.0000
  Fe  Fe312     1.0  0.91471  0.96091  0.70722  1.0000
  S   S625      1.0  0.89173  0.97948  0.69165  1.0000
  H   H2449     1.0  0.98974  0.78026  0.53693  1.0000
  S   S626      1.0  0.94088  0.94649  0.69127  1.0000
  S   S627      1.0  0.95595  0.93104  0.73297  1.0000
  C   C1524     1.0  0.99518  0.99118  0.71135  1.0000
  C   C1525     1.0  0.99590  0.74507  0.55413  1.0000
  S   S628      1.0  0.71845  0.91782  0.53811  1.0000
  H   H2450     1.0  0.87259  0.91637  0.65017  1.0000
  H   H2451     1.0  0.99106  0.82353  0.71633  1.0000
  H   H2452     1.0  0.90051  0.92061  0.69112  1.0000
  C   C1526     1.0  0.97880  0.82238  0.70776  1.0000
  H   H2453     1.0  0.75721  0.96651  0.58264  1.0000
  S   S629      1.0  0.71530  0.99572  0.67189  1.0000
  H   H2454     1.0  0.71532  0.85590  0.55742  1.0000
  H   H2455     1.0  0.00038  0.73659  0.54158  1.0000
  C   C1527     1.0  0.99437  0.79406  0.69364  1.0000
  H   H2456     1.0  0.89434  0.89828  0.68440  1.0000
  H   H2457     1.0  0.86184  0.98795  0.73367  1.0000
  C   C1528     1.0  0.70116  0.98341  0.69017  1.0000
  C   C1529     1.0  0.70462  0.96371  0.69458  1.0000
  C   C1530     1.0  0.69254  0.95444  0.70876  1.0000
  H   H2458     1.0  0.94654  0.80864  0.70071  1.0000
  H   H2459     1.0  0.71642  0.95557  0.68689  1.0000
  C   C1531     1.0  0.78767  0.99005  0.55104  1.0000
  C   C1532     1.0  0.75196  0.92720  0.58862  1.0000
  C   C1533     1.0  0.73426  0.93772  0.58586  1.0000
  C   C1534     1.0  0.72425  0.93466  0.57027  1.0000
  C   C1535     1.0  0.73181  0.92111  0.55730  1.0000
  C   C1536     1.0  0.74943  0.91049  0.56011  1.0000
  C   C1537     1.0  0.75940  0.91348  0.57577  1.0000
  H   H2460     1.0  0.72826  0.94815  0.59578  1.0000
  H   H2461     1.0  0.71056  0.94286  0.56824  1.0000
  H   H2462     1.0  0.75538  0.89999  0.55024  1.0000
  H   H2463     1.0  0.77305  0.90522  0.57786  1.0000
  C   C1538     1.0  0.83192  0.96465  0.67893  1.0000
  C   C1539     1.0  0.84292  0.95244  0.69137  1.0000
  C   C1540     1.0  0.86126  0.95672  0.69538  1.0000
  C   C1541     1.0  0.86877  0.97337  0.68703  1.0000
  C   C1542     1.0  0.85781  0.98558  0.67459  1.0000
  C   C1543     1.0  0.83950  0.98123  0.67048  1.0000
  H   H2464     1.0  0.83712  0.93961  0.69801  1.0000
  H   H2465     1.0  0.86950  0.94722  0.70500  1.0000
  C   C1544     1.0  0.96445  0.84939  0.66300  1.0000
  C   C1545     1.0  0.94597  0.84642  0.67148  1.0000
  C   C1546     1.0  0.93625  0.85944  0.68412  1.0000
  C   C1547     1.0  0.94466  0.87577  0.68819  1.0000
  C   C1548     1.0  0.96289  0.87905  0.67931  1.0000
  C   C1549     1.0  0.97274  0.86586  0.66688  1.0000
  H   H2466     1.0  0.93918  0.83407  0.66836  1.0000
  H   H2467     1.0  0.92207  0.85685  0.69078  1.0000
  H   H2468     1.0  0.96954  0.89156  0.68225  1.0000
  H   H2469     1.0  0.98701  0.86835  0.66038  1.0000
  H   H2470     1.0  0.71892  0.88073  0.55708  1.0000
  N   N154      1.0  0.77825  0.97312  0.55952  1.0000
  C   C1550     1.0  0.68446  0.87751  0.54474  1.0000
  C   C1551     1.0  0.97867  0.77030  0.53558  1.0000
  C   C1552     1.0  0.79305  0.95809  0.56594  1.0000
  Fe  Fe313     1.0  0.72654  0.89828  0.51387  1.0000
  H   H2471     1.0  0.80357  0.95356  0.55395  1.0000
  N   N155      1.0  0.97674  0.80223  0.70453  1.0000
  H   H2472     1.0  0.69516  0.93915  0.71188  1.0000
  H   H2473     1.0  0.98631  0.67319  0.69231  1.0000
  H   H2474     1.0  0.78640  0.94510  0.57239  1.0000
  C   C1553     1.0  0.68409  0.89214  0.57447  1.0000
  C   C1554     1.0  0.71064  0.86928  0.56465  1.0000
  C   C1555     1.0  0.67923  0.85867  0.57445  1.0000
  H   H2475     1.0  0.88900  0.89496  0.65046  1.0000
  N   N156      1.0  0.68961  0.87441  0.56458  1.0000
  H   H2476     1.0  0.97227  0.77572  0.72082  1.0000
  H   H2477     1.0  0.92190  0.89564  0.65999  1.0000
  H   H2478     1.0  0.96470  0.77912  0.53387  1.0000
  H   H2479     1.0  0.92919  0.91707  0.66774  1.0000
  H   H2480     1.0  0.94123  0.68569  0.68751  1.0000
  H   H2481     1.0  0.68283  0.85586  0.58944  1.0000
  H   H2482     1.0  0.86350  0.99851  0.66807  1.0000
  H   H2483     1.0  0.83119  0.99077  0.66093  1.0000
  C   C1556     1.0  0.67376  0.98454  0.71457  1.0000
  H   H2484     1.0  0.94803  0.75172  0.54825  1.0000
  H   H2485     1.0  0.96035  0.73318  0.56268  1.0000
  H   H2486     1.0  0.99318  0.77894  0.69067  1.0000
  C   C1557     1.0  0.78193  0.82188  0.50704  1.0000
  H   H2487     1.0  0.76821  0.82756  0.51375  1.0000
  C   C1558     1.0  0.89248  0.91405  0.68095  1.0000
  H   H2488     1.0  0.88267  0.94644  0.65954  1.0000
  N   N157      1.0  0.89969  0.91918  0.66106  1.0000
  C   C1559     1.0  0.89797  0.94024  0.65753  1.0000
  C   C1560     1.0  0.88811  0.91084  0.64805  1.0000
  H   H2489     1.0  0.87691  0.91898  0.68381  1.0000
  H   H2490     1.0  0.90367  0.94472  0.64280  1.0000
  H   H2491     1.0  0.79815  0.98642  0.53870  1.0000
  C   C1561     1.0  0.92014  0.91154  0.65774  1.0000
  H   H2492     1.0  0.96609  0.73512  0.53734  1.0000
  H   H2493     1.0  0.96233  0.80852  0.67914  1.0000
  H   H2494     1.0  0.68859  0.86448  0.53678  1.0000
  H   H2495     1.0  0.89320  0.91436  0.63291  1.0000
  H   H2496     1.0  0.98620  0.79125  0.73161  1.0000
  H   H2497     1.0  0.87862  0.96716  0.73220  1.0000
  Fe  Fe314     1.0  0.88507  0.73778  0.51462  1.0000
  H   H2498     1.0  0.75379  0.99049  0.57191  1.0000
  C   C1562     1.0  0.67700  0.96478  0.71874  1.0000
  H   H2499     1.0  0.71512  0.86717  0.57937  1.0000
  H   H2500     1.0  0.78482  0.79711  0.52700  1.0000
  C   C1563     1.0  0.80925  0.79708  0.50589  1.0000
  H   H2501     1.0  0.98253  0.77661  0.57193  1.0000
  H   H2502     1.0  0.80122  0.96310  0.57700  1.0000
  H   H2503     1.0  0.95745  0.77569  0.56888  1.0000
  H   H2504     1.0  0.75596  0.97653  0.54031  1.0000
  H   H2505     1.0  0.99701  0.80231  0.67966  1.0000
  H   H2506     1.0  0.76024  0.95281  0.55130  1.0000
  C   C1564     1.0  0.86546  0.97338  0.74050  1.0000
  C   C1565     1.0  0.97381  0.79101  0.72296  1.0000
  H   H2507     1.0  0.68790  0.89041  0.58944  1.0000
  H   H2508     1.0  0.77709  0.96135  0.53259  1.0000
  Fe  Fe315     1.0  0.84834  0.76012  0.50244  1.0000
  C   C1566     1.0  0.93727  0.68535  0.87416  1.0000
  H   H2509     1.0  0.89218  0.95753  0.95901  1.0000
  H   H2510     1.0  0.68465  0.83841  0.98467  1.0000
  H   H2511     1.0  0.95843  0.71868  0.84671  1.0000
  H   H2512     1.0  0.67298  0.76956  0.94528  1.0000
  H   H2513     1.0  0.86164  0.94510  0.76834  1.0000
  Fe  Fe316     1.0  0.90485  0.71388  0.95240  1.0000
  S   S630      1.0  0.93184  0.69454  0.95785  1.0000
  S   S631      1.0  0.87418  0.71035  0.96579  1.0000
  Fe  Fe317     1.0  0.92783  0.74480  0.93021  1.0000
  S   S632      1.0  0.95619  0.72752  0.93404  1.0000
  S   S633      1.0  0.93025  0.77291  0.91220  1.0000
  Fe  Fe318     1.0  0.94117  0.70254  0.92680  1.0000
  H   H2514     1.0  0.69479  0.74156  0.95298  1.0000
  Fe  Fe319     1.0  0.94486  0.72109  0.96449  1.0000
  H   H2515     1.0  0.96485  0.75311  0.89230  1.0000
  S   S634      1.0  0.91341  0.72028  0.92117  1.0000
  S   S635      1.0  0.91720  0.74000  0.96084  1.0000
  H   H2516     1.0  0.93785  0.80776  0.95615  1.0000
  H   H2517     1.0  0.87918  0.67559  0.94485  1.0000
  C   C1567     1.0  0.83952  0.69455  0.97109  1.0000
  C   C1568     1.0  0.85855  0.69280  0.96239  1.0000
  H   H2518     1.0  0.72656  0.94962  0.78549  1.0000
  C   C1569     1.0  0.67583  0.86515  0.96930  1.0000
  H   H2519     1.0  0.67750  0.93273  0.79517  1.0000
  C   C1570     1.0  0.70935  0.78144  0.96910  1.0000
  C   C1571     1.0  0.88480  0.98562  0.76224  1.0000
  H   H2520     1.0  0.92583  0.69323  0.88254  1.0000
  C   C1572     1.0  0.86459  0.67715  0.95158  1.0000
  H   H2521     1.0  0.68302  0.93166  0.76975  1.0000
  C   C1573     1.0  0.97167  0.74177  0.88301  1.0000
  H   H2522     1.0  0.68088  0.69887  0.94505  1.0000
  C   C1574     1.0  0.70429  0.69218  0.98537  1.0000
  C   C1575     1.0  0.94051  0.73201  0.87868  1.0000
  H   H2523     1.0  0.71791  0.93126  0.77331  1.0000
  C   C1576     1.0  0.88092  0.97937  0.91645  1.0000
  H   H2524     1.0  0.90394  0.78428  0.94493  1.0000
  C   C1577     1.0  0.95704  0.77284  0.95734  1.0000
  H   H2525     1.0  0.91628  0.97932  0.92743  1.0000
  H   H2526     1.0  0.93249  0.74366  0.88680  1.0000
  N   N158      1.0  0.69514  0.76890  0.96431  1.0000
  S   S636      1.0  0.95794  0.72773  0.99166  1.0000
  H   H2527     1.0  0.83856  0.97423  0.77036  1.0000
  S   S637      1.0  0.95567  0.97528  0.99383  1.0000
  C   C1578     1.0  0.87343  0.95435  0.76914  1.0000
  C   C1579     1.0  0.70523  0.75100  0.95720  1.0000
  H   H2528     1.0  0.70337  0.97553  0.79873  1.0000
  H   H2529     1.0  0.67822  0.99099  0.93778  1.0000
  C   C1580     1.0  0.67624  0.71594  0.98892  1.0000
  S   S638      1.0  0.67574  0.95068  0.94808  1.0000
  C   C1581     1.0  0.91939  0.79539  0.91933  1.0000
  H   H2530     1.0  0.87626  0.95430  0.78436  1.0000
  H   H2531     1.0  0.98127  0.78581  0.97917  1.0000
  C   C1582     1.0  0.93541  0.68305  0.85484  1.0000
  H   H2532     1.0  0.94735  0.76745  0.86500  1.0000
  H   H2533     1.0  0.97046  0.77683  0.94888  1.0000
  H   H2534     1.0  0.93059  0.94726  0.98759  1.0000
  H   H2535     1.0  0.67075  0.75573  0.97811  1.0000
  H   H2536     1.0  0.71545  0.75391  0.94451  1.0000
  H   H2537     1.0  0.81200  0.68261  0.97556  1.0000
  C   C1583     1.0  0.68398  0.70064  0.95943  1.0000
  H   H2538     1.0  0.69029  0.99467  0.95822  1.0000
  H   H2539     1.0  0.96275  0.80990  0.95850  1.0000
  H   H2540     1.0  0.70200  0.79505  0.97446  1.0000
  C   C1584     1.0  0.69996  0.68981  0.96691  1.0000
  H   H2541     1.0  0.98163  0.72668  0.84902  1.0000
  H   H2542     1.0  0.94543  0.77415  0.94755  1.0000
  H   H2543     1.0  0.99633  0.70874  0.97940  1.0000
  H   H2544     1.0  0.67604  0.94218  0.88421  1.0000
  H   H2545     1.0  0.97516  0.72867  0.89246  1.0000
  H   H2546     1.0  0.67809  0.97557  0.79621  1.0000
  H   H2547     1.0  0.94458  0.75319  0.84570  1.0000
  C   C1585     1.0  0.96808  0.72254  0.85711  1.0000
  N   N159      1.0  0.95871  0.73799  0.86878  1.0000
  H   H2548     1.0  0.68957  0.95777  0.81184  1.0000
  C   C1586     1.0  0.95447  0.75559  0.85647  1.0000
  H   H2549     1.0  0.99591  0.95983  0.98215  1.0000
  C   C1587     1.0  0.83786  0.86356  0.92618  1.0000
  H   H2550     1.0  0.96786  0.76060  0.84875  1.0000
  H   H2551     1.0  0.84169  0.88954  0.96382  1.0000
  C   C1588     1.0  0.90731  0.79702  0.93618  1.0000
  H   H2552     1.0  0.98551  0.74652  0.87611  1.0000
  H   H2553     1.0  0.92150  0.78136  0.97442  1.0000
  H   H2554     1.0  0.69276  0.78309  0.93645  1.0000
  H   H2555     1.0  0.70903  0.67977  0.95835  1.0000
  C   C1589     1.0  0.88795  0.95868  0.94420  1.0000
  H   H2556     1.0  0.87420  0.95198  0.94441  1.0000
  Fe  Fe320     1.0  0.91350  0.92079  0.91352  1.0000
  S   S639      1.0  0.91929  0.89294  0.89918  1.0000
  S   S640      1.0  0.93704  0.93964  0.91842  1.0000
  Fe  Fe321     1.0  0.86962  0.92053  0.91468  1.0000
  S   S641      1.0  0.87186  0.89299  0.90048  1.0000
  S   S642      1.0  0.84291  0.93838  0.92691  1.0000
  Fe  Fe322     1.0  0.89517  0.88262  0.91958  1.0000
  S   S643      1.0  0.89313  0.85446  0.93774  1.0000
  Fe  Fe323     1.0  0.89574  0.90513  0.88080  1.0000
  S   S644      1.0  0.89678  0.89903  0.84959  1.0000
  S   S645      1.0  0.89126  0.90950  0.93538  1.0000
  S   S646      1.0  0.89160  0.93360  0.89358  1.0000
  C   C1590     1.0  0.93349  0.77947  0.98382  1.0000
  S   S647      1.0  0.92217  0.95378  0.77719  1.0000
  H   H2557     1.0  0.83470  0.70664  0.97943  1.0000
  Fe  Fe324     1.0  0.72809  0.93078  0.93438  1.0000
  S   S648      1.0  0.71216  0.92251  0.96270  1.0000
  S   S649      1.0  0.75733  0.91592  0.92385  1.0000
  Fe  Fe325     1.0  0.69380  0.95685  0.92076  1.0000
  H   H2558     1.0  0.96376  0.79100  0.99891  1.0000
  C   C1591     1.0  0.67338  0.84634  0.97704  1.0000
  Fe  Fe326     1.0  0.70182  0.95403  0.96320  1.0000
  S   S650      1.0  0.69464  0.96796  0.99169  1.0000
  Fe  Fe327     1.0  0.68699  0.91975  0.94596  1.0000
  S   S651      1.0  0.71946  0.96245  0.93592  1.0000
  S   S652      1.0  0.70344  0.92584  0.91751  1.0000
  H   H2559     1.0  0.90935  0.98607  0.95116  1.0000
  N   N160      1.0  0.95174  0.78494  0.97350  1.0000
  C   C1592     1.0  0.99718  0.71499  0.99270  1.0000
  H   H2560     1.0  0.68890  0.87154  0.97095  1.0000
  C   C1593     1.0  0.69236  0.70531  0.99630  1.0000
  H   H2561     1.0  0.89914  0.94993  0.93555  1.0000
  Fe  Fe328     1.0  0.97660  0.99710  0.99828  1.0000
  H   H2562     1.0  0.85656  0.98374  0.94786  1.0000
  H   H2563     1.0  0.80934  0.87794  0.96516  1.0000
  N   N161      1.0  0.69621  0.95346  0.78205  1.0000
  C   C1594     1.0  0.94257  0.94875  0.93969  1.0000
  C   C1595     1.0  0.95603  0.96242  0.93853  1.0000
  C   C1596     1.0  0.96026  0.97070  0.95492  1.0000
  C   C1597     1.0  0.95103  0.96537  0.97268  1.0000
  C   C1598     1.0  0.93772  0.95156  0.97388  1.0000
  C   C1599     1.0  0.93354  0.94324  0.95751  1.0000
  H   H2564     1.0  0.96311  0.96677  0.92481  1.0000
  H   H2565     1.0  0.97054  0.98130  0.95376  1.0000
  S   S653      1.0  0.68180  0.97894  0.89831  1.0000
  H   H2566     1.0  0.92338  0.93254  0.95868  1.0000
  C   C1600     1.0  0.90428  0.91435  0.82968  1.0000
  C   C1601     1.0  0.90571  0.90763  0.81136  1.0000
  C   C1602     1.0  0.91145  0.91937  0.79514  1.0000
  C   C1603     1.0  0.91569  0.93804  0.79710  1.0000
  C   C1604     1.0  0.91409  0.94483  0.81538  1.0000
  C   C1605     1.0  0.90852  0.93303  0.83161  1.0000
  H   H2567     1.0  0.90244  0.89320  0.80975  1.0000
  H   H2568     1.0  0.91259  0.91397  0.78117  1.0000
  H   H2569     1.0  0.91732  0.95926  0.81704  1.0000
  H   H2570     1.0  0.90748  0.93837  0.84560  1.0000
  C   C1606     1.0  0.90325  0.83190  0.93016  1.0000
  C   C1607     1.0  0.91520  0.83023  0.91324  1.0000
  H   H2571     1.0  0.89004  0.81635  0.95468  1.0000
  H   H2572     1.0  0.91830  0.84295  0.90429  1.0000
  C   C1608     1.0  0.81902  0.93278  0.92511  1.0000
  C   C1609     1.0  0.80353  0.94257  0.93567  1.0000
  C   C1610     1.0  0.78445  0.93797  0.93511  1.0000
  C   C1611     1.0  0.78072  0.92348  0.92398  1.0000
  C   C1612     1.0  0.79621  0.91392  0.91319  1.0000
  C   C1613     1.0  0.81524  0.91857  0.91369  1.0000
  H   H2573     1.0  0.80628  0.95364  0.94449  1.0000
  H   H2574     1.0  0.77268  0.94541  0.94351  1.0000
  H   H2575     1.0  0.79343  0.90282  0.90441  1.0000
  H   H2576     1.0  0.82696  0.91121  0.90519  1.0000
  H   H2577     1.0  0.89257  0.97170  0.90724  1.0000
  C   C1614     1.0  0.69169  0.96615  0.79787  1.0000
  C   C1615     1.0  0.94922  0.80525  0.96626  1.0000
  H   H2578     1.0  0.94335  0.71954  0.88901  1.0000
  H   H2579     1.0  0.86745  0.97240  0.91561  1.0000
  H   H2580     1.0  0.93254  0.81095  0.89480  1.0000
  H   H2581     1.0  0.92907  0.78820  0.99619  1.0000
  C   C1616     1.0  0.94983  0.67240  0.84371  1.0000
  C   C1617     1.0  0.68034  0.00174  0.94787  1.0000
  C   C1618     1.0  0.92327  0.81206  0.90790  1.0000
  C   C1619     1.0  0.98990  0.92370  0.99421  1.0000
  H   H2582     1.0  0.84078  0.89762  0.93925  1.0000
  C   C1620     1.0  0.96721  0.78210  0.98652  1.0000
  H   H2583     1.0  0.67969  0.90552  0.98574  1.0000
  H   H2584     1.0  0.93486  0.76416  0.98935  1.0000
  C   C1621     1.0  0.89936  0.81521  0.94161  1.0000
  H   H2585     1.0  0.82996  0.85131  0.92340  1.0000
  H   H2586     1.0  0.96933  0.76688  0.99225  1.0000
  N   N162      1.0  0.88603  0.97875  0.93626  1.0000
  C   C1622     1.0  0.67209  0.71381  0.97034  1.0000
  H   H2587     1.0  0.88674  0.94737  0.76172  1.0000
  H   H2588     1.0  0.84697  0.99752  0.76525  1.0000
  H   H2589     1.0  0.83350  0.87579  0.91603  1.0000
  H   H2590     1.0  0.85563  0.84755  0.95615  1.0000
  C   C1623     1.0  0.81293  0.87412  0.95020  1.0000
  H   H2591     1.0  0.71347  0.74259  0.96827  1.0000
  H   H2592     1.0  0.93075  0.72789  0.86855  1.0000
  C   C1624     1.0  0.90457  0.98704  0.93654  1.0000
  S   S654      1.0  0.95825  0.68226  0.90602  1.0000
  H   H2593     1.0  0.97630  0.93302  0.99192  1.0000
  C   C1625     1.0  0.87069  0.98976  0.94784  1.0000
  H   H2594     1.0  0.86047  0.88125  0.94645  1.0000
  C   C1626     1.0  0.68354  0.77889  0.94950  1.0000
  C   C1627     1.0  0.84465  0.88497  0.94907  1.0000
  H   H2595     1.0  0.71821  0.77435  0.98035  1.0000
  H   H2596     1.0  0.71269  0.93198  0.79862  1.0000
  H   H2597     1.0  0.87868  0.99432  0.91014  1.0000
  H   H2598     1.0  0.89821  0.97971  0.75412  1.0000
  H   H2599     1.0  0.94491  0.81483  0.97801  1.0000
  H   H2600     1.0  0.87411  0.98949  0.96289  1.0000
  C   C1628     1.0  0.95394  0.67761  0.88248  1.0000
  C   C1629     1.0  0.71416  0.94102  0.78501  1.0000
  H   H2601     1.0  0.95950  0.75747  0.96229  1.0000
  H   H2602     1.0  0.80793  0.88681  0.94092  1.0000
  H   H2603     1.0  0.83205  0.83949  0.95717  1.0000
  C   C1630     1.0  0.83993  0.85206  0.95900  1.0000
  H   H2604     1.0  0.85354  0.85936  0.92267  1.0000
  N   N163      1.0  0.83383  0.86868  0.94611  1.0000
  H   H2605     1.0  0.80424  0.86232  0.94778  1.0000
  H   H2606     1.0  0.83734  0.85545  0.97416  1.0000
  C   C1631     1.0  0.68021  0.94146  0.78151  1.0000
  H   H2607     1.0  0.97188  0.70924  0.86615  1.0000
  H   H2608     1.0  0.71931  0.78529  0.95645  1.0000
  H   H2609     1.0  0.92266  0.68952  0.84845  1.0000
  H   H2610     1.0  0.99466  0.91687  0.98069  1.0000
  H   H2611     1.0  0.71063  0.97446  0.76358  1.0000
  C   C1632     1.0  0.67067  0.95352  0.87429  1.0000
  H   H2612     1.0  0.72085  0.99702  0.97668  1.0000
  H   H2613     1.0  0.68536  0.97455  0.76098  1.0000
  C   C1633     1.0  0.69872  0.96513  0.76380  1.0000
  C   C1634     1.0  0.71437  0.00079  0.99053  1.0000
  C   C1635     1.0  0.82663  0.68092  0.96894  1.0000
  C   C1636     1.0  0.67176  0.97262  0.87779  1.0000
  C   C1637     1.0  0.68229  0.76425  0.98151  1.0000
  S   S655      1.0  0.72473  0.67967  0.99520  1.0000
  H   H2614     1.0  0.67505  0.77740  0.98779  1.0000
  H   H2615     1.0  0.70617  0.00248  0.91722  1.0000
  C   C1638     1.0  0.85100  0.98268  0.77118  1.0000
  N   N164      1.0  0.86867  0.97400  0.76076  1.0000
  H   H2616     1.0  0.88824  0.98577  0.77725  1.0000
  H   H2617     1.0  0.85302  0.98336  0.78651  1.0000
  H   H2618     1.0  0.90357  0.00236  0.93114  1.0000
  C   C1639     1.0  0.70159  0.98894  0.00088  1.0000
  H   H2619     1.0  0.68794  0.92308  0.99935  1.0000
  C   C1640     1.0  0.67845  0.91122  0.00006  1.0000
  H   H2620     1.0  0.88160  0.00066  0.75649  1.0000
  S   S656      1.0  0.94740  0.67171  0.81896  1.0000
  H   H2621     1.0  0.67517  0.79212  0.95463  1.0000
  H   H2622     1.0  0.69028  0.75577  0.99269  1.0000
  H   H2623     1.0  0.70194  0.95596  0.75156  1.0000
  H   H2624     1.0  0.86877  0.00501  0.94227  1.0000
