data_image0
_chemical_formula_structural       HSFeSHFeSFeH3CH3FeSHC6H4CH3CSCHC2H3CHC2HFeHSHSH2CH2C3HCNC3H3SC2H6CS2NCH3CNH2FeSHFeSHSFeS3H2CSCHCSCHCHFeHC6H5C4HC2HFeH3CH2CH6CNCHS2C2SH4CHCH2CH4NH4CNC2H2CH2CH4CH2SFe2S2FeSHFeHFeHS4H3NC6H3CHCH4CH4SCH4CHS3FeS2CHCSFeCHSHC2H2C7H5SFeH5CHNCHC2H4CFeH3NCH2CH2FeH4SHFeS2FeSFe2S3CH4C6H4NCHC2HCHCH7CH2NHSHC3S3FeCSHSHCH3FeHCSFeCH2C6H4CHFeHFeCHCHSNH6CH2CHCH2SCNHCHFeS2C2HCH2C2HC2H3NH7C2H2C2H3CHSHCFeCFeSFeSFeS2FeHFeS3C6H5CSH3CHNSHCH4SNCHCSH2C2H7CH2SCHCH4CSHC2HCHC2H2SCFeHFeS2H2FeCSNC4HCHCHCFeH4C3HSH4CSCFeSHCFeSHFeS2FeSFeS2HNCH2SH2C6H4SH2SFeCHCFeH2SCH6CH2C2H3SCSNH3CHC3FeHFeH3CHFeCHCSC2SNSH4FeHS2C2HC6H3SH4CH3SHCHCH2SH4CNHCH4CSH2C3H5C3H2SNHCH2CH2FeH4CSCHSC2NSH2CFe2S2CSC6H5CHSC2H4CFeCH6CSCHSH2NCSH3CHNFeCH2CH3S2CHFeHSH2C3HSFeS2HCFe2S3CH3CH3CNHFeH2C3HC2H6FeH3SHCHCSHNCFeCH4C2HSH2FeSCFeSHCFeSHSH3CHSH3C6H5CHSH2CHC2FeHNHCSHCH4CHCHCHNH2CSHSHCFeS2FeSCH3CHCH2SCH3NSCFeH2CHCFeS2HFeHS2C3HFeH2CH3SC2H3C2HC2H2CH3NH6S2H2FeNHFeCH2CH7CHCNCHCH3C4H2CSC2HFeS2FeSHFeSCS2CHC2NH2CH3FeC3HCHCHCHCSH3CH2C2H6C2H3CSC2HC2H3SHCH3CH2C2H3CHC3H3FeSFeS2Fe2S3HC3SHCH4NCH4C2H2C2H3CH3SC3NHC4H2CH2SHC3H2C3H2CFeS2FeS2Fe2HS2H5C2NHCH7CH4C2H4C2SCNC2FeH3C6H3CH5CHSCFeH2SFeHFeNHSH4S2HNH2C3SFeC4H5CH2SCHC8H12NCH4CS2HFeSFeSH3C2SH2SNHFeCHCS2FeCH3CH4CH2CHSH5C2HCHSH2NHCH4NC6H3SHCFeC4FeH3CHSHCHCH2CSFeSH4FeS4H6CH2CHSC2FeHC5H3SH2SC2FeSHFe2S2H3CHSHC2HCHCH2CSH2NH2NHFeCSFeH4S2FeSH3C3H5C6H5CFeHSCH3CSHC2SCH2CH2C2N2HSHSH7SC2HCNHFeHSFeHSC2S2HSH2C2HNHC2HC6H5C3HFeH4CSCH2C2H6C2H3FeH2SHC2H2SCH4C2NH5CHCH5CHCHC2HNH5SHSCFeCFeS3H2FeC5H4CH3C2H2CH3CHSCHSCFeNC2HCH2SH3NCH2C2H3CH2CH6C2S2C2HFe3CSFeS3H2C6H5CNCHCH3C2NH2SHC3H4SCH2C2HCHC2H2CH10CH3CSFeSCFeSFeS3H2C3H2CH4CH2CH4S2CFeH3CH2FeH3NSH2CH3CHNH2CFeH2S2CHC6H3CHCHCHC3H5CNH2SHC2HFeSHS2FeSFeS2HC5NC2HCH3C2H2C7H4CHFeCH4CH4NHSH2C2HSH7FeH3CNH4SFeHSCFeS2HCHC2H2CSH2CHSHC2SH5CHCHC2H3FeS2HFeSCSCSC3H4NCSH5SC6H4NC2HCHNFeCH2CH2SHC3H2FeH2NC2H2CHCHSHC3HSC2HCH4CSHFeS2H3SHFeS2H3FeSHSCHC2HC3HCH5CHC6H7CHC3FeH3C2HFeHSH2CSC2FeNH2C2HSH4CH3CH3CH3CS2H7CH3C2HCH2CSCHCNH2C8H5C2H2NS2CHCHNFeS2CHSH2FeCHC2SHFeH5CHFeSH3CHNH2CSH3C2H4C3H2NHCSCFeS2HSFeSFeS3CHCHCHC4H2C2H2C6H4CH3NHCH3CHCH2FeH4CH2CH4C2H4CHC3HFeH4CSH2C2HC2HNCH3C4H5CH2CH2NHNC6H2CH3FeS2FeS2FeSFeS3C2H6CH3CH2CH3CH5C2HC2HCNH2CH2CHCH5CH2CH2C2SC3H3NHCH2C3SC2H6FeS2FeSFeSFeS3C4HC5H2C2H4CHCH3NCH4NCH10CH4
_chemical_formula_sum              "H1280 S320 Fe160 C800 N80"
_cell_length_a       75.0278
_cell_length_b       74.8914
_cell_length_c       34.5973
_cell_angle_alpha    88.7403
_cell_angle_beta     88.7584
_cell_angle_gamma    79.1254

_space_group_name_H-M_alt    "P 1"
_space_group_IT_number       1

loop_
  _space_group_symop_operation_xyz
  'x, y, z'

loop_
  _atom_site_type_symbol
  _atom_site_label
  _atom_site_symmetry_multiplicity
  _atom_site_fract_x
  _atom_site_fract_y
  _atom_site_fract_z
  _atom_site_occupancy
  H   H1        1.0  0.19403  0.15680  0.28831  1.0000
  S   S1        1.0  0.08295  0.24974  0.33066  1.0000
  Fe  Fe1       1.0  0.06398  0.27600  0.42207  1.0000
  S   S2        1.0  0.07131  0.24560  0.42236  1.0000
  H   H2        1.0  0.09468  0.35247  0.13107  1.0000
  Fe  Fe2       1.0  0.09610  0.24995  0.38846  1.0000
  S   S3        1.0  0.12394  0.23510  0.40740  1.0000
  Fe  Fe3       1.0  0.05754  0.24801  0.36512  1.0000
  H   H3        1.0  0.17651  0.19242  0.47453  1.0000
  H   H4        1.0  0.12835  0.31255  0.20098  1.0000
  H   H5        1.0  0.09497  0.31737  0.20886  1.0000
  C   C1        1.0  0.19279  0.07582  0.35995  1.0000
  H   H6        1.0  0.08084  0.33427  0.17976  1.0000
  H   H7        1.0  0.14361  0.19200  0.48092  1.0000
  H   H8        1.0  0.17310  0.06987  0.32006  1.0000
  Fe  Fe4       1.0  0.18854  0.14610  0.36090  1.0000
  S   S4        1.0  0.16084  0.15872  0.33870  1.0000
  H   H9        1.0  0.19405  0.08791  0.48344  1.0000
  C   C2        1.0  0.13377  0.21379  0.38812  1.0000
  C   C3        1.0  0.15111  0.20529  0.40022  1.0000
  C   C4        1.0  0.15935  0.18824  0.38586  1.0000
  C   C5        1.0  0.15037  0.17965  0.35886  1.0000
  C   C6        1.0  0.13308  0.18817  0.34659  1.0000
  C   C7        1.0  0.12475  0.20517  0.36127  1.0000
  H   H10       1.0  0.15824  0.21202  0.42054  1.0000
  H   H11       1.0  0.17269  0.18182  0.39546  1.0000
  H   H12       1.0  0.12604  0.18161  0.32573  1.0000
  H   H13       1.0  0.11138  0.21160  0.35181  1.0000
  C   C8        1.0  0.18349  0.06421  0.34045  1.0000
  H   H14       1.0  0.18499  0.20296  0.21195  1.0000
  H   H15       1.0  0.12192  0.35406  0.19548  1.0000
  H   H16       1.0  0.13852  0.32576  0.16574  1.0000
  C   C9        1.0  0.18765  0.04535  0.34702  1.0000
  S   S5        1.0  0.04811  0.27809  0.36755  1.0000
  C   C10       1.0  0.08358  0.28131  0.51054  1.0000
  H   H17       1.0  0.12631  0.30878  0.15029  1.0000
  C   C11       1.0  0.18933  0.16224  0.25942  1.0000
  C   C12       1.0  0.11027  0.34703  0.20080  1.0000
  H   H18       1.0  0.09777  0.35770  0.20085  1.0000
  H   H19       1.0  0.18931  0.19514  0.51648  1.0000
  H   H20       1.0  0.17998  0.20700  0.28262  1.0000
  C   C13       1.0  0.14571  0.18871  0.51230  1.0000
  H   H21       1.0  0.10699  0.33214  0.10953  1.0000
  C   C14       1.0  0.10743  0.34211  0.13270  1.0000
  C   C15       1.0  0.06494  0.28805  0.51466  1.0000
  H   H22       1.0  0.14858  0.17363  0.51562  1.0000
  Fe  Fe5       1.0  0.07448  0.28008  0.33735  1.0000
  H   H23       1.0  0.08949  0.27801  0.48219  1.0000
  S   S6        1.0  0.08971  0.28059  0.39252  1.0000
  H   H24       1.0  0.11153  0.34089  0.23048  1.0000
  S   S7        1.0  0.05054  0.28973  0.47506  1.0000
  H   H25       1.0  0.15420  0.22067  0.49088  1.0000
  H   H26       1.0  0.17504  0.16027  0.25705  1.0000
  C   C16       1.0  0.17766  0.18938  0.50613  1.0000
  H   H27       1.0  0.03712  0.24293  0.48781  1.0000
  H   H28       1.0  0.18944  0.09035  0.35476  1.0000
  C   C17       1.0  0.07490  0.32146  0.28611  1.0000
  C   C18       1.0  0.12644  0.31946  0.17209  1.0000
  C   C19       1.0  0.09386  0.32426  0.17986  1.0000
  H   H29       1.0  0.05736  0.32930  0.23772  1.0000
  C   C20       1.0  0.17939  0.19229  0.28503  1.0000
  N   N1        1.0  0.10950  0.33322  0.17134  1.0000
  C   C21       1.0  0.08168  0.35723  0.28057  1.0000
  C   C22       1.0  0.06968  0.35158  0.25523  1.0000
  C   C23       1.0  0.08970  0.34520  0.30971  1.0000
  H   H30       1.0  0.18384  0.18752  0.31458  1.0000
  H   H31       1.0  0.09895  0.34950  0.32953  1.0000
  H   H32       1.0  0.06459  0.25142  0.51168  1.0000
  S   S8        1.0  0.07291  0.29842  0.28382  1.0000
  C   C24       1.0  0.08630  0.32735  0.31255  1.0000
  C   C25       1.0  0.06635  0.33374  0.25796  1.0000
  H   H33       1.0  0.09298  0.31796  0.33427  1.0000
  H   H34       1.0  0.09280  0.31376  0.15821  1.0000
  H   H35       1.0  0.11881  0.34933  0.12549  1.0000
  H   H36       1.0  0.04580  0.21983  0.50199  1.0000
  H   H37       1.0  0.16488  0.19096  0.28323  1.0000
  H   H38       1.0  0.16979  0.18706  0.21254  1.0000
  C   C26       1.0  0.03772  0.23293  0.51230  1.0000
  S   S9        1.0  0.03762  0.23069  0.34765  1.0000
  S   S10       1.0  0.19336  0.13367  0.42012  1.0000
  N   N2        1.0  0.19071  0.18160  0.25492  1.0000
  C   C27       1.0  0.18420  0.18836  0.21632  1.0000
  H   H39       1.0  0.19242  0.18057  0.19291  1.0000
  H   H40       1.0  0.06315  0.36082  0.23316  1.0000
  H   H41       1.0  0.18143  0.17434  0.50971  1.0000
  C   C28       1.0  0.15632  0.21673  0.52196  1.0000
  N   N3        1.0  0.16066  0.19675  0.52740  1.0000
  H   H42       1.0  0.13266  0.19393  0.52771  1.0000
  H   H43       1.0  0.07342  0.22886  0.52884  1.0000
  Fe  Fe6       1.0  0.06688  0.27370  0.74905  1.0000
  S   S11       1.0  0.05935  0.24600  0.75167  1.0000
  H   H44       1.0  0.04298  0.29757  0.55460  1.0000
  Fe  Fe7       1.0  0.08533  0.26685  0.67023  1.0000
  S   S12       1.0  0.07908  0.23889  0.66589  1.0000
  H   H45       1.0  0.09163  0.29984  0.78238  1.0000
  S   S13       1.0  0.17927  0.17721  0.66612  1.0000
  Fe  Fe8       1.0  0.08765  0.23596  0.72787  1.0000
  S   S14       1.0  0.10456  0.20974  0.75077  1.0000
  S   S15       1.0  0.05717  0.27958  0.68867  1.0000
  S   S16       1.0  0.09590  0.26330  0.73074  1.0000
  H   H46       1.0  0.16514  0.18895  0.83840  1.0000
  H   H47       1.0  0.05412  0.35942  0.81801  1.0000
  C   C29       1.0  0.09822  0.31232  0.68926  1.0000
  S   S17       1.0  0.18523  0.08683  0.65509  1.0000
  C   C30       1.0  0.16295  0.19215  0.56906  1.0000
  H   H48       1.0  0.07080  0.24764  0.56141  1.0000
  C   C31       1.0  0.06929  0.33294  0.69320  1.0000
  S   S18       1.0  0.10037  0.27797  0.62126  1.0000
  C   C32       1.0  0.05737  0.29225  0.55139  1.0000
  H   H49       1.0  0.17193  0.15514  0.84176  1.0000
  C   C33       1.0  0.18430  0.10000  0.55528  1.0000
  H   H50       1.0  0.06201  0.32160  0.68782  1.0000
  Fe  Fe9       1.0  0.05155  0.25125  0.68975  1.0000
  H   H51       1.0  0.18906  0.17092  0.74804  1.0000
  C   C34       1.0  0.12501  0.20064  0.72615  1.0000
  C   C35       1.0  0.13253  0.21082  0.69797  1.0000
  C   C36       1.0  0.14914  0.20344  0.67970  1.0000
  C   C37       1.0  0.15825  0.18579  0.68915  1.0000
  C   C38       1.0  0.15060  0.17549  0.71688  1.0000
  C   C39       1.0  0.13411  0.18296  0.73554  1.0000
  H   H52       1.0  0.12565  0.22448  0.69064  1.0000
  H   H53       1.0  0.15501  0.21153  0.65840  1.0000
  H   H54       1.0  0.15729  0.16175  0.72374  1.0000
  H   H55       1.0  0.12823  0.17496  0.75703  1.0000
  H   H56       1.0  0.16635  0.17718  0.57434  1.0000
  C   C40       1.0  0.09139  0.32830  0.79233  1.0000
  C   C41       1.0  0.08086  0.34522  0.80194  1.0000
  C   C42       1.0  0.08683  0.28220  0.58017  1.0000
  C   C43       1.0  0.08341  0.31282  0.78983  1.0000
  H   H57       1.0  0.16743  0.22325  0.53242  1.0000
  C   C44       1.0  0.18490  0.06630  0.68057  1.0000
  C   C45       1.0  0.03476  0.25693  0.55871  1.0000
  H   H58       1.0  0.17905  0.20098  0.80848  1.0000
  Fe  Fe10      1.0  0.19565  0.14954  0.68237  1.0000
  H   H59       1.0  0.05437  0.21244  0.57056  1.0000
  H   H60       1.0  0.09930  0.32612  0.61747  1.0000
  H   H61       1.0  0.16378  0.18860  0.78673  1.0000
  C   C46       1.0  0.06449  0.24191  0.53682  1.0000
  H   H62       1.0  0.10148  0.31297  0.72023  1.0000
  H   H63       1.0  0.04002  0.33198  0.81433  1.0000
  C   C47       1.0  0.06235  0.34646  0.81037  1.0000
  H   H64       1.0  0.09816  0.34597  0.71600  1.0000
  H   H65       1.0  0.08936  0.35807  0.67322  1.0000
  H   H66       1.0  0.17893  0.08814  0.56760  1.0000
  H   H67       1.0  0.17878  0.05261  0.62975  1.0000
  H   H68       1.0  0.14366  0.22277  0.53800  1.0000
  H   H69       1.0  0.11086  0.34261  0.67125  1.0000
  C   C48       1.0  0.06821  0.28897  0.58414  1.0000
  N   N4        1.0  0.08756  0.32973  0.67476  1.0000
  C   C49       1.0  0.18128  0.05137  0.66046  1.0000
  H   H70       1.0  0.06215  0.29196  0.61234  1.0000
  S   S19       1.0  0.05435  0.29514  0.79182  1.0000
  S   S20       1.0  0.18928  0.12936  0.72724  1.0000
  C   C50       1.0  0.18774  0.06472  0.72041  1.0000
  C   C51       1.0  0.06483  0.31414  0.79712  1.0000
  S   S21       1.0  0.09116  0.36456  0.80002  1.0000
  H   H71       1.0  0.10899  0.27347  0.54007  1.0000
  H   H72       1.0  0.07789  0.34172  0.62016  1.0000
  H   H73       1.0  0.10578  0.32720  0.78648  1.0000
  H   H74       1.0  0.11133  0.30846  0.67306  1.0000
  C   C52       1.0  0.05438  0.33091  0.80816  1.0000
  H   H75       1.0  0.07876  0.31763  0.62465  1.0000
  C   C53       1.0  0.08578  0.32884  0.63240  1.0000
  H   H76       1.0  0.09071  0.30098  0.68626  1.0000
  H   H77       1.0  0.03248  0.22407  0.58759  1.0000
  C   C54       1.0  0.09691  0.34475  0.68411  1.0000
  H   H78       1.0  0.19319  0.17243  0.87087  1.0000
  H   H79       1.0  0.19024  0.07628  0.73619  1.0000
  H   H80       1.0  0.17416  0.19797  0.58144  1.0000
  H   H81       1.0  0.18826  0.04737  0.77106  1.0000
  N   N5        1.0  0.04583  0.23940  0.54665  1.0000
  H   H82       1.0  0.03011  0.27265  0.82552  1.0000
  H   H83       1.0  0.03380  0.26734  0.53495  1.0000
  H   H84       1.0  0.07006  0.33413  0.72505  1.0000
  H   H85       1.0  0.05263  0.23042  0.60479  1.0000
  C   C55       1.0  0.09458  0.27868  0.54329  1.0000
  N   N6        1.0  0.18778  0.17190  0.81014  1.0000
  C   C56       1.0  0.04637  0.22594  0.57869  1.0000
  C   C57       1.0  0.18670  0.04829  0.74007  1.0000
  H   H86       1.0  0.06076  0.34576  0.68229  1.0000
  H   H87       1.0  0.17476  0.10659  0.53275  1.0000
  C   C58       1.0  0.17333  0.18832  0.81108  1.0000
  H   H88       1.0  0.16987  0.15489  0.79024  1.0000
  H   H89       1.0  0.19013  0.14281  0.81274  1.0000
  C   C59       1.0  0.17956  0.15547  0.81390  1.0000
  H   H90       1.0  0.04068  0.26239  0.58418  1.0000
  H   H91       1.0  0.18389  0.10976  0.57920  1.0000
  H   H92       1.0  0.03038  0.22028  0.72084  1.0000
  H   H93       1.0  0.15041  0.19743  0.58622  1.0000
  C   C60       1.0  0.11999  0.41617  0.29303  1.0000
  H   H94       1.0  0.11139  0.45164  0.27567  1.0000
  H   H95       1.0  0.11967  0.42529  0.36789  1.0000
  S   S22       1.0  0.06629  0.50415  0.34702  1.0000
  Fe  Fe11      1.0  0.06908  0.53325  0.35706  1.0000
  Fe  Fe12      1.0  0.08123  0.43257  0.18685  1.0000
  S   S23       1.0  0.07039  0.42678  0.12929  1.0000
  S   S24       1.0  0.09141  0.45854  0.19752  1.0000
  Fe  Fe13      1.0  0.07960  0.39504  0.22003  1.0000
  S   S25       1.0  0.06867  0.38585  0.16560  1.0000
  H   H96       1.0  0.04349  0.67100  0.20104  1.0000
  Fe  Fe14      1.0  0.08883  0.39968  0.13428  1.0000
  H   H97       1.0  0.07645  0.53427  0.50505  1.0000
  Fe  Fe15      1.0  0.05099  0.41352  0.16447  1.0000
  H   H98       1.0  0.09196  0.50901  0.28497  1.0000
  S   S26       1.0  0.10162  0.40638  0.18875  1.0000
  S   S27       1.0  0.05994  0.42171  0.22183  1.0000
  S   S28       1.0  0.10245  0.38413  0.08344  1.0000
  S   S29       1.0  0.06927  0.54011  0.41993  1.0000
  H   H99       1.0  0.08797  0.43295  0.26609  1.0000
  H   H100      1.0  0.10040  0.42272  0.06805  1.0000
  H   H101      1.0  0.07749  0.43957  0.31208  1.0000
  N   N7        1.0  0.10632  0.42979  0.31323  1.0000
  C   C61       1.0  0.07155  0.49359  0.30217  1.0000
  C   C62       1.0  0.06293  0.47925  0.29260  1.0000
  C   C63       1.0  0.06811  0.46917  0.25909  1.0000
  C   C64       1.0  0.08240  0.47294  0.23569  1.0000
  C   C65       1.0  0.09070  0.48761  0.24466  1.0000
  C   C66       1.0  0.08520  0.49802  0.27769  1.0000
  H   H102      1.0  0.05227  0.47588  0.31135  1.0000
  H   H103      1.0  0.06130  0.45823  0.25193  1.0000
  H   H104      1.0  0.10170  0.49068  0.22652  1.0000
  C   C67       1.0  0.10619  0.42535  0.35504  1.0000
  H   H105      1.0  0.12407  0.44902  0.31946  1.0000
  C   C68       1.0  0.11073  0.44809  0.30706  1.0000
  H   H106      1.0  0.09599  0.43546  0.37093  1.0000
  H   H107      1.0  0.13383  0.41578  0.30429  1.0000
  H   H108      1.0  0.10270  0.41168  0.36054  1.0000
  H   H109      1.0  0.11678  0.40226  0.29638  1.0000
  C   C69       1.0  0.08824  0.42954  0.29753  1.0000
  H   H110      1.0  0.12042  0.41931  0.26141  1.0000
  H   H111      1.0  0.10026  0.45884  0.32054  1.0000
  H   H112      1.0  0.08447  0.41590  0.30126  1.0000
  H   H113      1.0  0.05091  0.66335  0.08509  1.0000
  S   S30       1.0  0.03283  0.69333  0.13355  1.0000
  C   C70       1.0  0.05071  0.39660  0.05236  1.0000
  H   H114      1.0  0.04918  0.55832  0.50305  1.0000
  H   H115      1.0  0.05468  0.43120  0.04064  1.0000
  H   H116      1.0  0.06459  0.69878  0.08200  1.0000
  H   H117      1.0  0.14087  0.55848  0.49125  1.0000
  C   C71       1.0  0.06581  0.66296  0.08456  1.0000
  H   H118      1.0  0.06906  0.66854  0.11250  1.0000
  S   S31       1.0  0.06560  0.59178  0.27946  1.0000
  S   S32       1.0  0.06694  0.58289  0.39240  1.0000
  S   S33       1.0  0.11329  0.56049  0.43591  1.0000
  Fe  Fe16      1.0  0.07393  0.69180  0.24455  1.0000
  S   S34       1.0  0.07984  0.68284  0.18337  1.0000
  S   S35       1.0  0.07651  0.67304  0.29708  1.0000
  C   C72       1.0  0.12800  0.56107  0.50680  1.0000
  H   H119      1.0  0.09533  0.67844  0.07916  1.0000
  C   C73       1.0  0.13465  0.59826  0.38266  1.0000
  S   S36       1.0  0.08805  0.37867  0.27449  1.0000
  Fe  Fe17      1.0  0.06729  0.57296  0.33174  1.0000
  C   C74       1.0  0.11776  0.62108  0.34011  1.0000
  H   H120      1.0  0.04750  0.52771  0.47823  1.0000
  S   S37       1.0  0.09055  0.54943  0.34046  1.0000
  H   H121      1.0  0.10199  0.59902  0.41681  1.0000
  C   C75       1.0  0.11181  0.56263  0.48668  1.0000
  C   C76       1.0  0.09519  0.56605  0.50721  1.0000
  H   H122      1.0  0.08260  0.56761  0.49175  1.0000
  H   H123      1.0  0.13932  0.60881  0.39991  1.0000
  C   C77       1.0  0.11114  0.59077  0.34301  1.0000
  C   C78       1.0  0.06681  0.61491  0.28456  1.0000
  C   C79       1.0  0.06962  0.62530  0.25158  1.0000
  C   C80       1.0  0.07192  0.64339  0.25496  1.0000
  C   C81       1.0  0.07146  0.65120  0.29140  1.0000
  C   C82       1.0  0.06795  0.64102  0.32428  1.0000
  C   C83       1.0  0.06551  0.62297  0.32084  1.0000
  H   H124      1.0  0.07044  0.61922  0.22336  1.0000
  H   H125      1.0  0.07457  0.65110  0.22945  1.0000
  H   H126      1.0  0.06732  0.64709  0.35249  1.0000
  H   H127      1.0  0.06277  0.61530  0.34627  1.0000
  H   H128      1.0  0.13419  0.58636  0.40240  1.0000
  S   S38       1.0  0.04595  0.55600  0.34281  1.0000
  Fe  Fe18      1.0  0.04773  0.56388  0.40431  1.0000
  H   H129      1.0  0.10457  0.62632  0.32597  1.0000
  H   H130      1.0  0.09747  0.59533  0.33046  1.0000
  H   H131      1.0  0.12808  0.61752  0.31656  1.0000
  H   H132      1.0  0.10709  0.62149  0.41514  1.0000
  H   H133      1.0  0.07280  0.64848  0.08373  1.0000
  C   C84       1.0  0.04389  0.52356  0.50791  1.0000
  H   H134      1.0  0.12136  0.63252  0.35639  1.0000
  N   N8        1.0  0.11669  0.60523  0.36571  1.0000
  C   C85       1.0  0.06188  0.69275  0.05412  1.0000
  H   H135      1.0  0.08955  0.61616  0.38556  1.0000
  C   C86       1.0  0.10079  0.41589  0.04076  1.0000
  C   C87       1.0  0.10206  0.39701  0.04016  1.0000
  H   H136      1.0  0.12077  0.58648  0.31859  1.0000
  H   H137      1.0  0.04689  0.69401  0.05230  1.0000
  H   H138      1.0  0.11057  0.57849  0.36130  1.0000
  H   H139      1.0  0.14512  0.59371  0.35989  1.0000
  C   C88       1.0  0.10324  0.61073  0.39716  1.0000
  Fe  Fe19      1.0  0.08848  0.55829  0.40250  1.0000
  H   H140      1.0  0.05159  0.38236  0.04285  1.0000
  H   H141      1.0  0.06481  0.39874  0.05648  1.0000
  H   H142      1.0  0.03347  0.38633  0.19374  1.0000
  N   N9        1.0  0.07132  0.67360  0.05144  1.0000
  C   C89       1.0  0.04069  0.42849  0.03749  1.0000
  H   H143      1.0  0.09879  0.65859  0.04971  1.0000
  H   H144      1.0  0.04879  0.50864  0.51086  1.0000
  C   C90       1.0  0.09116  0.67280  0.05195  1.0000
  H   H145      1.0  0.04374  0.39788  0.08120  1.0000
  H   H146      1.0  0.03369  0.43072  0.06622  1.0000
  Fe  Fe20      1.0  0.05364  0.70175  0.17084  1.0000
  H   H147      1.0  0.03367  0.59602  0.33645  1.0000
  H   H148      1.0  0.03010  0.53635  0.40633  1.0000
  H   H149      1.0  0.06617  0.70133  0.03028  1.0000
  H   H150      1.0  0.12303  0.45749  0.77903  1.0000
  S   S39       1.0  0.07166  0.53418  0.77839  1.0000
  H   H151      1.0  0.14042  0.44074  0.83275  1.0000
  Fe  Fe21      1.0  0.08491  0.42013  0.88081  1.0000
  S   S40       1.0  0.09406  0.41392  0.81958  1.0000
  S   S41       1.0  0.10121  0.42990  0.92694  1.0000
  Fe  Fe22      1.0  0.04657  0.41623  0.86548  1.0000
  S   S42       1.0  0.05217  0.40935  0.80302  1.0000
  Fe  Fe23      1.0  0.07765  0.39162  0.82504  1.0000
  Fe  Fe24      1.0  0.06794  0.43203  0.80272  1.0000
  S   S43       1.0  0.06510  0.45213  0.75255  1.0000
  S   S44       1.0  0.07060  0.39658  0.88810  1.0000
  S   S45       1.0  0.06028  0.44016  0.86325  1.0000
  C   C91       1.0  0.10230  0.39833  0.96976  1.0000
  H   H152      1.0  0.14167  0.47337  0.82127  1.0000
  H   H153      1.0  0.10201  0.45237  0.79762  1.0000
  H   H154      1.0  0.11984  0.43445  0.85099  1.0000
  H   H155      1.0  0.10305  0.39145  0.94244  1.0000
  C   C92       1.0  0.06574  0.47519  0.76018  1.0000
  C   C93       1.0  0.06594  0.48199  0.79745  1.0000
  C   C94       1.0  0.06766  0.50015  0.80259  1.0000
  C   C95       1.0  0.06897  0.51168  0.77055  1.0000
  C   C96       1.0  0.06809  0.50507  0.73332  1.0000
  C   C97       1.0  0.06651  0.48686  0.72818  1.0000
  H   H156      1.0  0.06506  0.47321  0.82228  1.0000
  H   H157      1.0  0.06809  0.50528  0.83148  1.0000
  H   H158      1.0  0.06899  0.51384  0.70844  1.0000
  H   H159      1.0  0.06622  0.48173  0.69924  1.0000
  N   N10       1.0  0.11789  0.46307  0.83949  1.0000
  C   C98       1.0  0.12961  0.47684  0.84090  1.0000
  H   H160      1.0  0.11471  0.69940  0.68564  1.0000
  C   C99       1.0  0.12830  0.44514  0.85173  1.0000
  C   C100      1.0  0.10210  0.46827  0.86590  1.0000
  H   H161      1.0  0.07806  0.53686  0.55619  1.0000
  C   C101      1.0  0.07176  0.52974  0.53374  1.0000
  H   H162      1.0  0.05156  0.39337  0.97544  1.0000
  C   C102      1.0  0.10141  0.41715  0.97034  1.0000
  H   H163      1.0  0.12213  0.49056  0.83188  1.0000
  H   H164      1.0  0.03251  0.53931  0.75145  1.0000
  H   H165      1.0  0.13158  0.68941  0.74563  1.0000
  H   H166      1.0  0.10423  0.47555  0.78885  1.0000
  H   H167      1.0  0.09276  0.45840  0.86486  1.0000
  H   H168      1.0  0.10635  0.46849  0.89652  1.0000
  H   H169      1.0  0.13461  0.47797  0.87066  1.0000
  C   C103      1.0  0.11154  0.46207  0.79955  1.0000
  H   H170      1.0  0.13298  0.44531  0.88205  1.0000
  H   H171      1.0  0.09421  0.48196  0.85835  1.0000
  N   N11       1.0  0.10303  0.70084  0.74303  1.0000
  H   H172      1.0  0.11676  0.67362  0.75706  1.0000
  S   S46       1.0  0.09097  0.68950  0.93502  1.0000
  H   H173      1.0  0.04340  0.41691  0.96368  1.0000
  C   C104      1.0  0.09494  0.56775  0.54790  1.0000
  C   C105      1.0  0.04499  0.55340  0.53182  1.0000
  C   C106      1.0  0.10208  0.69743  0.70128  1.0000
  S   S47       1.0  0.06260  0.59200  0.64736  1.0000
  S   S48       1.0  0.05186  0.62252  0.73979  1.0000
  S   S49       1.0  0.04528  0.57433  0.72326  1.0000
  Fe  Fe25      1.0  0.09186  0.68757  0.87032  1.0000
  C   C107      1.0  0.06637  0.66591  0.01511  1.0000
  S   S50       1.0  0.10325  0.66227  0.83689  1.0000
  H   H174      1.0  0.05165  0.53552  0.59905  1.0000
  S   S51       1.0  0.08851  0.57539  0.72121  1.0000
  H   H175      1.0  0.11967  0.69026  0.79131  1.0000
  C   C108      1.0  0.10072  0.42589  0.00590  1.0000
  H   H176      1.0  0.07353  0.65160  0.01152  1.0000
  H   H177      1.0  0.05121  0.51317  0.58171  1.0000
  H   H178      1.0  0.03665  0.38686  0.91108  1.0000
  Fe  Fe26      1.0  0.06250  0.59533  0.71186  1.0000
  H   H179      1.0  0.05436  0.67442  0.91623  1.0000
  C   C109      1.0  0.12775  0.56267  0.54704  1.0000
  S   S52       1.0  0.11226  0.56763  0.61861  1.0000
  Fe  Fe27      1.0  0.07114  0.55398  0.72766  1.0000
  C   C110      1.0  0.11131  0.56594  0.56787  1.0000
  H   H180      1.0  0.14042  0.56133  0.56219  1.0000
  H   H181      1.0  0.08218  0.57062  0.56379  1.0000
  C   C111      1.0  0.06634  0.63314  0.76719  1.0000
  C   C112      1.0  0.08500  0.62638  0.76867  1.0000
  C   C113      1.0  0.09617  0.63537  0.79037  1.0000
  C   C114      1.0  0.08873  0.65103  0.81101  1.0000
  C   C115      1.0  0.07003  0.65769  0.80976  1.0000
  C   C116      1.0  0.05892  0.64887  0.78767  1.0000
  H   H182      1.0  0.09087  0.61430  0.75291  1.0000
  H   H183      1.0  0.11062  0.63011  0.79123  1.0000
  H   H184      1.0  0.06411  0.66960  0.82576  1.0000
  H   H185      1.0  0.04452  0.65424  0.78660  1.0000
  C   C117      1.0  0.04023  0.67439  0.92302  1.0000
  H   H186      1.0  0.08657  0.69995  0.79411  1.0000
  Fe  Fe28      1.0  0.08735  0.57050  0.65709  1.0000
  H   H187      1.0  0.09578  0.68080  0.02742  1.0000
  Fe  Fe29      1.0  0.04781  0.56918  0.66007  1.0000
  C   C118      1.0  0.04622  0.52793  0.57615  1.0000
  H   H188      1.0  0.06464  0.41010  0.98774  1.0000
  C   C119      1.0  0.05058  0.40745  0.98607  1.0000
  H   H189      1.0  0.10382  0.37367  0.00395  1.0000
  S   S53       1.0  0.07252  0.54728  0.66464  1.0000
  N   N12       1.0  0.05174  0.53366  0.53734  1.0000
  H   H190      1.0  0.10009  0.44044  0.00653  1.0000
  H   H191      1.0  0.04083  0.53268  0.66839  1.0000
  H   H192      1.0  0.08345  0.68413  0.75813  1.0000
  H   H193      1.0  0.10025  0.68325  0.69618  1.0000
  H   H194      1.0  0.06987  0.67389  0.98960  1.0000
  H   H195      1.0  0.07732  0.51495  0.53703  1.0000
  C   C120      1.0  0.11846  0.68800  0.75983  1.0000
  H   H196      1.0  0.05150  0.66623  0.01400  1.0000
  H   H197      1.0  0.03867  0.65270  0.88398  1.0000
  C   C121      1.0  0.08599  0.69813  0.76245  1.0000
  H   H198      1.0  0.05019  0.56143  0.55428  1.0000
  C   C122      1.0  0.10283  0.38826  0.00460  1.0000
  H   H199      1.0  0.03858  0.53077  0.82066  1.0000
  H   H200      1.0  0.03346  0.43883  0.01684  1.0000
  S   S54       1.0  0.06368  0.70327  0.86266  1.0000
  C   C123      1.0  0.03138  0.66205  0.90490  1.0000
  N   N13       1.0  0.04105  0.40982  0.02400  1.0000
  H   H201      1.0  0.03118  0.53065  0.57964  1.0000
  C   C124      1.0  0.03052  0.68716  0.94834  1.0000
  H   H202      1.0  0.02988  0.55684  0.53357  1.0000
  Fe  Fe30      1.0  0.06199  0.73182  0.22102  1.0000
  S   S55       1.0  0.06611  0.72610  0.15768  1.0000
  S   S56       1.0  0.05111  0.76093  0.23754  1.0000
  C   C125      1.0  0.06088  0.79081  0.26883  1.0000
  C   C126      1.0  0.11874  0.71277  0.09453  1.0000
  H   H203      1.0  0.11868  0.86187  0.48032  1.0000
  C   C127      1.0  0.10413  0.71743  0.03185  1.0000
  H   H204      1.0  0.13107  0.87160  0.51565  1.0000
  H   H205      1.0  0.13884  0.97231  0.40193  1.0000
  C   C128      1.0  0.17778  0.98495  0.49702  1.0000
  C   C129      1.0  0.06452  0.77178  0.26691  1.0000
  H   H206      1.0  0.09986  0.76293  0.32900  1.0000
  C   C130      1.0  0.08905  0.77074  0.31200  1.0000
  C   C131      1.0  0.07855  0.76175  0.28873  1.0000
  H   H207      1.0  0.08113  0.74707  0.28826  1.0000
  H   H208      1.0  0.10929  0.83267  0.49388  1.0000
  H   H209      1.0  0.12258  0.73177  0.20938  1.0000
  N   N14       1.0  0.11429  0.75986  0.19237  1.0000
  H   H210      1.0  0.12482  0.78039  0.22247  1.0000
  H   H211      1.0  0.14165  0.85135  0.49085  1.0000
  H   H212      1.0  0.11109  0.74613  0.24660  1.0000
  H   H213      1.0  0.10167  0.77930  0.23422  1.0000
  H   H214      1.0  0.17541  0.94763  0.42129  1.0000
  H   H215      1.0  0.10716  0.78906  0.18880  1.0000
  H   H216      1.0  0.08647  0.75718  0.20121  1.0000
  C   C132      1.0  0.12082  0.74562  0.22173  1.0000
  C   C133      1.0  0.09671  0.75712  0.17750  1.0000
  H   H217      1.0  0.09813  0.74389  0.16273  1.0000
  H   H218      1.0  0.13413  0.74718  0.23341  1.0000
  C   C134      1.0  0.08549  0.78978  0.31377  1.0000
  C   C135      1.0  0.11192  0.77795  0.21017  1.0000
  H   H219      1.0  0.09101  0.76795  0.15624  1.0000
  H   H220      1.0  0.14110  0.76074  0.17006  1.0000
  H   H221      1.0  0.12976  0.74508  0.14631  1.0000
  C   C136      1.0  0.12766  0.75868  0.16005  1.0000
  H   H222      1.0  0.06857  0.81450  0.29324  1.0000
  S   S57       1.0  0.17327  0.98260  0.36531  1.0000
  H   H223      1.0  0.13183  0.82184  0.50664  1.0000
  C   C137      1.0  0.06092  0.85551  0.48941  1.0000
  Fe  Fe31      1.0  0.18546  0.00072  0.32434  1.0000
  C   C138      1.0  0.11899  0.83007  0.51816  1.0000
  Fe  Fe32      1.0  0.17095  0.96533  0.31411  1.0000
  S   S58       1.0  0.14391  0.95611  0.30820  1.0000
  Fe  Fe33      1.0  0.09064  0.83105  0.34725  1.0000
  S   S59       1.0  0.09762  0.84990  0.30048  1.0000
  Fe  Fe34      1.0  0.07274  0.86202  0.39798  1.0000
  S   S60       1.0  0.07826  0.88349  0.35584  1.0000
  S   S61       1.0  0.05688  0.87152  0.45160  1.0000
  Fe  Fe35      1.0  0.06946  0.86547  0.31197  1.0000
  H   H224      1.0  0.10432  0.92452  0.20683  1.0000
  Fe  Fe36      1.0  0.10585  0.86614  0.34867  1.0000
  S   S62       1.0  0.13289  0.87549  0.34649  1.0000
  S   S63       1.0  0.06171  0.84533  0.35479  1.0000
  S   S64       1.0  0.10113  0.84594  0.39504  1.0000
  C   C139      1.0  0.14110  0.93356  0.31816  1.0000
  C   C140      1.0  0.15595  0.91957  0.32484  1.0000
  C   C141      1.0  0.15318  0.90187  0.33375  1.0000
  C   C142      1.0  0.13557  0.89804  0.33634  1.0000
  C   C143      1.0  0.12069  0.91208  0.33028  1.0000
  C   C144      1.0  0.12346  0.92973  0.32071  1.0000
  H   H225      1.0  0.16958  0.92232  0.32277  1.0000
  H   H226      1.0  0.16476  0.89105  0.33839  1.0000
  H   H227      1.0  0.10708  0.90931  0.33284  1.0000
  H   H228      1.0  0.11191  0.94056  0.31593  1.0000
  H   H229      1.0  0.15544  0.92765  0.48041  1.0000
  C   C145      1.0  0.08481  0.90773  0.25663  1.0000
  S   S65       1.0  0.18077  0.98497  0.27235  1.0000
  H   H230      1.0  0.07438  0.83367  0.45354  1.0000
  H   H231      1.0  0.04999  0.79864  0.25211  1.0000
  H   H232      1.0  0.12004  0.94300  0.44136  1.0000
  C   C146      1.0  0.15131  0.94265  0.47672  1.0000
  H   H233      1.0  0.16140  0.94589  0.38098  1.0000
  N   N15       1.0  0.14735  0.94790  0.43593  1.0000
  S   S66       1.0  0.17668  0.03121  0.31975  1.0000
  H   H234      1.0  0.12848  0.94394  0.39270  1.0000
  C   C147      1.0  0.07029  0.83784  0.48264  1.0000
  H   H235      1.0  0.12306  0.76903  0.13703  1.0000
  H   H236      1.0  0.08544  0.91861  0.18224  1.0000
  H   H237      1.0  0.16801  0.92667  0.41276  1.0000
  H   H238      1.0  0.09012  0.71438  0.08628  1.0000
  S   S67       1.0  0.05117  0.87854  0.26486  1.0000
  N   N16       1.0  0.09717  0.89919  0.22561  1.0000
  C   C148      1.0  0.08970  0.88419  0.20899  1.0000
  H   H239      1.0  0.09842  0.87758  0.18498  1.0000
  C   C149      1.0  0.11525  0.89194  0.24176  1.0000
  S   S68       1.0  0.09908  0.80064  0.34264  1.0000
  H   H240      1.0  0.10818  0.90700  0.17131  1.0000
  H   H241      1.0  0.13632  0.92426  0.42247  1.0000
  C   C150      1.0  0.05514  0.86065  0.52691  1.0000
  C   C151      1.0  0.14194  0.96789  0.43246  1.0000
  H   H242      1.0  0.03308  0.77588  0.31413  1.0000
  H   H243      1.0  0.16871  0.99804  0.49616  1.0000
  H   H244      1.0  0.08319  0.89770  0.27995  1.0000
  H   H245      1.0  0.12168  0.90301  0.25283  1.0000
  H   H246      1.0  0.11439  0.88226  0.26637  1.0000
  H   H247      1.0  0.07094  0.91311  0.24565  1.0000
  H   H248      1.0  0.15293  0.97481  0.44198  1.0000
  C   C152      1.0  0.13239  0.93936  0.42266  1.0000
  H   H249      1.0  0.07579  0.88907  0.19767  1.0000
  H   H250      1.0  0.12469  0.88459  0.21967  1.0000
  S   S69       1.0  0.04675  0.70917  0.23248  1.0000
  C   C153      1.0  0.16375  0.94173  0.41175  1.0000
  H   H251      1.0  0.12966  0.97306  0.45047  1.0000
  C   C154      1.0  0.07137  0.79981  0.29214  1.0000
  H   H252      1.0  0.08846  0.87349  0.23119  1.0000
  H   H253      1.0  0.08994  0.91913  0.26996  1.0000
  H   H254      1.0  0.08244  0.81212  0.50873  1.0000
  H   H255      1.0  0.13934  0.94728  0.49601  1.0000
  C   C155      1.0  0.09885  0.91293  0.19510  1.0000
  S   S70       1.0  0.08877  0.71522  0.23834  1.0000
  H   H256      1.0  0.03186  0.84417  0.43521  1.0000
  C   C156      1.0  0.10303  0.71482  0.07232  1.0000
  C   C157      1.0  0.07473  0.82563  0.51380  1.0000
  H   H257      1.0  0.16257  0.94888  0.48740  1.0000
  C   C158      1.0  0.13534  0.71384  0.07640  1.0000
  H   H258      1.0  0.18783  0.98748  0.43881  1.0000
  C   C159      1.0  0.18844  0.97890  0.46443  1.0000
  C   C160      1.0  0.12867  0.85852  0.50403  1.0000
  H   H259      1.0  0.03279  0.85011  0.29622  1.0000
  H   H260      1.0  0.14752  0.71230  0.09331  1.0000
  S   S71       1.0  0.11841  0.70882  0.14493  1.0000
  C   C161      1.0  0.13638  0.71677  0.03638  1.0000
  Fe  Fe37      1.0  0.09187  0.70793  0.17558  1.0000
  H   H261      1.0  0.09420  0.86076  0.52844  1.0000
  Fe  Fe38      1.0  0.07684  0.72770  0.85767  1.0000
  S   S72       1.0  0.07394  0.73377  0.92107  1.0000
  S   S73       1.0  0.06777  0.74532  0.80558  1.0000
  H   H262      1.0  0.09916  0.84904  0.57381  1.0000
  H   H263      1.0  0.17760  0.02353  0.66420  1.0000
  Fe  Fe39      1.0  0.18560  0.98803  0.70607  1.0000
  C   C162      1.0  0.04777  0.80583  0.83303  1.0000
  S   S74       1.0  0.18307  0.01244  0.74453  1.0000
  N   N17       1.0  0.08293  0.92070  0.71352  1.0000
  C   C163      1.0  0.09169  0.76757  0.82305  1.0000
  C   C164      1.0  0.08003  0.76278  0.79576  1.0000
  C   C165      1.0  0.07750  0.77249  0.76061  1.0000
  C   C166      1.0  0.10023  0.78251  0.81575  1.0000
  H   H264      1.0  0.09381  0.76007  0.85019  1.0000
  C   C167      1.0  0.10045  0.91676  0.73369  1.0000
  H   H265      1.0  0.03249  0.82339  0.74598  1.0000
  C   C168      1.0  0.07792  0.94045  0.70542  1.0000
  H   H266      1.0  0.19179  0.94909  0.55801  1.0000
  C   C169      1.0  0.19096  0.95751  0.53213  1.0000
  Fe  Fe40      1.0  0.10121  0.71549  0.92600  1.0000
  H   H267      1.0  0.04907  0.84398  0.77863  1.0000
  H   H268      1.0  0.05019  0.81127  0.86172  1.0000
  H   H269      1.0  0.14933  0.71756  0.02267  1.0000
  H   H270      1.0  0.06476  0.94389  0.69015  1.0000
  C   C170      1.0  0.18069  0.03485  0.67992  1.0000
  C   C171      1.0  0.12089  0.71838  0.01386  1.0000
  C   C172      1.0  0.08619  0.78730  0.75317  1.0000
  H   H271      1.0  0.07168  0.91327  0.66075  1.0000
  S   S75       1.0  0.12312  0.72181  0.96358  1.0000
  H   H272      1.0  0.13805  0.85592  0.57893  1.0000
  H   H273      1.0  0.06865  0.76871  0.73920  1.0000
  H   H274      1.0  0.06095  0.79782  0.82267  1.0000
  H   H275      1.0  0.10890  0.78647  0.83732  1.0000
  C   C173      1.0  0.07011  0.83122  0.55164  1.0000
  S   S76       1.0  0.16304  0.97536  0.68392  1.0000
  C   C174      1.0  0.08467  0.91082  0.67672  1.0000
  Fe  Fe41      1.0  0.18103  0.94858  0.69829  1.0000
  S   S77       1.0  0.16993  0.92598  0.72964  1.0000
  H   H276      1.0  0.03825  0.79619  0.83731  1.0000
  C   C175      1.0  0.10551  0.71975  0.74857  1.0000
  Fe  Fe42      1.0  0.06609  0.86160  0.70188  1.0000
  S   S78       1.0  0.06882  0.83134  0.69999  1.0000
  H   H277      1.0  0.05674  0.83894  0.82719  1.0000
  Fe  Fe43      1.0  0.10450  0.86141  0.66994  1.0000
  S   S79       1.0  0.11060  0.83096  0.66607  1.0000
  S   S80       1.0  0.12158  0.87976  0.64010  1.0000
  Fe  Fe44      1.0  0.08258  0.83392  0.64253  1.0000
  S   S81       1.0  0.07919  0.81744  0.59066  1.0000
  Fe  Fe45      1.0  0.09643  0.83085  0.72394  1.0000
  S   S82       1.0  0.07733  0.86436  0.64220  1.0000
  S   S83       1.0  0.09280  0.86121  0.73024  1.0000
  H   H278      1.0  0.05536  0.91709  0.72347  1.0000
  N   N18       1.0  0.04065  0.82058  0.80524  1.0000
  C   C176      1.0  0.05975  0.84850  0.55803  1.0000
  H   H279      1.0  0.09206  0.71903  0.01462  1.0000
  H   H280      1.0  0.05539  0.85256  0.58699  1.0000
  S   S84       1.0  0.16564  0.98211  0.57124  1.0000
  H   H281      1.0  0.08421  0.79467  0.72593  1.0000
  H   H282      1.0  0.06681  0.92199  0.76604  1.0000
  C   C177      1.0  0.15654  0.91319  0.70445  1.0000
  C   C178      1.0  0.15223  0.91699  0.66564  1.0000
  C   C179      1.0  0.14158  0.90656  0.64629  1.0000
  C   C180      1.0  0.13506  0.89233  0.66560  1.0000
  C   C181      1.0  0.13929  0.88853  0.70443  1.0000
  C   C182      1.0  0.14999  0.89896  0.72378  1.0000
  H   H283      1.0  0.15720  0.92792  0.65052  1.0000
  H   H284      1.0  0.13840  0.90955  0.61622  1.0000
  H   H285      1.0  0.13452  0.87746  0.71946  1.0000
  H   H286      1.0  0.15336  0.89589  0.75376  1.0000
  S   S85       1.0  0.04159  0.88064  0.72505  1.0000
  H   H287      1.0  0.09971  0.92393  0.76166  1.0000
  H   H288      1.0  0.07215  0.89989  0.74500  1.0000
  S   S86       1.0  0.04024  0.70483  0.96495  1.0000
  Fe  Fe46      1.0  0.06390  0.70749  0.92642  1.0000
  C   C183      1.0  0.09724  0.79262  0.78109  1.0000
  H   H289      1.0  0.08854  0.89592  0.68186  1.0000
  C   C184      1.0  0.05399  0.83269  0.79961  1.0000
  Fe  Fe47      1.0  0.17889  0.97315  0.62785  1.0000
  H   H290      1.0  0.11151  0.92107  0.71587  1.0000
  H   H291      1.0  0.07654  0.94834  0.73257  1.0000
  S   S87       1.0  0.10657  0.81238  0.77434  1.0000
  C   C185      1.0  0.06870  0.91472  0.73812  1.0000
  H   H292      1.0  0.08841  0.94533  0.68685  1.0000
  H   H293      1.0  0.09536  0.91486  0.65739  1.0000
  H   H294      1.0  0.06721  0.82513  0.78827  1.0000
  H   H295      1.0  0.10647  0.87019  0.56453  1.0000
  H   H296      1.0  0.10470  0.90194  0.74000  1.0000
  H   H297      1.0  0.13070  0.83490  0.58942  1.0000
  C   C186      1.0  0.13549  0.84323  0.56571  1.0000
  H   H298      1.0  0.05011  0.80438  0.75575  1.0000
  H   H299      1.0  0.11324  0.82156  0.54026  1.0000
  C   C187      1.0  0.03746  0.81265  0.76785  1.0000
  C   C188      1.0  0.18342  0.03323  0.71978  1.0000
  H   H300      1.0  0.14871  0.83559  0.55464  1.0000
  H   H301      1.0  0.09403  0.72981  0.73648  1.0000
  H   H302      1.0  0.10611  0.72286  0.77978  1.0000
  S   S88       1.0  0.19540  0.94548  0.64037  1.0000
  C   C189      1.0  0.10470  0.85729  0.55102  1.0000
  S   S89       1.0  0.10517  0.71182  0.86188  1.0000
  N   N19       1.0  0.12198  0.84728  0.53471  1.0000
  H   H303      1.0  0.07408  0.70804  0.75172  1.0000
  H   H304      1.0  0.04755  0.87419  0.53209  1.0000
  H   H305      1.0  0.11827  0.72233  0.73449  1.0000
  C   C190      1.0  0.17909  0.97431  0.53095  1.0000
  H   H306      1.0  0.09049  0.70681  0.68779  1.0000
  C   C191      1.0  0.24218  0.13797  0.50499  1.0000
  C   C192      1.0  0.20272  0.08151  0.50765  1.0000
  C   C193      1.0  0.32572  0.07138  0.14883  1.0000
  Fe  Fe48      1.0  0.21383  0.11222  0.39077  1.0000
  H   H307      1.0  0.22348  0.10670  0.51101  1.0000
  Fe  Fe49      1.0  0.22879  0.13940  0.33908  1.0000
  H   H308      1.0  0.33961  0.11525  0.37027  1.0000
  H   H309      1.0  0.34824  0.06244  0.20872  1.0000
  H   H310      1.0  0.35639  0.15412  0.32292  1.0000
  C   C194      1.0  0.20624  0.06861  0.38630  1.0000
  H   H311      1.0  0.34497  0.17091  0.35578  1.0000
  Fe  Fe50      1.0  0.21611  0.14915  0.42138  1.0000
  C   C195      1.0  0.35866  0.10964  0.09401  1.0000
  H   H312      1.0  0.34795  0.15366  0.06307  1.0000
  C   C196      1.0  0.35644  0.12860  0.09503  1.0000
  S   S90       1.0  0.21830  0.08281  0.41065  1.0000
  C   C197      1.0  0.30868  0.05102  0.18152  1.0000
  C   C198      1.0  0.22926  0.15378  0.51136  1.0000
  S   S91       1.0  0.21802  0.16626  0.47279  1.0000
  N   N20       1.0  0.33908  0.14407  0.36525  1.0000
  S   S92       1.0  0.35738  0.13507  0.24843  1.0000
  H   H313      1.0  0.29998  0.08613  0.20096  1.0000
  H   H314      1.0  0.24006  0.04614  0.20525  1.0000
  H   H315      1.0  0.33578  0.08044  0.15140  1.0000
  H   H316      1.0  0.31341  0.07946  0.13519  1.0000
  Fe  Fe51      1.0  0.35112  0.10736  0.26009  1.0000
  H   H317      1.0  0.31557  0.16160  0.34163  1.0000
  S   S93       1.0  0.32760  0.10000  0.29455  1.0000
  S   S94       1.0  0.20696  0.12309  0.33078  1.0000
  C   C199      1.0  0.35461  0.10117  0.06029  1.0000
  C   C200      1.0  0.33821  0.05354  0.20429  1.0000
  H   H318      1.0  0.35637  0.08652  0.05952  1.0000
  C   C201      1.0  0.26955  0.13267  0.29053  1.0000
  C   C202      1.0  0.27420  0.11803  0.31641  1.0000
  C   C203      1.0  0.29202  0.10808  0.31696  1.0000
  C   C204      1.0  0.30537  0.11268  0.29172  1.0000
  C   C205      1.0  0.30079  0.12725  0.26555  1.0000
  C   C206      1.0  0.28287  0.13720  0.26493  1.0000
  H   H319      1.0  0.29547  0.09678  0.33718  1.0000
  H   H320      1.0  0.31099  0.13086  0.24585  1.0000
  H   H321      1.0  0.27934  0.14848  0.24470  1.0000
  S   S95       1.0  0.23719  0.12683  0.39694  1.0000
  H   H322      1.0  0.19779  0.15367  0.23748  1.0000
  H   H323      1.0  0.31008  0.07322  0.24201  1.0000
  H   H324      1.0  0.21152  0.19787  0.25546  1.0000
  H   H325      1.0  0.36095  0.12205  0.37971  1.0000
  C   C207      1.0  0.34858  0.12500  0.36171  1.0000
  H   H326      1.0  0.24582  0.13362  0.47587  1.0000
  H   H327      1.0  0.33547  0.04738  0.23286  1.0000
  H   H328      1.0  0.26403  0.11425  0.33587  1.0000
  S   S96       1.0  0.20980  0.16321  0.36439  1.0000
  H   H329      1.0  0.33168  0.06053  0.12833  1.0000
  C   C208      1.0  0.32307  0.14732  0.34006  1.0000
  H   H330      1.0  0.21658  0.07685  0.49513  1.0000
  C   C209      1.0  0.35158  0.15637  0.35340  1.0000
  H   H331      1.0  0.34488  0.14515  0.42562  1.0000
  H   H332      1.0  0.32371  0.13837  0.41567  1.0000
  S   S97       1.0  0.24720  0.14537  0.28973  1.0000
  H   H333      1.0  0.32206  0.08842  0.21634  1.0000
  H   H334      1.0  0.31465  0.03971  0.16201  1.0000
  H   H335      1.0  0.21886  0.17528  0.23706  1.0000
  H   H336      1.0  0.22065  0.04413  0.41365  1.0000
  C   C210      1.0  0.34997  0.13898  0.06222  1.0000
  N   N21       1.0  0.32138  0.06362  0.18681  1.0000
  H   H337      1.0  0.19744  0.06926  0.51777  1.0000
  C   C211      1.0  0.31296  0.07847  0.21261  1.0000
  H   H338      1.0  0.32705  0.14459  0.30925  1.0000
  H   H339      1.0  0.21520  0.17850  0.28769  1.0000
  H   H340      1.0  0.29575  0.05808  0.16858  1.0000
  H   H341      1.0  0.31337  0.13824  0.34826  1.0000
  C   C212      1.0  0.33312  0.14750  0.40585  1.0000
  S   S98       1.0  0.36035  0.09664  0.20169  1.0000
  H   H342      1.0  0.35302  0.12200  0.33137  1.0000
  H   H343      1.0  0.20721  0.05610  0.21870  1.0000
  C   C213      1.0  0.20770  0.04373  0.23730  1.0000
  C   C214      1.0  0.21027  0.04976  0.39322  1.0000
  C   C215      1.0  0.22949  0.05262  0.27984  1.0000
  H   H344      1.0  0.22952  0.06543  0.26298  1.0000
  H   H345      1.0  0.32583  0.16177  0.40956  1.0000
  H   H346      1.0  0.20069  0.11786  0.50149  1.0000
  H   H347      1.0  0.21909  0.05575  0.30339  1.0000
  H   H348      1.0  0.30531  0.04467  0.20951  1.0000
  C   C216      1.0  0.20103  0.03813  0.37357  1.0000
  C   C217      1.0  0.20987  0.18346  0.25885  1.0000
  C   C218      1.0  0.20966  0.11055  0.52423  1.0000
  H   H349      1.0  0.24290  0.04869  0.29393  1.0000
  H   H350      1.0  0.34487  0.04235  0.18540  1.0000
  S   S99       1.0  0.36266  0.13969  0.13572  1.0000
  N   N22       1.0  0.22567  0.03799  0.25507  1.0000
  H   H351      1.0  0.19674  0.04692  0.25976  1.0000
  C   C219      1.0  0.34831  0.07567  0.78948  1.0000
  H   H352      1.0  0.22914  0.08104  0.55923  1.0000
  H   H353      1.0  0.21048  0.12038  0.54752  1.0000
  C   C220      1.0  0.34517  0.05408  0.87830  1.0000
  H   H354      1.0  0.31087  0.07541  0.70536  1.0000
  H   H355      1.0  0.34372  0.08952  0.79840  1.0000
  Fe  Fe52      1.0  0.21919  0.12560  0.74052  1.0000
  H   H356      1.0  0.21492  0.17178  0.55418  1.0000
  H   H357      1.0  0.33176  0.06331  0.88135  1.0000
  H   H358      1.0  0.20410  0.18389  0.76875  1.0000
  H   H359      1.0  0.29762  0.12283  0.66678  1.0000
  C   C221      1.0  0.19798  0.17155  0.77308  1.0000
  S   S100      1.0  0.35960  0.12976  0.82330  1.0000
  C   C222      1.0  0.22481  0.15952  0.54910  1.0000
  H   H360      1.0  0.36107  0.06360  0.94166  1.0000
  S   S101      1.0  0.34491  0.10026  0.98477  1.0000
  C   C223      1.0  0.27432  0.10976  0.71438  1.0000
  C   C224      1.0  0.25049  0.12777  0.53648  1.0000
  N   N23       1.0  0.34981  0.04293  0.91368  1.0000
  S   S102      1.0  0.22732  0.10243  0.69969  1.0000
  H   H361      1.0  0.20923  0.15952  0.77198  1.0000
  H   H362      1.0  0.22901  0.15351  0.60962  1.0000
  C   C225      1.0  0.23278  0.14915  0.58049  1.0000
  Fe  Fe53      1.0  0.34854  0.11374  0.92695  1.0000
  Fe  Fe54      1.0  0.33213  0.13141  0.85215  1.0000
  S   S103      1.0  0.33776  0.10258  0.87433  1.0000
  S   S104      1.0  0.30878  0.14408  0.81377  1.0000
  C   C226      1.0  0.35068  0.05493  0.94671  1.0000
  S   S105      1.0  0.34059  0.14290  0.90720  1.0000
  C   C227      1.0  0.28704  0.13829  0.81232  1.0000
  C   C228      1.0  0.27479  0.14726  0.78498  1.0000
  C   C229      1.0  0.25755  0.14283  0.78146  1.0000
  C   C230      1.0  0.25229  0.12938  0.80533  1.0000
  C   C231      1.0  0.26442  0.12052  0.83314  1.0000
  C   C232      1.0  0.28183  0.12485  0.83645  1.0000
  H   H363      1.0  0.27868  0.15775  0.76639  1.0000
  H   H364      1.0  0.24827  0.15008  0.76061  1.0000
  H   H365      1.0  0.21139  0.15982  0.84226  1.0000
  H   H366      1.0  0.29117  0.11787  0.85769  1.0000
  H   H367      1.0  0.29209  0.07701  0.73886  1.0000
  C   C233      1.0  0.21498  0.08548  0.57020  1.0000
  H   H368      1.0  0.33749  0.06432  0.95185  1.0000
  S   S106      1.0  0.23060  0.12364  0.80085  1.0000
  C   C234      1.0  0.24552  0.13322  0.57424  1.0000
  C   C235      1.0  0.34165  0.04776  0.76413  1.0000
  H   H369      1.0  0.26579  0.10517  0.69213  1.0000
  H   H370      1.0  0.26936  0.10578  0.74330  1.0000
  H   H371      1.0  0.31408  0.10203  0.66328  1.0000
  H   H372      1.0  0.26041  0.11018  0.85195  1.0000
  C   C236      1.0  0.30460  0.10843  0.73798  1.0000
  Fe  Fe55      1.0  0.23079  0.12430  0.65697  1.0000
  C   C237      1.0  0.33581  0.06576  0.77549  1.0000
  H   H373      1.0  0.28832  0.07654  0.68786  1.0000
  H   H374      1.0  0.30040  0.10452  0.76757  1.0000
  H   H375      1.0  0.32156  0.07176  0.77511  1.0000
  H   H376      1.0  0.27179  0.12489  0.71259  1.0000
  H   H377      1.0  0.34455  0.04541  0.85276  1.0000
  H   H378      1.0  0.31933  0.10271  0.73429  1.0000
  C   C238      1.0  0.29636  0.08187  0.71008  1.0000
  S   S107      1.0  0.22492  0.14713  0.69852  1.0000
  C   C239      1.0  0.29952  0.10774  0.66934  1.0000
  H   H379      1.0  0.34143  0.13855  0.00295  1.0000
  S   S108      1.0  0.25366  0.11935  0.61379  1.0000
  H   H380      1.0  0.30300  0.12353  0.73713  1.0000
  H   H381      1.0  0.29138  0.10325  0.64608  1.0000
  N   N24       1.0  0.29372  0.10194  0.70799  1.0000
  C   C240      1.0  0.36010  0.03996  0.76533  1.0000
  S   S109      1.0  0.20232  0.12881  0.63626  1.0000
  H   H382      1.0  0.35552  0.06261  0.87152  1.0000
  H   H383      1.0  0.20702  0.18423  0.84021  1.0000
  H   H384      1.0  0.21549  0.09485  0.59450  1.0000
  C   C241      1.0  0.20037  0.17214  0.84234  1.0000
  H   H385      1.0  0.21012  0.07340  0.58277  1.0000
  N   N25       1.0  0.20291  0.09439  0.53935  1.0000
  Fe  Fe56      1.0  0.19827  0.10821  0.68186  1.0000
  C   C242      1.0  0.34631  0.13046  0.02819  1.0000
  H   H386      1.0  0.35415  0.04694  0.97395  1.0000
  H   H387      1.0  0.32220  0.04049  0.92690  1.0000
  C   C243      1.0  0.34877  0.11151  0.02711  1.0000
  H   H388      1.0  0.26029  0.11542  0.53159  1.0000
  H   H389      1.0  0.23038  0.97628  0.48146  1.0000
  H   H390      1.0  0.22261  0.01008  0.26119  1.0000
  S   S110      1.0  0.21416  0.98616  0.33252  1.0000
  S   S111      1.0  0.21339  0.95413  0.42485  1.0000
  C   C244      1.0  0.22561  0.02139  0.27884  1.0000
  H   H391      1.0  0.25361  0.03004  0.23703  1.0000
  Fe  Fe57      1.0  0.35508  0.97506  0.18197  1.0000
  H   H392      1.0  0.26308  0.93209  0.12166  1.0000
  S   S112      1.0  0.22792  0.96341  0.23111  1.0000
  H   H393      1.0  0.20426  0.02360  0.37888  1.0000
  H   H394      1.0  0.25433  0.96781  0.47949  1.0000
  C   C245      1.0  0.23985  0.03408  0.22447  1.0000
  C   C246      1.0  0.28800  0.93838  0.17166  1.0000
  C   C247      1.0  0.27741  0.92557  0.11504  1.0000
  H   H395      1.0  0.34863  0.98461  0.04256  1.0000
  S   S113      1.0  0.19866  0.94798  0.32024  1.0000
  Fe  Fe58      1.0  0.31619  0.99602  0.17575  1.0000
  S   S114      1.0  0.31925  0.00201  0.11250  1.0000
  S   S115      1.0  0.29171  0.00771  0.21254  1.0000
  H   H396      1.0  0.29597  0.96345  0.12061  1.0000
  C   C248      1.0  0.24191  0.96834  0.49791  1.0000
  Fe  Fe59      1.0  0.34674  0.00719  0.12691  1.0000
  Fe  Fe60      1.0  0.33370  0.97303  0.10902  1.0000
  S   S116      1.0  0.32669  0.95742  0.05824  1.0000
  S   S117      1.0  0.34234  0.00422  0.19064  1.0000
  S   S118      1.0  0.32845  0.96638  0.17172  1.0000
  C   C249      1.0  0.28659  0.95473  0.11042  1.0000
  H   H397      1.0  0.29671  0.94747  0.18319  1.0000
  H   H398      1.0  0.31913  0.93539  0.12980  1.0000
  H   H399      1.0  0.31128  0.92593  0.08799  1.0000
  C   C250      1.0  0.30906  0.92741  0.11981  1.0000
  H   H400      1.0  0.23943  0.95419  0.50128  1.0000
  H   H401      1.0  0.28857  0.95384  0.07845  1.0000
  H   H402      1.0  0.23888  0.01664  0.29298  1.0000
  C   C251      1.0  0.24610  0.97519  0.22668  1.0000
  N   N26       1.0  0.29027  0.93653  0.12927  1.0000
  H   H403      1.0  0.31241  0.91363  0.13344  1.0000
  Fe  Fe61      1.0  0.20884  0.96917  0.28296  1.0000
  H   H404      1.0  0.27877  0.92392  0.08313  1.0000
  H   H405      1.0  0.29159  0.92500  0.18696  1.0000
  C   C252      1.0  0.27512  0.99404  0.21786  1.0000
  C   C253      1.0  0.26796  0.99109  0.25469  1.0000
  C   C254      1.0  0.25364  0.98148  0.25915  1.0000
  H   H406      1.0  0.27372  0.94426  0.18001  1.0000
  C   C255      1.0  0.25325  0.97819  0.18983  1.0000
  C   C256      1.0  0.26782  0.98748  0.18542  1.0000
  H   H407      1.0  0.27357  0.99616  0.27988  1.0000
  H   H408      1.0  0.23769  0.02265  0.20612  1.0000
  H   H409      1.0  0.24849  0.97888  0.28771  1.0000
  H   H410      1.0  0.27297  0.99019  0.15688  1.0000
  H   H411      1.0  0.27247  0.96193  0.11635  1.0000
  H   H412      1.0  0.27977  0.91174  0.12868  1.0000
  Fe  Fe62      1.0  0.20161  0.96651  0.36897  1.0000
  H   H413      1.0  0.24729  0.97353  0.16464  1.0000
  H   H414      1.0  0.21042  0.93820  0.50017  1.0000
  H   H415      1.0  0.21507  0.02381  0.30210  1.0000
  S   S119      1.0  0.36161  0.97867  0.11907  1.0000
  H   H416      1.0  0.23443  0.00383  0.51466  1.0000
  C   C257      1.0  0.20011  0.96199  0.46543  1.0000
  H   H417      1.0  0.20418  0.03279  0.21927  1.0000
  C   C258      1.0  0.20143  0.95133  0.49934  1.0000
  S   S120      1.0  0.35700  0.03081  0.10009  1.0000
  H   H418      1.0  0.25862  0.99616  0.51191  1.0000
  N   N27       1.0  0.24370  0.97654  0.53577  1.0000
  C   C259      1.0  0.22629  0.02093  0.79077  1.0000
  Fe  Fe63      1.0  0.21520  0.96070  0.66639  1.0000
  C   C260      1.0  0.34539  0.97936  0.01535  1.0000
  H   H419      1.0  0.25781  0.00065  0.81595  1.0000
  H   H420      1.0  0.32607  0.90207  0.79296  1.0000
  H   H421      1.0  0.34313  0.93282  0.69804  1.0000
  H   H422      1.0  0.24759  0.00210  0.55781  1.0000
  C   C261      1.0  0.33392  0.90037  0.71679  1.0000
  C   C262      1.0  0.22894  0.98834  0.79090  1.0000
  H   H423      1.0  0.32607  0.92589  0.79767  1.0000
  S   S121      1.0  0.35777  0.98760  0.90304  1.0000
  H   H424      1.0  0.33642  0.88674  0.73132  1.0000
  H   H425      1.0  0.24003  0.01582  0.71836  1.0000
  Fe  Fe64      1.0  0.33443  0.00598  0.77249  1.0000
  S   S122      1.0  0.33149  0.98179  0.73779  1.0000
  C   C263      1.0  0.33457  0.96610  0.01452  1.0000
  Fe  Fe65      1.0  0.34730  0.98358  0.84391  1.0000
  S   S123      1.0  0.34565  0.95737  0.81584  1.0000
  H   H426      1.0  0.33512  0.94352  0.74230  1.0000
  C   C264      1.0  0.33023  0.95971  0.97869  1.0000
  Fe  Fe66      1.0  0.31923  0.97213  0.79207  1.0000
  S   S124      1.0  0.29549  0.95753  0.79500  1.0000
  H   H427      1.0  0.26149  0.97203  0.58435  1.0000
  S   S125      1.0  0.31973  0.99755  0.82493  1.0000
  H   H428      1.0  0.25766  0.95175  0.56237  1.0000
  H   H429      1.0  0.24189  0.99151  0.71873  1.0000
  H   H430      1.0  0.21428  0.98961  0.78413  1.0000
  C   C265      1.0  0.35238  0.98573  0.98092  1.0000
  H   H431      1.0  0.22810  0.02135  0.82255  1.0000
  S   S126      1.0  0.20246  0.96148  0.72568  1.0000
  H   H432      1.0  0.31937  0.93584  0.71154  1.0000
  H   H433      1.0  0.21477  0.98404  0.54503  1.0000
  H   H434      1.0  0.22011  0.00597  0.72352  1.0000
  C   C266      1.0  0.28239  0.95647  0.75385  1.0000
  C   C267      1.0  0.26662  0.94906  0.75774  1.0000
  C   C268      1.0  0.25508  0.94921  0.72627  1.0000
  C   C269      1.0  0.25951  0.95637  0.69048  1.0000
  C   C270      1.0  0.27555  0.96334  0.68626  1.0000
  C   C271      1.0  0.28685  0.96362  0.71802  1.0000
  H   H435      1.0  0.26309  0.94351  0.78541  1.0000
  H   H436      1.0  0.24285  0.94360  0.72961  1.0000
  H   H437      1.0  0.27903  0.96892  0.65862  1.0000
  H   H438      1.0  0.29886  0.96952  0.71479  1.0000
  H   H439      1.0  0.32180  0.94950  0.97777  1.0000
  C   C272      1.0  0.34820  0.97932  0.94515  1.0000
  H   H440      1.0  0.26173  0.01340  0.77290  1.0000
  S   S127      1.0  0.24507  0.95706  0.65093  1.0000
  H   H441      1.0  0.33362  0.96142  0.91643  1.0000
  H   H442      1.0  0.23070  0.03305  0.77729  1.0000
  C   C273      1.0  0.25952  0.96595  0.55603  1.0000
  H   H443      1.0  0.23014  0.98743  0.82289  1.0000
  C   C274      1.0  0.33690  0.96644  0.94396  1.0000
  C   C275      1.0  0.33576  0.03184  0.92165  1.0000
  Fe  Fe67      1.0  0.35820  0.96871  0.76339  1.0000
  H   H444      1.0  0.22489  0.96228  0.56535  1.0000
  N   N28       1.0  0.33680  0.91470  0.74336  1.0000
  H   H445      1.0  0.21150  0.02237  0.78594  1.0000
  C   C276      1.0  0.33342  0.93246  0.72275  1.0000
  S   S128      1.0  0.19983  0.98812  0.64877  1.0000
  H   H446      1.0  0.33909  0.02282  0.94754  1.0000
  C   C277      1.0  0.25579  0.00173  0.78415  1.0000
  H   H447      1.0  0.27226  0.96528  0.53865  1.0000
  H   H448      1.0  0.23609  0.97521  0.77899  1.0000
  H   H449      1.0  0.30971  0.91873  0.76775  1.0000
  H   H450      1.0  0.31974  0.90298  0.70612  1.0000
  C   C278      1.0  0.32413  0.91529  0.77686  1.0000
  H   H451      1.0  0.35884  0.89746  0.77270  1.0000
  C   C279      1.0  0.23457  0.00432  0.73190  1.0000
  H   H452      1.0  0.33453  0.02287  0.89695  1.0000
  C   C280      1.0  0.35572  0.91075  0.75697  1.0000
  H   H453      1.0  0.26389  0.98923  0.77148  1.0000
  N   N29       1.0  0.23641  0.00382  0.77441  1.0000
  H   H454      1.0  0.34320  0.89970  0.69108  1.0000
  H   H455      1.0  0.22800  0.98262  0.58808  1.0000
  C   C281      1.0  0.22710  0.97639  0.55947  1.0000
  S   S129      1.0  0.32568  0.03483  0.75088  1.0000
  H   H456      1.0  0.35836  0.92141  0.77690  1.0000
  S   S130      1.0  0.36231  0.99375  0.79363  1.0000
  H   H457      1.0  0.36114  0.99563  0.98215  1.0000
  C   C282      1.0  0.24623  0.99551  0.52976  1.0000
  Fe  Fe68      1.0  0.38509  0.12347  0.27129  1.0000
  S   S131      1.0  0.39729  0.11450  0.21335  1.0000
  S   S132      1.0  0.39736  0.13539  0.32137  1.0000
  Fe  Fe69      1.0  0.38792  0.08843  0.22766  1.0000
  S   S133      1.0  0.40480  0.06057  0.22054  1.0000
  C   C283      1.0  0.42518  0.08155  0.30997  1.0000
  H   H458      1.0  0.51708  0.15536  0.47399  1.0000
  H   H459      1.0  0.37102  0.06362  0.10137  1.0000
  H   H460      1.0  0.48754  0.05042  0.46610  1.0000
  C   C284      1.0  0.45434  0.07411  0.34049  1.0000
  H   H461      1.0  0.38966  0.07553  0.14917  1.0000
  C   C285      1.0  0.38702  0.06186  0.15265  1.0000
  H   H462      1.0  0.42324  0.13227  0.38274  1.0000
  H   H463      1.0  0.46614  0.06518  0.26794  1.0000
  S   S134      1.0  0.48766  0.12076  0.51536  1.0000
  C   C286      1.0  0.39365  0.05113  0.18464  1.0000
  H   H464      1.0  0.39584  0.15122  0.05321  1.0000
  H   H465      1.0  0.45523  0.04157  0.30844  1.0000
  H   H466      1.0  0.43370  0.04725  0.28515  1.0000
  N   N30       1.0  0.44345  0.07004  0.30782  1.0000
  S   S135      1.0  0.51983  0.04768  0.41307  1.0000
  C   C287      1.0  0.45243  0.07387  0.27091  1.0000
  Fe  Fe70      1.0  0.36883  0.12352  0.19141  1.0000
  H   H467      1.0  0.49829  0.06665  0.48923  1.0000
  H   H468      1.0  0.51365  0.06614  0.33939  1.0000
  C   C288      1.0  0.42129  0.13213  0.32066  1.0000
  H   H469      1.0  0.42396  0.13137  0.25861  1.0000
  C   C289      1.0  0.45014  0.12687  0.28556  1.0000
  Fe  Fe71      1.0  0.49980  0.11233  0.37254  1.0000
  S   S136      1.0  0.49020  0.09451  0.41805  1.0000
  S   S137      1.0  0.48352  0.12044  0.31861  1.0000
  H   H470      1.0  0.47535  0.06508  0.50236  1.0000
  Fe  Fe72      1.0  0.50269  0.11056  0.46044  1.0000
  H   H471      1.0  0.41671  0.07890  0.28552  1.0000
  S   S138      1.0  0.50988  0.13021  0.41525  1.0000
  S   S139      1.0  0.37796  0.09654  0.28690  1.0000
  C   C290      1.0  0.45959  0.12526  0.32038  1.0000
  C   C291      1.0  0.44983  0.12716  0.35546  1.0000
  C   C292      1.0  0.43071  0.13075  0.35556  1.0000
  H   H472      1.0  0.45236  0.04138  0.16813  1.0000
  Fe  Fe73      1.0  0.51816  0.07786  0.41249  1.0000
  H   H473      1.0  0.50058  0.05794  0.27927  1.0000
  H   H474      1.0  0.44437  0.07129  0.24566  1.0000
  C   C293      1.0  0.37267  0.03770  0.13036  1.0000
  H   H475      1.0  0.45762  0.12554  0.25835  1.0000
  H   H476      1.0  0.42899  0.04130  0.15876  1.0000
  H   H477      1.0  0.45702  0.12603  0.38245  1.0000
  S   S140      1.0  0.52733  0.09455  0.36407  1.0000
  C   C294      1.0  0.44172  0.05071  0.30972  1.0000
  C   C295      1.0  0.50905  0.04249  0.37160  1.0000
  H   H478      1.0  0.43483  0.04741  0.33702  1.0000
  H   H479      1.0  0.44772  0.07193  0.36882  1.0000
  H   H480      1.0  0.45633  0.08848  0.33915  1.0000
  C   C296      1.0  0.43107  0.13015  0.28566  1.0000
  C   C297      1.0  0.50811  0.05395  0.33896  1.0000
  H   H481      1.0  0.46807  0.06537  0.34030  1.0000
  C   C298      1.0  0.48886  0.05696  0.49424  1.0000
  C   C299      1.0  0.50063  0.04931  0.30479  1.0000
  H   H482      1.0  0.45422  0.08829  0.26886  1.0000
  H   H483      1.0  0.42592  0.09618  0.30854  1.0000
  C   C300      1.0  0.37658  0.05512  0.12548  1.0000
  H   H484      1.0  0.41789  0.07911  0.33734  1.0000
  H   H485      1.0  0.52580  0.12457  0.50358  1.0000
  H   H486      1.0  0.38512  0.12370  0.03732  1.0000
  N   N31       1.0  0.49564  0.04328  0.52449  1.0000
  H   H487      1.0  0.52354  0.04211  0.50693  1.0000
  H   H488      1.0  0.41823  0.14052  0.03771  1.0000
  H   H489      1.0  0.36398  0.15405  0.37139  1.0000
  H   H490      1.0  0.52930  0.17279  0.48619  1.0000
  H   H491      1.0  0.36381  0.10148  0.11885  1.0000
  H   H492      1.0  0.45639  0.03905  0.77138  1.0000
  S   S141      1.0  0.37709  0.11041  0.90387  1.0000
  S   S142      1.0  0.38614  0.15963  0.88591  1.0000
  H   H493      1.0  0.43770  0.09444  0.79994  1.0000
  H   H494      1.0  0.38259  0.16474  0.97110  1.0000
  Fe  Fe74      1.0  0.36574  0.10187  0.84960  1.0000
  N   N32       1.0  0.39738  0.13993  0.99634  1.0000
  H   H495      1.0  0.40805  0.16241  0.01785  1.0000
  Fe  Fe75      1.0  0.36859  0.13858  0.87982  1.0000
  C   C301      1.0  0.41024  0.13706  0.96307  1.0000
  H   H496      1.0  0.41332  0.12909  0.85622  1.0000
  H   H497      1.0  0.50903  0.04849  0.77484  1.0000
  C   C302      1.0  0.50526  0.18361  0.88639  1.0000
  H   H498      1.0  0.41734  0.12649  0.72209  1.0000
  H   H499      1.0  0.42369  0.07797  0.79201  1.0000
  H   H500      1.0  0.41301  0.15021  0.95103  1.0000
  H   H501      1.0  0.44732  0.09265  0.73088  1.0000
  H   H502      1.0  0.51977  0.16800  0.55575  1.0000
  H   H503      1.0  0.38657  0.11554  0.98890  1.0000
  H   H504      1.0  0.40512  0.18730  0.86203  1.0000
  C   C303      1.0  0.41338  0.17447  0.85360  1.0000
  H   H505      1.0  0.41080  0.12767  0.77237  1.0000
  C   C304      1.0  0.42061  0.12013  0.75107  1.0000
  N   N33       1.0  0.41986  0.10054  0.75153  1.0000
  C   C305      1.0  0.40708  0.15828  0.86084  1.0000
  H   H506      1.0  0.38672  0.04341  0.78218  1.0000
  C   C306      1.0  0.44114  0.15790  0.82423  1.0000
  H   H507      1.0  0.39096  0.10533  0.76109  1.0000
  H   H508      1.0  0.39803  0.10355  0.71112  1.0000
  H   H509      1.0  0.42343  0.12847  0.97116  1.0000
  C   C307      1.0  0.40151  0.09816  0.74077  1.0000
  C   C308      1.0  0.47657  0.06114  0.68218  1.0000
  C   C309      1.0  0.50013  0.15292  0.88120  1.0000
  C   C310      1.0  0.43336  0.09106  0.72356  1.0000
  H   H510      1.0  0.50200  0.04257  0.58488  1.0000
  H   H511      1.0  0.43438  0.12241  0.75841  1.0000
  C   C311      1.0  0.43015  0.17431  0.83500  1.0000
  S   S143      1.0  0.52440  0.10310  0.67829  1.0000
  C   C312      1.0  0.41797  0.14169  0.85006  1.0000
  C   C313      1.0  0.39378  0.12217  0.01067  1.0000
  H   H512      1.0  0.43327  0.07620  0.72340  1.0000
  Fe  Fe76      1.0  0.48678  0.09214  0.79102  1.0000
  S   S144      1.0  0.48737  0.11226  0.83750  1.0000
  S   S145      1.0  0.47322  0.06807  0.79746  1.0000
  Fe  Fe77      1.0  0.50859  0.11039  0.73378  1.0000
  S   S146      1.0  0.51105  0.13280  0.77452  1.0000
  H   H513      1.0  0.40036  0.08353  0.74168  1.0000
  Fe  Fe78      1.0  0.48165  0.13279  0.78943  1.0000
  S   S147      1.0  0.46216  0.15880  0.80101  1.0000
  C   C314      1.0  0.46691  0.04718  0.67712  1.0000
  S   S148      1.0  0.47854  0.11289  0.74385  1.0000
  S   S149      1.0  0.38156  0.07852  0.81682  1.0000
  C   C315      1.0  0.36657  0.06743  0.79297  1.0000
  H   H514      1.0  0.43073  0.09643  0.69358  1.0000
  C   C316      1.0  0.42397  0.09279  0.79073  1.0000
  C   C317      1.0  0.43514  0.14149  0.83216  1.0000
  N   N34       1.0  0.51409  0.16446  0.88048  1.0000
  H   H515      1.0  0.48718  0.07727  0.72306  1.0000
  H   H516      1.0  0.50634  0.13835  0.87745  1.0000
  C   C318      1.0  0.49655  0.11895  0.63065  1.0000
  H   H517      1.0  0.47591  0.13229  0.59170  1.0000
  H   H518      1.0  0.48998  0.12556  0.65607  1.0000
  H   H519      1.0  0.43465  0.18701  0.82904  1.0000
  Fe  Fe79      1.0  0.51660  0.11078  0.81989  1.0000
  C   C319      1.0  0.47923  0.06689  0.71942  1.0000
  C   C320      1.0  0.51355  0.10209  0.56444  1.0000
  C   C321      1.0  0.48862  0.12274  0.59420  1.0000
  H   H520      1.0  0.48379  0.06043  0.57101  1.0000
  C   C322      1.0  0.49721  0.11450  0.56093  1.0000
  H   H521      1.0  0.40654  0.11262  0.01798  1.0000
  C   C323      1.0  0.52198  0.15319  0.54993  1.0000
  H   H522      1.0  0.52012  0.09540  0.53923  1.0000
  C   C324      1.0  0.47161  0.05926  0.75154  1.0000
  H   H523      1.0  0.44372  0.12873  0.82455  1.0000
  C   C325      1.0  0.38023  0.15160  0.98401  1.0000
  S   S150      1.0  0.51654  0.08833  0.77845  1.0000
  H   H524      1.0  0.48221  0.06734  0.65737  1.0000
  H   H525      1.0  0.51538  0.19275  0.88562  1.0000
  H   H526      1.0  0.41387  0.09940  0.81255  1.0000
  C   C326      1.0  0.51323  0.10704  0.63385  1.0000
  H   H527      1.0  0.52046  0.15935  0.94056  1.0000
  H   H528      1.0  0.37341  0.14492  0.96169  1.0000
  C   C327      1.0  0.49717  0.05254  0.56125  1.0000
  C   C328      1.0  0.52165  0.09855  0.60071  1.0000
  H   H529      1.0  0.49235  0.15395  0.90904  1.0000
  H   H530      1.0  0.40464  0.13027  0.93904  1.0000
  H   H531      1.0  0.37053  0.15489  0.00866  1.0000
  H   H532      1.0  0.49793  0.18531  0.91477  1.0000
  H   H533      1.0  0.37861  0.03884  0.90255  1.0000
  H   H534      1.0  0.51746  0.05755  0.70846  1.0000
  C   C329      1.0  0.37255  0.04974  0.77998  1.0000
  C   C330      1.0  0.46219  0.04508  0.74656  1.0000
  H   H535      1.0  0.49515  0.18844  0.86350  1.0000
  H   H536      1.0  0.50676  0.06218  0.55836  1.0000
  H   H537      1.0  0.49021  0.15682  0.85757  1.0000
  C   C331      1.0  0.52373  0.16289  0.84265  1.0000
  S   S151      1.0  0.46423  0.03966  0.63065  1.0000
  C   C332      1.0  0.52277  0.03986  0.77720  1.0000
  C   C333      1.0  0.40526  0.14892  0.02763  1.0000
  H   H538      1.0  0.51425  0.16738  0.81848  1.0000
  C   C334      1.0  0.52723  0.15841  0.91155  1.0000
  C   C335      1.0  0.46003  0.03888  0.70930  1.0000
  H   H539      1.0  0.50871  0.15000  0.54115  1.0000
  H   H540      1.0  0.52560  0.14565  0.57766  1.0000
  H   H541      1.0  0.46918  0.03774  0.53955  1.0000
  S   S152      1.0  0.37511  0.96330  0.22762  1.0000
  H   H542      1.0  0.46736  0.99136  0.15737  1.0000
  C   C336      1.0  0.40481  0.95796  0.17830  1.0000
  H   H543      1.0  0.45139  0.90659  0.35570  1.0000
  H   H544      1.0  0.40403  0.97279  0.27049  1.0000
  H   H545      1.0  0.52041  0.98917  0.44269  1.0000
  C   C337      1.0  0.42346  0.95637  0.17006  1.0000
  H   H546      1.0  0.44474  0.99765  0.21143  1.0000
  H   H547      1.0  0.39594  0.95423  0.15690  1.0000
  C   C338      1.0  0.40948  0.96820  0.24246  1.0000
  C   C339      1.0  0.39787  0.96350  0.21484  1.0000
  H   H548      1.0  0.46687  0.93678  0.31464  1.0000
  H   H549      1.0  0.46775  0.00803  0.11960  1.0000
  H   H550      1.0  0.43501  0.00794  0.10789  1.0000
  C   C340      1.0  0.37999  0.02663  0.16145  1.0000
  H   H551      1.0  0.37721  0.01303  0.16504  1.0000
  C   C341      1.0  0.39045  0.03338  0.18875  1.0000
  C   C342      1.0  0.42804  0.96702  0.23385  1.0000
  C   C343      1.0  0.44312  0.03446  0.15166  1.0000
  H   H552      1.0  0.42885  0.95152  0.14213  1.0000
  H   H553      1.0  0.43520  0.99132  0.14609  1.0000
  H   H554      1.0  0.43515  0.92116  0.38560  1.0000
  Fe  Fe80      1.0  0.51787  0.96168  0.25036  1.0000
  S   S153      1.0  0.51160  0.97961  0.30169  1.0000
  Fe  Fe81      1.0  0.47778  0.96441  0.23171  1.0000
  S   S154      1.0  0.46829  0.98243  0.28160  1.0000
  S   S155      1.0  0.45859  0.95767  0.18738  1.0000
  Fe  Fe82      1.0  0.49089  0.99639  0.26341  1.0000
  Fe  Fe83      1.0  0.48959  0.96388  0.31549  1.0000
  S   S156      1.0  0.48122  0.95475  0.37468  1.0000
  S   S157      1.0  0.49906  0.97994  0.21076  1.0000
  S   S158      1.0  0.49734  0.94432  0.26676  1.0000
  H   H555      1.0  0.48814  0.01001  0.33597  1.0000
  C   C344      1.0  0.45539  0.93175  0.30161  1.0000
  C   C345      1.0  0.48961  0.96389  0.41569  1.0000
  C   C346      1.0  0.50297  0.97461  0.41223  1.0000
  S   S159      1.0  0.51268  0.98506  0.52346  1.0000
  H   H556      1.0  0.50822  0.97762  0.38410  1.0000
  C   C347      1.0  0.50175  0.02666  0.37055  1.0000
  H   H557      1.0  0.48141  0.02326  0.50281  1.0000
  H   H558      1.0  0.46068  0.91763  0.29197  1.0000
  H   H559      1.0  0.42027  0.93408  0.28489  1.0000
  H   H560      1.0  0.41322  0.92623  0.33109  1.0000
  N   N35       1.0  0.44600  0.01482  0.16138  1.0000
  C   C348      1.0  0.49398  0.02213  0.33650  1.0000
  H   H561      1.0  0.48455  0.96367  0.51413  1.0000
  H   H562      1.0  0.42225  0.95238  0.36325  1.0000
  H   H563      1.0  0.43683  0.97086  0.25506  1.0000
  H   H564      1.0  0.42879  0.96051  0.31699  1.0000
  C   C349      1.0  0.48291  0.96011  0.45256  1.0000
  C   C350      1.0  0.50987  0.98114  0.44548  1.0000
  H   H565      1.0  0.42892  0.01888  0.21235  1.0000
  H   H566      1.0  0.42944  0.91144  0.30158  1.0000
  C   C351      1.0  0.43365  0.95141  0.34183  1.0000
  C   C352      1.0  0.44291  0.01233  0.20332  1.0000
  H   H567      1.0  0.47258  0.95183  0.45551  1.0000
  H   H568      1.0  0.47485  0.01218  0.16744  1.0000
  H   H569      1.0  0.45257  0.01836  0.22061  1.0000
  C   C353      1.0  0.48965  0.96683  0.48580  1.0000
  H   H570      1.0  0.50212  0.01790  0.39595  1.0000
  H   H571      1.0  0.45138  0.94018  0.27524  1.0000
  H   H572      1.0  0.44466  0.95702  0.35554  1.0000
  S   S160      1.0  0.48604  0.02661  0.25979  1.0000
  C   C354      1.0  0.50331  0.97718  0.48234  1.0000
  C   C355      1.0  0.46483  0.00626  0.15096  1.0000
  C   C356      1.0  0.42510  0.92573  0.31104  1.0000
  N   N36       1.0  0.44009  0.93247  0.32953  1.0000
  H   H573      1.0  0.45759  0.92586  0.37823  1.0000
  C   C357      1.0  0.49383  0.03325  0.30339  1.0000
  C   C358      1.0  0.43516  0.96061  0.19803  1.0000
  C   C359      1.0  0.44628  0.92098  0.36376  1.0000
  C   C360      1.0  0.43321  0.00620  0.13965  1.0000
  H   H574      1.0  0.41886  0.01210  0.14717  1.0000
  H   H575      1.0  0.39537  0.02511  0.21371  1.0000
  C   C361      1.0  0.51364  0.03297  0.51255  1.0000
  H   H576      1.0  0.51280  0.02539  0.48547  1.0000
  H   H577      1.0  0.44549  0.03688  0.12029  1.0000
  S   S161      1.0  0.37706  0.94740  0.72932  1.0000
  H   H578      1.0  0.39749  0.97765  0.71857  1.0000
  C   C362      1.0  0.40679  0.93442  0.68555  1.0000
  C   C363      1.0  0.42309  0.93496  0.66561  1.0000
  C   C364      1.0  0.48287  0.03058  0.52990  1.0000
  H   H579      1.0  0.45393  0.96035  0.72874  1.0000
  H   H580      1.0  0.40139  0.92200  0.68603  1.0000
  C   C365      1.0  0.39746  0.94970  0.70476  1.0000
  C   C366      1.0  0.40465  0.96574  0.70384  1.0000
  C   C367      1.0  0.42118  0.96629  0.68357  1.0000
  H   H581      1.0  0.48343  0.95098  0.69641  1.0000
  H   H582      1.0  0.42674  0.97862  0.68279  1.0000
  C   C368      1.0  0.43042  0.95079  0.66442  1.0000
  Fe  Fe84      1.0  0.50259  0.98011  0.66897  1.0000
  S   S162      1.0  0.50467  0.00206  0.62513  1.0000
  S   S163      1.0  0.51833  0.97275  0.72401  1.0000
  Fe  Fe85      1.0  0.46901  0.97095  0.63292  1.0000
  S   S164      1.0  0.46792  0.99191  0.58500  1.0000
  S   S165      1.0  0.45165  0.94952  0.64036  1.0000
  Fe  Fe86      1.0  0.49811  0.98296  0.58067  1.0000
  Fe  Fe87      1.0  0.47454  0.00975  0.63149  1.0000
  H   H583      1.0  0.49839  0.95133  0.77777  1.0000
  S   S166      1.0  0.49894  0.95999  0.62400  1.0000
  S   S167      1.0  0.47274  0.98985  0.67998  1.0000
  H   H584      1.0  0.48068  0.92787  0.69756  1.0000
  H   H585      1.0  0.49416  0.91919  0.77999  1.0000
  H   H586      1.0  0.47674  0.95812  0.80193  1.0000
  H   H587      1.0  0.47247  0.92596  0.80391  1.0000
  H   H588      1.0  0.45082  0.93725  0.73043  1.0000
  C   C369      1.0  0.45667  0.94751  0.74630  1.0000
  C   C370      1.0  0.47942  0.92419  0.77511  1.0000
  N   N37       1.0  0.47633  0.94136  0.75229  1.0000
  H   H589      1.0  0.45261  0.02800  0.70537  1.0000
  C   C371      1.0  0.48575  0.93835  0.71438  1.0000
  H   H590      1.0  0.37134  0.02171  0.93335  1.0000
  H   H591      1.0  0.47416  0.91332  0.75998  1.0000
  H   H592      1.0  0.43010  0.92293  0.65103  1.0000
  H   H593      1.0  0.50071  0.93411  0.71746  1.0000
  H   H594      1.0  0.44901  0.95006  0.77415  1.0000
  H   H595      1.0  0.52153  0.02841  0.79754  1.0000
  H   H596      1.0  0.48148  0.96854  0.75655  1.0000
  C   C372      1.0  0.48351  0.95543  0.77318  1.0000
  H   H597      1.0  0.50394  0.03011  0.71783  1.0000
  H   H598      1.0  0.36564  0.91050  0.73246  1.0000
  H   H599      1.0  0.36478  0.02636  0.75501  1.0000
  H   H600      1.0  0.48777  0.02002  0.55225  1.0000
  C   C373      1.0  0.51778  0.02202  0.72269  1.0000
  C   C374      1.0  0.36764  0.03089  0.90783  1.0000
  H   H601      1.0  0.51931  0.02270  0.53500  1.0000
  H   H602      1.0  0.51624  0.01046  0.74245  1.0000
  H   H603      1.0  0.52312  0.01610  0.69457  1.0000
  H   H604      1.0  0.36756  0.02202  0.88241  1.0000
  C   C375      1.0  0.69294  0.06095  0.19099  1.0000
  C   C376      1.0  0.53860  0.12823  0.51348  1.0000
  S   S168      1.0  0.56344  0.12025  0.41440  1.0000
  C   C377      1.0  0.67309  0.13192  0.11774  1.0000
  N   N38       1.0  0.53615  0.14797  0.51973  1.0000
  C   C378      1.0  0.61965  0.07352  0.21139  1.0000
  C   C379      1.0  0.69609  0.05007  0.22441  1.0000
  Fe  Fe88      1.0  0.67708  0.12256  0.21546  1.0000
  H   H605      1.0  0.65533  0.04606  0.04792  1.0000
  H   H606      1.0  0.60641  0.07979  0.22496  1.0000
  H   H607      1.0  0.65552  0.06150  0.21369  1.0000
  C   C380      1.0  0.57853  0.11732  0.37397  1.0000
  C   C381      1.0  0.59627  0.12057  0.37751  1.0000
  C   C382      1.0  0.60842  0.11867  0.34555  1.0000
  C   C383      1.0  0.60280  0.11367  0.30972  1.0000
  C   C384      1.0  0.58512  0.11031  0.30627  1.0000
  C   C385      1.0  0.57306  0.11206  0.33825  1.0000
  H   H608      1.0  0.60062  0.12467  0.40501  1.0000
  H   H609      1.0  0.58063  0.10657  0.27860  1.0000
  H   H610      1.0  0.55940  0.10973  0.33498  1.0000
  C   C386      1.0  0.64291  0.13703  0.09076  1.0000
  H   H611      1.0  0.62200  0.12133  0.34850  1.0000
  H   H612      1.0  0.64065  0.07539  0.27298  1.0000
  H   H613      1.0  0.54927  0.12367  0.49109  1.0000
  H   H614      1.0  0.62770  0.08455  0.20802  1.0000
  H   H615      1.0  0.68707  0.07813  0.05810  1.0000
  C   C387      1.0  0.65271  0.07856  0.08058  1.0000
  H   H616      1.0  0.61698  0.06906  0.18196  1.0000
  S   S169      1.0  0.61726  0.11156  0.26835  1.0000
  C   C388      1.0  0.64703  0.05089  0.21701  1.0000
  Fe  Fe89      1.0  0.53660  0.11070  0.41077  1.0000
  H   H617      1.0  0.68367  0.06267  0.13254  1.0000
  H   H618      1.0  0.65866  0.08971  0.09294  1.0000
  S   S170      1.0  0.69238  0.13732  0.35243  1.0000
  Fe  Fe90      1.0  0.68020  0.12534  0.30245  1.0000
  H   H619      1.0  0.54043  0.15341  0.45919  1.0000
  Fe  Fe91      1.0  0.68386  0.08859  0.26628  1.0000
  N   N39       1.0  0.66087  0.07317  0.04230  1.0000
  H   H620      1.0  0.64551  0.04552  0.18773  1.0000
  S   S171      1.0  0.66654  0.10151  0.31528  1.0000
  H   H621      1.0  0.63903  0.05351  0.29336  1.0000
  H   H622      1.0  0.56438  0.14856  0.50969  1.0000
  H   H623      1.0  0.64841  0.13533  0.15198  1.0000
  H   H624      1.0  0.65489  0.06688  0.10152  1.0000
  S   S172      1.0  0.68767  0.13032  0.15719  1.0000
  S   S173      1.0  0.65923  0.13907  0.26015  1.0000
  H   H625      1.0  0.62832  0.13960  0.09497  1.0000
  N   N40       1.0  0.62925  0.05822  0.23526  1.0000
  H   H626      1.0  0.63781  0.08356  0.07865  1.0000
  H   H627      1.0  0.61901  0.07096  0.28855  1.0000
  C   C389      1.0  0.66923  0.13308  0.04802  1.0000
  C   C390      1.0  0.68055  0.13106  0.08018  1.0000
  C   C391      1.0  0.65038  0.13641  0.05319  1.0000
  S   S174      1.0  0.66320  0.09874  0.22141  1.0000
  Fe  Fe92      1.0  0.64693  0.11397  0.26973  1.0000
  C   C392      1.0  0.68073  0.06728  0.04573  1.0000
  C   C393      1.0  0.65425  0.13458  0.12303  1.0000
  C   C394      1.0  0.63210  0.06473  0.27429  1.0000
  C   C395      1.0  0.68697  0.05389  0.15748  1.0000
  H   H628      1.0  0.68413  0.05495  0.06472  1.0000
  H   H629      1.0  0.68849  0.16465  0.03453  1.0000
  H   H630      1.0  0.69456  0.07499  0.19129  1.0000
  H   H631      1.0  0.65486  0.03963  0.23472  1.0000
  H   H632      1.0  0.60477  0.04884  0.25194  1.0000
  C   C396      1.0  0.61829  0.04377  0.23829  1.0000
  H   H633      1.0  0.69513  0.12883  0.07608  1.0000
  H   H634      1.0  0.61592  0.03852  0.20932  1.0000
  S   S175      1.0  0.52991  0.09215  0.45883  1.0000
  C   C397      1.0  0.53051  0.15785  0.48321  1.0000
  H   H635      1.0  0.65942  0.05323  0.99931  1.0000
  C   C398      1.0  0.65306  0.05799  0.02757  1.0000
  C   C399      1.0  0.62149  0.05552  0.79114  1.0000
  C   C400      1.0  0.55776  0.11662  0.85574  1.0000
  C   C401      1.0  0.57040  0.11666  0.88499  1.0000
  C   C402      1.0  0.58711  0.12192  0.87665  1.0000
  C   C403      1.0  0.59117  0.12727  0.83902  1.0000
  C   C404      1.0  0.57834  0.12759  0.80996  1.0000
  C   C405      1.0  0.56174  0.12212  0.81818  1.0000
  H   H636      1.0  0.56736  0.11244  0.91413  1.0000
  H   H637      1.0  0.59683  0.12176  0.89929  1.0000
  H   H638      1.0  0.58140  0.13180  0.78081  1.0000
  H   H639      1.0  0.55209  0.12210  0.79542  1.0000
  H   H640      1.0  0.58740  0.06956  0.81312  1.0000
  H   H641      1.0  0.66287  0.08532  0.98596  1.0000
  H   H642      1.0  0.59249  0.08854  0.83849  1.0000
  H   H643      1.0  0.61141  0.05052  0.77312  1.0000
  H   H644      1.0  0.54000  0.05763  0.72412  1.0000
  H   H645      1.0  0.64117  0.08109  0.80879  1.0000
  H   H646      1.0  0.66902  0.15920  0.98062  1.0000
  H   H647      1.0  0.53457  0.17120  0.84114  1.0000
  N   N41       1.0  0.69413  0.16911  0.97419  1.0000
  C   C406      1.0  0.59823  0.07459  0.82872  1.0000
  H   H648      1.0  0.66642  0.18266  0.96644  1.0000
  H   H649      1.0  0.61328  0.05905  0.93857  1.0000
  H   H650      1.0  0.68730  0.06378  0.01697  1.0000
  H   H651      1.0  0.60573  0.10085  0.77900  1.0000
  C   C407      1.0  0.61014  0.08647  0.77014  1.0000
  S   S176      1.0  0.61247  0.13262  0.82672  1.0000
  S   S177      1.0  0.53698  0.10995  0.86720  1.0000
  H   H652      1.0  0.67245  0.03816  0.87140  1.0000
  Fe  Fe93      1.0  0.67229  0.13614  0.88561  1.0000
  S   S178      1.0  0.67590  0.11961  0.94081  1.0000
  Fe  Fe94      1.0  0.66372  0.09950  0.90835  1.0000
  S   S179      1.0  0.67502  0.06973  0.91434  1.0000
  H   H653      1.0  0.62379  0.09438  0.83820  1.0000
  H   H654      1.0  0.59896  0.08270  0.75336  1.0000
  H   H655      1.0  0.53641  0.04420  0.68358  1.0000
  C   C408      1.0  0.62875  0.08056  0.82659  1.0000
  C   C409      1.0  0.67524  0.16906  0.96289  1.0000
  S   S180      1.0  0.63491  0.11086  0.92492  1.0000
  H   H656      1.0  0.60127  0.06589  0.85516  1.0000
  H   H657      1.0  0.63288  0.07140  0.85168  1.0000
  S   S181      1.0  0.64407  0.15076  0.90128  1.0000
  N   N42       1.0  0.61465  0.07428  0.80413  1.0000
  H   H658      1.0  0.63892  0.07475  0.94885  1.0000
  Fe  Fe95      1.0  0.64692  0.13223  0.95370  1.0000
  C   C410      1.0  0.65741  0.05756  0.91072  1.0000
  H   H659      1.0  0.63434  0.05452  0.77397  1.0000
  C   C411      1.0  0.62622  0.05442  0.92412  1.0000
  S   S182      1.0  0.63589  0.14008  0.01328  1.0000
  S   S183      1.0  0.66269  0.11472  0.85170  1.0000
  Fe  Fe96      1.0  0.63464  0.12806  0.87120  1.0000
  C   C412      1.0  0.64072  0.06339  0.92971  1.0000
  H   H660      1.0  0.66304  0.10038  0.02518  1.0000
  H   H661      1.0  0.67463  0.16539  0.93204  1.0000
  H   H662      1.0  0.62211  0.08609  0.75040  1.0000
  C   C413      1.0  0.65967  0.04257  0.88662  1.0000
  H   H663      1.0  0.62431  0.04591  0.81617  1.0000
  H   H664      1.0  0.64220  0.09398  0.01216  1.0000
  H   H665      1.0  0.67507  0.13218  0.01932  1.0000
  H   H666      1.0  0.54263  0.12027  0.54045  1.0000
  C   C414      1.0  0.65704  0.08888  0.01519  1.0000
  H   H667      1.0  0.53810  0.16668  0.91164  1.0000
  H   H668      1.0  0.68609  0.18809  0.01999  1.0000
  C   C415      1.0  0.53103  0.04880  0.71265  1.0000
  H   H669      1.0  0.53171  0.04814  0.79076  1.0000
  S   S184      1.0  0.69239  0.15258  0.86102  1.0000
  H   H670      1.0  0.63818  0.06205  0.02328  1.0000
  H   H671      1.0  0.55820  0.14504  0.55940  1.0000
  H   H672      1.0  0.53452  0.08927  0.60311  1.0000
  H   H673      1.0  0.69348  0.19628  0.95197  1.0000
  H   H674      1.0  0.53406  0.14397  0.90785  1.0000
  C   C416      1.0  0.69430  0.17428  0.01517  1.0000
  C   C417      1.0  0.62836  0.03968  0.89927  1.0000
  H   H675      1.0  0.53037  0.14857  0.83720  1.0000
  C   C418      1.0  0.55350  0.15243  0.53211  1.0000
  H   H676      1.0  0.55219  0.16724  0.53717  1.0000
  S   S185      1.0  0.54693  0.94947  0.23496  1.0000
  H   H677      1.0  0.57590  0.97946  0.09582  1.0000
  H   H678      1.0  0.58313  0.98559  0.34144  1.0000
  N   N43       1.0  0.55750  0.00390  0.33517  1.0000
  H   H679      1.0  0.57769  0.96898  0.14296  1.0000
  C   C419      1.0  0.54791  0.99373  0.36327  1.0000
  H   H680      1.0  0.61897  0.95396  0.13462  1.0000
  H   H681      1.0  0.56295  0.00926  0.20831  1.0000
  H   H682      1.0  0.55192  0.01912  0.28189  1.0000
  H   H683      1.0  0.56927  0.97998  0.30356  1.0000
  N   N44       1.0  0.59552  0.95453  0.09991  1.0000
  C   C420      1.0  0.56200  0.96453  0.22626  1.0000
  C   C421      1.0  0.58074  0.95771  0.22492  1.0000
  C   C422      1.0  0.59307  0.96943  0.21773  1.0000
  C   C423      1.0  0.58670  0.98804  0.21171  1.0000
  C   C424      1.0  0.56796  0.99488  0.21324  1.0000
  C   C425      1.0  0.55562  0.98315  0.22033  1.0000
  H   H684      1.0  0.58574  0.94332  0.22972  1.0000
  H   H685      1.0  0.60749  0.96406  0.21713  1.0000
  H   H686      1.0  0.59511  0.98064  0.12517  1.0000
  S   S186      1.0  0.64534  0.96231  0.18721  1.0000
  H   H687      1.0  0.54337  0.98209  0.34951  1.0000
  C   C426      1.0  0.68927  0.02455  0.18955  1.0000
  Fe  Fe97      1.0  0.65464  0.96638  0.12576  1.0000
  C   C427      1.0  0.60906  0.94524  0.12767  1.0000
  C   C428      1.0  0.68435  0.03587  0.15733  1.0000
  C   C429      1.0  0.57341  0.99152  0.31865  1.0000
  C   C430      1.0  0.54512  0.01144  0.30374  1.0000
  Fe  Fe98      1.0  0.66256  0.00338  0.14178  1.0000
  H   H688      1.0  0.57283  0.01386  0.37902  1.0000
  H   H689      1.0  0.68812  0.01040  0.18906  1.0000
  H   H690      1.0  0.65515  0.91444  0.03411  1.0000
  C   C431      1.0  0.60491  0.95864  0.06373  1.0000
  H   H691      1.0  0.61710  0.93246  0.11566  1.0000
  S   S187      1.0  0.60176  0.00304  0.20204  1.0000
  H   H692      1.0  0.53567  0.00259  0.37588  1.0000
  C   C432      1.0  0.56351  0.01898  0.35498  1.0000
  H   H693      1.0  0.55174  0.02854  0.36769  1.0000
  C   C433      1.0  0.58256  0.94256  0.09162  1.0000
  H   H694      1.0  0.57529  0.93917  0.11845  1.0000
  H   H695      1.0  0.57072  0.02702  0.33465  1.0000
  C   C434      1.0  0.58563  0.97166  0.11665  1.0000
  S   S188      1.0  0.63793  0.99436  0.11902  1.0000
  Fe  Fe99      1.0  0.63027  0.99103  0.18155  1.0000
  S   S189      1.0  0.65335  0.00259  0.20376  1.0000
  H   H696      1.0  0.54117  0.98846  0.22077  1.0000
  H   H697      1.0  0.55676  0.98808  0.38773  1.0000
  H   H698      1.0  0.57215  0.94913  0.07073  1.0000
  H   H699      1.0  0.58090  0.99869  0.29700  1.0000
  Fe  Fe100     1.0  0.66943  0.97411  0.20417  1.0000
  S   S190      1.0  0.68016  0.97558  0.14330  1.0000
  S   S191      1.0  0.68534  0.96420  0.25805  1.0000
  S   S192      1.0  0.67256  0.02828  0.11966  1.0000
  S   S193      1.0  0.65375  0.94318  0.08565  1.0000
  H   H700      1.0  0.53301  0.02088  0.31505  1.0000
  H   H701      1.0  0.60254  0.94176  0.15531  1.0000
  H   H702      1.0  0.61249  0.94600  0.05028  1.0000
  H   H703      1.0  0.61498  0.96744  0.06923  1.0000
  H   H704      1.0  0.58963  0.92950  0.07899  1.0000
  H   H705      1.0  0.54017  0.00051  0.28837  1.0000
  C   C435      1.0  0.69491  0.03171  0.22325  1.0000
  H   H706      1.0  0.62518  0.03193  0.25585  1.0000
  H   H707      1.0  0.59524  0.96577  0.04198  1.0000
  C   C436      1.0  0.65008  0.94368  0.03535  1.0000
  H   H708      1.0  0.63712  0.97131  0.95680  1.0000
  S   S194      1.0  0.63913  0.93952  0.90617  1.0000
  C   C437      1.0  0.54146  0.97436  0.72632  1.0000
  C   C438      1.0  0.64784  0.92608  0.97806  1.0000
  Fe  Fe101     1.0  0.61642  0.98004  0.79026  1.0000
  H   H709      1.0  0.67307  0.95185  0.87242  1.0000
  C   C439      1.0  0.55118  0.97846  0.69344  1.0000
  C   C440      1.0  0.56953  0.97987  0.69635  1.0000
  C   C441      1.0  0.57823  0.97747  0.73217  1.0000
  C   C442      1.0  0.56848  0.97347  0.76511  1.0000
  C   C443      1.0  0.55017  0.97183  0.76211  1.0000
  H   H710      1.0  0.54274  0.96862  0.78767  1.0000
  H   H711      1.0  0.57508  0.97151  0.79278  1.0000
  H   H712      1.0  0.68035  0.94642  0.95933  1.0000
  S   S195      1.0  0.60116  0.97987  0.73435  1.0000
  H   H713      1.0  0.68913  0.97719  0.87705  1.0000
  H   H714      1.0  0.57705  0.98285  0.67072  1.0000
  S   S196      1.0  0.60609  0.98033  0.85192  1.0000
  C   C444      1.0  0.64506  0.95979  0.01339  1.0000
  C   C445      1.0  0.64121  0.95892  0.97364  1.0000
  Fe  Fe102     1.0  0.62051  0.00373  0.85826  1.0000
  S   S197      1.0  0.62856  0.00502  0.79604  1.0000
  H   H715      1.0  0.54464  0.98031  0.66568  1.0000
  Fe  Fe103     1.0  0.63356  0.96350  0.86493  1.0000
  Fe  Fe104     1.0  0.65412  0.98616  0.81308  1.0000
  S   S198      1.0  0.64698  0.98690  0.87624  1.0000
  S   S199      1.0  0.68025  0.99454  0.79336  1.0000
  H   H716      1.0  0.67209  0.96771  0.93521  1.0000
  H   H717      1.0  0.64669  0.02305  0.85985  1.0000
  H   H718      1.0  0.64900  0.91295  0.96472  1.0000
  C   C446      1.0  0.64275  0.94197  0.95590  1.0000
  H   H719      1.0  0.68883  0.95487  0.79129  1.0000
  S   S200      1.0  0.60987  0.02936  0.88984  1.0000
  H   H720      1.0  0.64391  0.97282  0.02706  1.0000
  C   C447      1.0  0.68464  0.95804  0.94339  1.0000
  C   C448      1.0  0.65140  0.92693  0.01740  1.0000
  H   H721      1.0  0.69203  0.96507  0.96402  1.0000
  C   C449      1.0  0.68548  0.94255  0.88271  1.0000
  H   H722      1.0  0.54798  0.01016  0.76335  1.0000
  C   C450      1.0  0.64509  0.03383  0.88046  1.0000
  H   H723      1.0  0.68081  0.93083  0.89745  1.0000
  H   H724      1.0  0.55414  0.01658  0.71541  1.0000
  C   C451      1.0  0.54829  0.02202  0.74357  1.0000
  S   S201      1.0  0.64294  0.96103  0.80244  1.0000
  H   H725      1.0  0.55789  0.02997  0.75580  1.0000
  H   H726      1.0  0.69367  0.93738  0.85672  1.0000
  N   N45       1.0  0.52997  0.03319  0.73900  1.0000
  H   H727      1.0  0.69542  0.98515  0.65608  1.0000
  H   H728      1.0  0.69582  0.96916  0.61794  1.0000
  N   N46       1.0  0.69593  0.95185  0.90895  1.0000
  H   H729      1.0  0.70390  0.18157  0.46970  1.0000
  Fe  Fe105     1.0  0.79222  0.13338  0.37622  1.0000
  C   C452      1.0  0.76494  0.09832  0.29066  1.0000
  S   S202      1.0  0.77489  0.14245  0.32452  1.0000
  Fe  Fe106     1.0  0.78854  0.12463  0.46111  1.0000
  H   H730      1.0  0.74567  0.09885  0.35715  1.0000
  H   H731      1.0  0.80099  0.06237  0.49873  1.0000
  H   H732      1.0  0.79609  0.08675  0.49602  1.0000
  H   H733      1.0  0.74081  0.14142  0.46054  1.0000
  S   S203      1.0  0.79078  0.15035  0.42908  1.0000
  S   S204      1.0  0.78724  0.10854  0.40817  1.0000
  Fe  Fe107     1.0  0.81737  0.10128  0.41274  1.0000
  S   S205      1.0  0.76891  0.12169  0.50931  1.0000
  H   H734      1.0  0.77399  0.04875  0.41320  1.0000
  H   H735      1.0  0.79287  0.07191  0.42254  1.0000
  H   H736      1.0  0.72407  0.17277  0.41181  1.0000
  C   C453      1.0  0.72936  0.15102  0.47411  1.0000
  C   C454      1.0  0.74838  0.17164  0.49402  1.0000
  C   C455      1.0  0.79904  0.05888  0.41132  1.0000
  H   H737      1.0  0.77123  0.10446  0.31470  1.0000
  H   H738      1.0  0.73053  0.10392  0.31729  1.0000
  H   H739      1.0  0.72828  0.14643  0.50478  1.0000
  H   H740      1.0  0.79014  0.14965  0.51875  1.0000
  H   H741      1.0  0.85562  0.18904  0.47478  1.0000
  C   C456      1.0  0.71513  0.13920  0.34423  1.0000
  C   C457      1.0  0.72723  0.13593  0.37492  1.0000
  C   C458      1.0  0.74554  0.13708  0.36908  1.0000
  C   C459      1.0  0.75182  0.14166  0.33253  1.0000
  C   C460      1.0  0.73970  0.14501  0.30180  1.0000
  C   C461      1.0  0.72140  0.14364  0.30755  1.0000
  H   H742      1.0  0.72249  0.13194  0.40290  1.0000
  H   H743      1.0  0.75480  0.13439  0.39284  1.0000
  H   H744      1.0  0.74448  0.14857  0.27344  1.0000
  H   H745      1.0  0.71209  0.14628  0.28374  1.0000
  H   H746      1.0  0.73202  0.08279  0.34333  1.0000
  C   C462      1.0  0.74013  0.09282  0.33198  1.0000
  Fe  Fe108     1.0  0.82103  0.14035  0.43190  1.0000
  H   H747      1.0  0.73854  0.06636  0.28238  1.0000
  S   S206      1.0  0.83698  0.16032  0.45678  1.0000
  C   C463      1.0  0.85536  0.16810  0.43310  1.0000
  H   H748      1.0  0.75593  0.10963  0.27521  1.0000
  H   H749      1.0  0.73748  0.08728  0.25584  1.0000
  H   H750      1.0  0.77373  0.07547  0.35062  1.0000
  C   C464      1.0  0.76731  0.06988  0.32601  1.0000
  S   S207      1.0  0.83119  0.07182  0.40721  1.0000
  H   H751      1.0  0.77855  0.06312  0.30675  1.0000
  C   C465      1.0  0.71619  0.18235  0.48663  1.0000
  C   C466      1.0  0.78837  0.04563  0.40637  1.0000
  S   S208      1.0  0.82274  0.12509  0.37593  1.0000
  C   C467      1.0  0.80574  0.07483  0.50778  1.0000
  H   H752      1.0  0.75740  0.06981  0.25184  1.0000
  H   H753      1.0  0.76067  0.16212  0.48365  1.0000
  C   C468      1.0  0.74675  0.07656  0.27240  1.0000
  H   H754      1.0  0.74646  0.16825  0.52518  1.0000
  H   H755      1.0  0.77608  0.09251  0.27026  1.0000
  C   C469      1.0  0.81762  0.05510  0.40238  1.0000
  C   C470      1.0  0.73550  0.17477  0.43029  1.0000
  N   N47       1.0  0.73236  0.16995  0.47125  1.0000
  N   N48       1.0  0.75479  0.08437  0.30524  1.0000
  H   H756      1.0  0.76018  0.05918  0.33800  1.0000
  S   S209      1.0  0.69919  0.05984  0.26864  1.0000
  H   H757      1.0  0.75138  0.18563  0.49200  1.0000
  S   S210      1.0  0.81839  0.11574  0.46856  1.0000
  H   H758      1.0  0.73711  0.18919  0.42678  1.0000
  H   H759      1.0  0.81917  0.07473  0.49328  1.0000
  H   H760      1.0  0.71670  0.14947  0.45943  1.0000
  H   H761      1.0  0.74809  0.16623  0.41828  1.0000
  H   H762      1.0  0.85880  0.14871  0.38727  1.0000
  H   H763      1.0  0.71809  0.19674  0.48546  1.0000
  H   H764      1.0  0.71331  0.17888  0.51732  1.0000
  S   S211      1.0  0.69902  0.11117  0.25712  1.0000
  C   C471      1.0  0.82554  0.03766  0.38971  1.0000
  C   C472      1.0  0.86204  0.18260  0.44905  1.0000
  H   H765      1.0  0.86185  0.21681  0.29871  1.0000
  C   C473      1.0  0.70165  0.18231  0.94936  1.0000
  N   N49       1.0  0.76409  0.06715  0.77633  1.0000
  H   H766      1.0  0.85447  0.13693  0.61479  1.0000
  Fe  Fe109     1.0  0.79058  0.12033  0.77731  1.0000
  H   H767      1.0  0.83488  0.20775  0.81835  1.0000
  S   S212      1.0  0.77383  0.11335  0.82882  1.0000
  Fe  Fe110     1.0  0.79545  0.14051  0.70199  1.0000
  H   H768      1.0  0.75796  0.11914  0.58870  1.0000
  S   S213      1.0  0.78678  0.16226  0.65699  1.0000
  C   C474      1.0  0.76853  0.06245  0.73554  1.0000
  C   C475      1.0  0.84987  0.16414  0.72641  1.0000
  S   S214      1.0  0.78158  0.11714  0.71687  1.0000
  S   S215      1.0  0.80201  0.14555  0.76343  1.0000
  H   H769      1.0  0.70037  0.14047  0.98791  1.0000
  S   S216      1.0  0.81741  0.10127  0.76934  1.0000
  H   H770      1.0  0.74342  0.05083  0.78131  1.0000
  H   H771      1.0  0.78910  0.07670  0.60011  1.0000
  C   C476      1.0  0.78084  0.06902  0.79633  1.0000
  C   C477      1.0  0.75094  0.08451  0.77795  1.0000
  H   H772      1.0  0.78741  0.07966  0.78213  1.0000
  N   N50       1.0  0.84685  0.16492  0.59654  1.0000
  H   H773      1.0  0.74712  0.08831  0.80833  1.0000
  C   C478      1.0  0.78110  0.15169  0.61559  1.0000
  C   C479      1.0  0.77043  0.13829  0.61893  1.0000
  H   H774      1.0  0.76499  0.13506  0.64685  1.0000
  C   C480      1.0  0.71470  0.14113  0.85060  1.0000
  C   C481      1.0  0.72568  0.14903  0.82451  1.0000
  C   C482      1.0  0.74375  0.14048  0.81688  1.0000
  C   C483      1.0  0.75108  0.12428  0.83631  1.0000
  C   C484      1.0  0.74012  0.11648  0.86266  1.0000
  C   C485      1.0  0.72191  0.12470  0.86931  1.0000
  H   H775      1.0  0.72018  0.16176  0.81000  1.0000
  H   H776      1.0  0.75210  0.14661  0.79660  1.0000
  H   H777      1.0  0.74575  0.10399  0.87792  1.0000
  H   H778      1.0  0.71357  0.11851  0.88949  1.0000
  H   H779      1.0  0.85793  0.18530  0.62600  1.0000
  C   C486      1.0  0.78782  0.15607  0.57924  1.0000
  C   C487      1.0  0.78444  0.14659  0.54655  1.0000
  C   C488      1.0  0.81958  0.05935  0.56465  1.0000
  H   H780      1.0  0.71976  0.15050  0.97635  1.0000
  Fe  Fe111     1.0  0.80904  0.09972  0.70791  1.0000
  H   H781      1.0  0.75271  0.05572  0.82647  1.0000
  H   H782      1.0  0.77506  0.07293  0.72050  1.0000
  H   H783      1.0  0.84582  0.18956  0.69441  1.0000
  H   H784      1.0  0.79594  0.16652  0.57641  1.0000
  C   C489      1.0  0.82980  0.16769  0.61972  1.0000
  S   S217      1.0  0.80964  0.07499  0.67112  1.0000
  C   C490      1.0  0.76641  0.12934  0.58602  1.0000
  H   H785      1.0  0.82231  0.06184  0.74733  1.0000
  H   H786      1.0  0.78325  0.06370  0.56080  1.0000
  C   C491      1.0  0.81809  0.05086  0.73236  1.0000
  C   C492      1.0  0.81357  0.09214  0.56094  1.0000
  H   H787      1.0  0.83208  0.17078  0.65027  1.0000
  H   H788      1.0  0.77811  0.04921  0.73337  1.0000
  H   H789      1.0  0.77796  0.07313  0.82693  1.0000
  H   H790      1.0  0.82096  0.05959  0.59663  1.0000
  H   H791      1.0  0.73824  0.08379  0.76256  1.0000
  H   H792      1.0  0.81957  0.17916  0.60808  1.0000
  C   C493      1.0  0.85542  0.17961  0.71022  1.0000
  C   C494      1.0  0.81176  0.05361  0.69458  1.0000
  H   H793      1.0  0.85344  0.21386  0.76140  1.0000
  H   H794      1.0  0.79096  0.05609  0.79643  1.0000
  H   H795      1.0  0.80432  0.10464  0.55054  1.0000
  Fe  Fe112     1.0  0.82809  0.12629  0.75020  1.0000
  H   H796      1.0  0.77886  0.08813  0.55775  1.0000
  H   H797      1.0  0.70515  0.14629  0.93872  1.0000
  S   S218      1.0  0.82222  0.12288  0.68786  1.0000
  H   H798      1.0  0.83729  0.22913  0.83827  1.0000
  C   C495      1.0  0.84366  0.21447  0.83656  1.0000
  C   C496      1.0  0.85996  0.14975  0.61374  1.0000
  H   H799      1.0  0.83338  0.05855  0.55153  1.0000
  H   H800      1.0  0.80154  0.04124  0.64610  1.0000
  S   S219      1.0  0.85548  0.13172  0.76749  1.0000
  C   C497      1.0  0.78872  0.07601  0.56801  1.0000
  H   H801      1.0  0.76573  0.03928  0.79474  1.0000
  H   H802      1.0  0.75673  0.09591  0.76471  1.0000
  H   H803      1.0  0.84494  0.19349  0.58405  1.0000
  H   H804      1.0  0.83608  0.16213  0.72292  1.0000
  C   C498      1.0  0.85458  0.18169  0.59630  1.0000
  C   C499      1.0  0.75612  0.05259  0.79555  1.0000
  N   N51       1.0  0.80690  0.07558  0.55032  1.0000
  H   H805      1.0  0.81446  0.09315  0.59293  1.0000
  H   H806      1.0  0.83706  0.14803  0.55529  1.0000
  H   H807      1.0  0.75619  0.06132  0.71923  1.0000
  H   H808      1.0  0.82355  0.15533  0.62029  1.0000
  H   H809      1.0  0.71589  0.18278  0.95698  1.0000
  C   C500      1.0  0.70532  0.15079  0.96914  1.0000
  H   H810      1.0  0.84349  0.20843  0.86623  1.0000
  C   C501      1.0  0.84302  0.16053  0.55643  1.0000
  H   H811      1.0  0.70177  0.17860  0.91826  1.0000
  H   H812      1.0  0.81485  0.04659  0.55766  1.0000
  H   H813      1.0  0.83322  0.17172  0.54246  1.0000
  H   H814      1.0  0.82728  0.09231  0.54818  1.0000
  H   H815      1.0  0.85554  0.15830  0.53785  1.0000
  C   C502      1.0  0.77355  0.13337  0.54994  1.0000
  H   H816      1.0  0.85635  0.23515  0.78126  1.0000
  C   C503      1.0  0.80655  0.03919  0.67526  1.0000
  H   H817      1.0  0.70834  0.17429  0.02490  1.0000
  C   C504      1.0  0.86212  0.15131  0.74725  1.0000
  C   C505      1.0  0.86188  0.22028  0.78106  1.0000
  H   H818      1.0  0.86199  0.18520  0.80026  1.0000
  N   N52       1.0  0.86234  0.21212  0.82039  1.0000
  H   H819      1.0  0.85473  0.42364  0.93184  1.0000
  H   H820      1.0  0.75009  0.99709  0.27259  1.0000
  H   H821      1.0  0.82104  0.01098  0.37459  1.0000
  H   H822      1.0  0.81356  0.94809  0.49509  1.0000
  H   H823      1.0  0.71657  0.98624  0.31968  1.0000
  S   S220      1.0  0.80288  0.93094  0.35410  1.0000
  H   H824      1.0  0.83988  0.90934  0.38036  1.0000
  S   S221      1.0  0.77146  0.96619  0.37641  1.0000
  C   C506      1.0  0.80933  0.91493  0.24367  1.0000
  Fe  Fe113     1.0  0.79157  0.94544  0.40790  1.0000
  C   C507      1.0  0.71812  0.95279  0.29262  1.0000
  Fe  Fe114     1.0  0.78475  0.95365  0.32240  1.0000
  S   S222      1.0  0.77148  0.95094  0.26518  1.0000
  S   S223      1.0  0.78192  0.01265  0.38511  1.0000
  S   S224      1.0  0.78455  0.93032  0.46085  1.0000
  H   H825      1.0  0.80759  0.90093  0.23678  1.0000
  H   H826      1.0  0.72063  0.01332  0.37724  1.0000
  Fe  Fe115     1.0  0.79343  0.98289  0.37530  1.0000
  C   C508      1.0  0.79619  0.02836  0.39289  1.0000
  C   C509      1.0  0.71974  0.96351  0.22644  1.0000
  C   C510      1.0  0.73881  0.96046  0.22858  1.0000
  C   C511      1.0  0.74756  0.95391  0.26296  1.0000
  C   C512      1.0  0.73714  0.95012  0.29504  1.0000
  H   H827      1.0  0.82310  0.94518  0.23192  1.0000
  H   H828      1.0  0.80179  0.92446  0.22186  1.0000
  H   H829      1.0  0.74677  0.96340  0.20361  1.0000
  H   H830      1.0  0.74374  0.94492  0.32157  1.0000
  C   C513      1.0  0.77546  0.96411  0.49281  1.0000
  H   H831      1.0  0.83177  0.90714  0.30367  1.0000
  H   H832      1.0  0.73454  0.99106  0.37410  1.0000
  H   H833      1.0  0.77027  0.99037  0.51965  1.0000
  C   C514      1.0  0.73324  0.00545  0.36393  1.0000
  C   C515      1.0  0.81487  0.02429  0.38495  1.0000
  H   H834      1.0  0.85359  0.93329  0.49103  1.0000
  H   H835      1.0  0.74493  0.01069  0.37561  1.0000
  C   C516      1.0  0.71704  0.99995  0.30726  1.0000
  H   H836      1.0  0.76203  0.00056  0.31563  1.0000
  H   H837      1.0  0.71312  0.96883  0.20003  1.0000
  H   H838      1.0  0.75089  0.98149  0.31241  1.0000
  C   C517      1.0  0.77761  0.94529  0.49879  1.0000
  H   H839      1.0  0.77691  0.96967  0.46405  1.0000
  S   S225      1.0  0.80555  0.97162  0.31923  1.0000
  C   C518      1.0  0.74973  0.99610  0.30475  1.0000
  H   H840      1.0  0.83044  0.96082  0.50752  1.0000
  S   S226      1.0  0.81264  0.96292  0.41150  1.0000
  C   C519      1.0  0.85369  0.90473  0.37035  1.0000
  Fe  Fe116     1.0  0.82275  0.94976  0.35532  1.0000
  N   N53       1.0  0.73288  0.00691  0.32125  1.0000
  C   C520      1.0  0.70932  0.95970  0.25852  1.0000
  C   C521      1.0  0.77176  0.97583  0.52430  1.0000
  H   H841      1.0  0.85198  0.91256  0.20626  1.0000
  C   C522      1.0  0.73153  0.02612  0.30911  1.0000
  H   H842      1.0  0.85487  0.87716  0.39122  1.0000
  H   H843      1.0  0.82403  0.93913  0.28225  1.0000
  S   S227      1.0  0.85237  0.93952  0.34001  1.0000
  H   H844      1.0  0.71749  0.99862  0.27523  1.0000
  H   H845      1.0  0.80241  0.91843  0.27205  1.0000
  H   H846      1.0  0.71929  0.03482  0.32212  1.0000
  N   N54       1.0  0.82871  0.91638  0.24452  1.0000
  C   C523      1.0  0.84447  0.92474  0.50475  1.0000
  H   H847      1.0  0.83729  0.88945  0.26885  1.0000
  H   H848      1.0  0.85258  0.90483  0.27646  1.0000
  C   C524      1.0  0.83019  0.93523  0.25349  1.0000
  C   C525      1.0  0.83798  0.90386  0.27458  1.0000
  H   H849      1.0  0.83602  0.92082  0.48138  1.0000
  H   H850      1.0  0.74361  0.03151  0.31816  1.0000
  H   H851      1.0  0.71015  0.94971  0.31747  1.0000
  C   C526      1.0  0.86223  0.88650  0.37654  1.0000
  H   H852      1.0  0.73046  0.02780  0.27711  1.0000
  H   H853      1.0  0.83652  0.89738  0.19876  1.0000
  C   C527      1.0  0.83735  0.91156  0.20644  1.0000
  H   H854      1.0  0.85313  0.91207  0.51610  1.0000
  H   H855      1.0  0.83069  0.92080  0.18315  1.0000
  H   H856      1.0  0.84462  0.93690  0.25456  1.0000
  H   H857      1.0  0.83995  0.03455  0.38305  1.0000
  H   H858      1.0  0.69721  0.02329  0.24897  1.0000
  H   H859      1.0  0.70401  0.00897  0.31541  1.0000
  C   C528      1.0  0.82188  0.95129  0.51931  1.0000
  C   C529      1.0  0.86300  0.91685  0.35084  1.0000
  S   S228      1.0  0.81512  0.99817  0.75540  1.0000
  S   S229      1.0  0.80554  0.94894  0.74675  1.0000
  C   C530      1.0  0.81926  0.03374  0.75067  1.0000
  C   C531      1.0  0.85689  0.95048  0.71013  1.0000
  H   H860      1.0  0.74137  0.96556  0.69138  1.0000
  Fe  Fe117     1.0  0.80258  0.97774  0.72395  1.0000
  Fe  Fe118     1.0  0.81163  0.94118  0.68480  1.0000
  Fe  Fe119     1.0  0.77606  0.95185  0.73109  1.0000
  C   C532      1.0  0.84328  0.90098  0.72515  1.0000
  S   S230      1.0  0.75439  0.94006  0.76385  1.0000
  Fe  Fe120     1.0  0.78124  0.97052  0.65452  1.0000
  S   S231      1.0  0.76720  0.98332  0.60135  1.0000
  S   S232      1.0  0.78254  0.94132  0.67120  1.0000
  S   S233      1.0  0.77276  0.98129  0.71331  1.0000
  H   H861      1.0  0.70988  0.98612  0.61423  1.0000
  H   H862      1.0  0.82434  0.03164  0.77978  1.0000
  C   C533      1.0  0.84461  0.93944  0.56627  1.0000
  C   C534      1.0  0.70442  0.97669  0.63470  1.0000
  C   C535      1.0  0.71791  0.94819  0.78124  1.0000
  C   C536      1.0  0.73391  0.95504  0.77448  1.0000
  C   C537      1.0  0.73328  0.97377  0.77516  1.0000
  C   C538      1.0  0.71670  0.98566  0.78124  1.0000
  H   H863      1.0  0.71835  0.93367  0.78085  1.0000
  H   H864      1.0  0.74558  0.97915  0.77124  1.0000
  H   H865      1.0  0.71631  0.00018  0.78152  1.0000
  H   H866      1.0  0.77122  0.94428  0.59609  1.0000
  H   H867      1.0  0.80314  0.01121  0.67885  1.0000
  C   C539      1.0  0.85462  0.88782  0.74771  1.0000
  N   N55       1.0  0.71926  0.96411  0.65407  1.0000
  C   C540      1.0  0.82099  0.92278  0.55261  1.0000
  H   H868      1.0  0.85053  0.88483  0.77695  1.0000
  C   C541      1.0  0.70063  0.97892  0.78694  1.0000
  H   H869      1.0  0.84269  0.94821  0.71249  1.0000
  H   H870      1.0  0.74234  0.94371  0.63850  1.0000
  H   H871      1.0  0.73680  0.96196  0.60379  1.0000
  C   C542      1.0  0.71152  0.95196  0.68121  1.0000
  C   C543      1.0  0.77248  0.94990  0.56754  1.0000
  N   N56       1.0  0.83300  0.93456  0.53574  1.0000
  H   H872      1.0  0.84026  0.96275  0.77657  1.0000
  H   H873      1.0  0.72304  0.94480  0.60803  1.0000
  S   S234      1.0  0.81081  0.96981  0.66330  1.0000
  H   H874      1.0  0.72063  0.94561  0.94098  1.0000
  C   C544      1.0  0.81385  0.01939  0.73153  1.0000
  C   C545      1.0  0.80741  0.02217  0.69381  1.0000
  C   C546      1.0  0.77066  0.96870  0.56182  1.0000
  H   H875      1.0  0.82892  0.91021  0.56610  1.0000
  H   H876      1.0  0.85421  0.80518  0.78396  1.0000
  H   H877      1.0  0.77719  0.92370  0.54070  1.0000
  H   H878      1.0  0.83046  0.90803  0.73696  1.0000
  S   S235      1.0  0.83488  0.92136  0.65812  1.0000
  C   C547      1.0  0.70122  0.96013  0.78714  1.0000
  H   H879      1.0  0.70822  0.97563  0.90816  1.0000
  H   H880      1.0  0.81194  0.92987  0.57573  1.0000
  C   C548      1.0  0.84847  0.90479  0.68724  1.0000
  C   C549      1.0  0.70118  0.96771  0.88865  1.0000
  H   H881      1.0  0.70269  0.95986  0.70363  1.0000
  C   C550      1.0  0.73033  0.97470  0.67570  1.0000
  H   H882      1.0  0.81236  0.95865  0.54134  1.0000
  C   C551      1.0  0.77569  0.93824  0.53606  1.0000
  C   C552      1.0  0.73084  0.95314  0.62480  1.0000
  H   H883      1.0  0.72241  0.94243  0.69664  1.0000
  H   H884      1.0  0.72124  0.93407  0.89581  1.0000
  C   C553      1.0  0.71241  0.93905  0.92115  1.0000
  H   H885      1.0  0.71054  0.96346  0.86377  1.0000
  H   H886      1.0  0.70888  0.92695  0.93662  1.0000
  H   H887      1.0  0.73680  0.98372  0.65610  1.0000
  H   H888      1.0  0.72198  0.98345  0.69753  1.0000
  H   H889      1.0  0.85295  0.92709  0.57984  1.0000
  H   H890      1.0  0.85427  0.97814  0.75921  1.0000
  H   H891      1.0  0.70315  0.94363  0.66598  1.0000
  H   H892      1.0  0.83627  0.94696  0.58989  1.0000
  H   H893      1.0  0.85402  0.94816  0.55461  1.0000
  H   H894      1.0  0.85090  0.92954  0.77151  1.0000
  C   C554      1.0  0.85464  0.96442  0.77268  1.0000
  H   H895      1.0  0.85648  0.96388  0.69527  1.0000
  H   H896      1.0  0.81220  0.91862  0.53022  1.0000
  H   H897      1.0  0.86046  0.96449  0.80197  1.0000
  C   C555      1.0  0.87627  0.21227  0.30693  1.0000
  S   S236      1.0  0.93772  0.22284  0.37191  1.0000
  Fe  Fe121     1.0  0.90294  0.24681  0.44644  1.0000
  S   S237      1.0  0.92019  0.21952  0.45866  1.0000
  C   C556      1.0  0.96790  0.29563  0.34356  1.0000
  Fe  Fe122     1.0  0.94266  0.23186  0.43135  1.0000
  S   S238      1.0  0.96965  0.23134  0.45947  1.0000
  Fe  Fe123     1.0  0.91330  0.21325  0.39824  1.0000
  S   S239      1.0  0.90467  0.18774  0.37720  1.0000
  S   S240      1.0  0.92090  0.26464  0.30893  1.0000
  S   S241      1.0  0.89446  0.23981  0.38793  1.0000
  H   H898      1.0  0.95252  0.26663  0.35455  1.0000
  H   H899      1.0  0.95830  0.32818  0.06150  1.0000
  C   C557      1.0  0.98844  0.23112  0.42814  1.0000
  C   C558      1.0  0.99016  0.22133  0.39390  1.0000
  C   C559      1.0  0.00542  0.22110  0.36957  1.0000
  H   H900      1.0  0.88192  0.20007  0.44448  1.0000
  H   H901      1.0  0.91119  0.19726  0.29295  1.0000
  C   C560      1.0  0.00196  0.24078  0.43784  1.0000
  H   H902      1.0  0.97988  0.21369  0.38644  1.0000
  H   H903      1.0  0.00681  0.21337  0.34324  1.0000
  H   H904      1.0  0.00057  0.24854  0.46410  1.0000
  H   H905      1.0  0.00240  0.28291  0.32111  1.0000
  C   C561      1.0  0.01894  0.23077  0.37921  1.0000
  H   H906      1.0  0.89581  0.21650  0.21848  1.0000
  H   H907      1.0  0.97783  0.28382  0.27244  1.0000
  C   C562      1.0  0.88552  0.18055  0.39888  1.0000
  H   H908      1.0  0.98435  0.33253  0.10189  1.0000
  H   H909      1.0  0.91769  0.21728  0.27117  1.0000
  H   H910      1.0  0.87234  0.21642  0.23010  1.0000
  H   H911      1.0  0.93758  0.35949  0.10733  1.0000
  S   S242      1.0  0.88222  0.25784  0.49150  1.0000
  S   S243      1.0  0.92580  0.25976  0.42389  1.0000
  C   C563      1.0  0.87882  0.16610  0.38280  1.0000
  Fe  Fe124     1.0  0.95493  0.36909  0.22414  1.0000
  H   H912      1.0  0.99202  0.34601  0.06345  1.0000
  H   H913      1.0  0.88540  0.15950  0.35737  1.0000
  H   H914      1.0  0.97259  0.24965  0.34861  1.0000
  C   C564      1.0  0.01710  0.24077  0.41320  1.0000
  H   H915      1.0  0.95585  0.36330  0.13650  1.0000
  H   H916      1.0  0.98779  0.35501  0.11126  1.0000
  Fe  Fe125     1.0  0.91917  0.24996  0.36614  1.0000
  H   H917      1.0  0.91244  0.27541  0.50471  1.0000
  H   H918      1.0  0.95306  0.34057  0.12772  1.0000
  H   H919      1.0  0.89528  0.35131  0.08520  1.0000
  N   N57       1.0  0.96380  0.35393  0.07923  1.0000
  S   S244      1.0  0.92833  0.36185  0.20889  1.0000
  H   H920      1.0  0.00214  0.25929  0.32991  1.0000
  H   H921      1.0  0.99904  0.27472  0.36940  1.0000
  C   C565      1.0  0.96755  0.26397  0.35717  1.0000
  H   H922      1.0  0.90990  0.21734  0.32039  1.0000
  H   H923      1.0  0.90677  0.28968  0.36983  1.0000
  H   H924      1.0  0.97062  0.26501  0.38830  1.0000
  C   C566      1.0  0.90013  0.36399  0.08173  1.0000
  H   H925      1.0  0.97034  0.29805  0.37446  1.0000
  N   N58       1.0  0.97584  0.27676  0.33277  1.0000
  H   H926      1.0  0.95294  0.29867  0.33929  1.0000
  H   H927      1.0  0.97384  0.30569  0.32573  1.0000
  C   C567      1.0  0.99568  0.27331  0.33856  1.0000
  Fe  Fe126     1.0  0.92121  0.36620  0.27206  1.0000
  H   H928      1.0  0.88673  0.24481  0.30612  1.0000
  H   H929      1.0  0.95731  0.27609  0.28658  1.0000
  S   S245      1.0  0.90790  0.35062  0.31715  1.0000
  S   S246      1.0  0.98178  0.35536  0.19990  1.0000
  C   C568      1.0  0.87695  0.18890  0.43188  1.0000
  H   H930      1.0  0.97824  0.26008  0.28246  1.0000
  C   C569      1.0  0.91211  0.32672  0.31463  1.0000
  C   C570      1.0  0.90763  0.31648  0.34656  1.0000
  C   C571      1.0  0.91045  0.29742  0.34516  1.0000
  C   C572      1.0  0.97215  0.27410  0.29171  1.0000
  C   C573      1.0  0.92198  0.29874  0.27951  1.0000
  C   C574      1.0  0.91951  0.31780  0.28122  1.0000
  H   H931      1.0  0.90182  0.32330  0.37242  1.0000
  H   H932      1.0  0.92291  0.32561  0.25638  1.0000
  H   H933      1.0  0.87773  0.21725  0.33656  1.0000
  C   C575      1.0  0.91748  0.28851  0.31150  1.0000
  H   H934      1.0  0.02362  0.23086  0.51849  1.0000
  C   C576      1.0  0.98284  0.34653  0.08935  1.0000
  H   H935      1.0  0.92731  0.29194  0.25329  1.0000
  C   C577      1.0  0.88501  0.23901  0.27741  1.0000
  H   H936      1.0  0.01788  0.36122  0.21361  1.0000
  C   C578      1.0  0.90776  0.21240  0.29118  1.0000
  C   C579      1.0  0.95206  0.35433  0.11418  1.0000
  C   C580      1.0  0.88647  0.21181  0.24025  1.0000
  H   H937      1.0  0.02732  0.24854  0.42029  1.0000
  H   H938      1.0  0.87902  0.19713  0.30928  1.0000
  H   H939      1.0  0.88933  0.19666  0.24053  1.0000
  H   H940      1.0  0.89446  0.24446  0.25704  1.0000
  H   H941      1.0  0.87088  0.24447  0.26822  1.0000
  C   C581      1.0  0.95782  0.34227  0.05014  1.0000
  N   N59       1.0  0.88886  0.21889  0.27895  1.0000
  H   H942      1.0  0.95148  0.20879  0.51133  1.0000
  H   H943      1.0  0.94362  0.34767  0.04109  1.0000
  S   S247      1.0  0.94890  0.37034  0.28751  1.0000
  H   H944      1.0  0.89675  0.37050  0.14234  1.0000
  C   C582      1.0  0.90548  0.36952  0.04498  1.0000
  C   C583      1.0  0.86374  0.15995  0.39969  1.0000
  H   H945      1.0  0.94531  0.24240  0.52588  1.0000
  Fe  Fe127     1.0  0.91883  0.24748  0.68766  1.0000
  S   S248      1.0  0.92717  0.21761  0.67803  1.0000
  H   H946      1.0  0.87534  0.24916  0.57086  1.0000
  S   S249      1.0  0.89273  0.24525  0.71792  1.0000
  S   S250      1.0  0.91645  0.21177  0.77001  1.0000
  Fe  Fe128     1.0  0.94072  0.21740  0.73525  1.0000
  S   S251      1.0  0.97011  0.20512  0.74466  1.0000
  Fe  Fe129     1.0  0.90211  0.21501  0.71301  1.0000
  S   S252      1.0  0.87971  0.20143  0.69159  1.0000
  S   S253      1.0  0.93395  0.24746  0.74229  1.0000
  H   H947      1.0  0.93000  0.20673  0.58584  1.0000
  C   C584      1.0  0.01218  0.27418  0.75901  1.0000
  C   C585      1.0  0.95893  0.20641  0.53898  1.0000
  C   C586      1.0  0.98534  0.21770  0.72268  1.0000
  C   C587      1.0  0.00384  0.21367  0.73164  1.0000
  C   C588      1.0  0.93789  0.29526  0.73074  1.0000
  N   N60       1.0  0.95159  0.22044  0.56747  1.0000
  C   C589      1.0  0.99148  0.24127  0.67769  1.0000
  C   C590      1.0  0.97918  0.23170  0.69601  1.0000
  H   H948      1.0  0.00869  0.20282  0.75219  1.0000
  C   C591      1.0  0.88685  0.25596  0.56960  1.0000
  H   H949      1.0  0.98663  0.25187  0.65661  1.0000
  H   H950      1.0  0.96497  0.23497  0.68906  1.0000
  H   H951      1.0  0.00357  0.29769  0.81718  1.0000
  C   C592      1.0  0.87989  0.15420  0.75222  1.0000
  C   C593      1.0  0.88548  0.16968  0.73583  1.0000
  H   H952      1.0  0.88942  0.14430  0.76834  1.0000
  H   H953      1.0  0.89930  0.17160  0.73908  1.0000
  C   C594      1.0  0.99490  0.28722  0.81463  1.0000
  C   C595      1.0  0.89604  0.25823  0.60347  1.0000
  C   C596      1.0  0.87356  0.22121  0.84528  1.0000
  C   C597      1.0  0.91602  0.31538  0.69199  1.0000
  C   C598      1.0  0.91658  0.27357  0.56629  1.0000
  C   C599      1.0  0.00996  0.23724  0.68662  1.0000
  C   C600      1.0  0.91095  0.26697  0.60175  1.0000
  H   H954      1.0  0.96018  0.20326  0.61695  1.0000
  H   H955      1.0  0.95788  0.19254  0.54983  1.0000
  H   H956      1.0  0.02147  0.28415  0.76007  1.0000
  H   H957      1.0  0.89165  0.25307  0.63077  1.0000
  C   C601      1.0  0.01611  0.22357  0.71399  1.0000
  H   H958      1.0  0.97641  0.21650  0.59926  1.0000
  Fe  Fe130     1.0  0.90871  0.24219  0.77224  1.0000
  C   C602      1.0  0.94273  0.27694  0.83887  1.0000
  H   H959      1.0  0.98161  0.26171  0.77605  1.0000
  H   H960      1.0  0.95695  0.27257  0.83184  1.0000
  H   H961      1.0  0.88425  0.19021  0.80593  1.0000
  H   H962      1.0  0.88775  0.21972  0.83388  1.0000
  C   C603      1.0  0.93059  0.26527  0.83272  1.0000
  H   H963      1.0  0.01598  0.26000  0.85300  1.0000
  H   H964      1.0  0.95662  0.22722  0.62567  1.0000
  H   H965      1.0  0.98309  0.29323  0.79661  1.0000
  H   H966      1.0  0.98945  0.28483  0.84412  1.0000
  N   N61       1.0  0.00525  0.27026  0.79800  1.0000
  H   H967      1.0  0.93559  0.25177  0.82204  1.0000
  S   S254      1.0  0.92365  0.26825  0.64308  1.0000
  H   H968      1.0  0.90215  0.32384  0.69062  1.0000
  H   H969      1.0  0.92632  0.23044  0.59675  1.0000
  C   C604      1.0  0.96166  0.21664  0.60391  1.0000
  C   C605      1.0  0.93215  0.22025  0.57487  1.0000
  H   H970      1.0  0.92596  0.32433  0.68494  1.0000
  S   S255      1.0  0.89664  0.25797  0.82410  1.0000
  H   H971      1.0  0.90664  0.28412  0.71594  1.0000
  H   H972      1.0  0.87423  0.21547  0.87526  1.0000
  H   H973      1.0  0.93962  0.28467  0.70812  1.0000
  H   H974      1.0  0.92404  0.22365  0.54820  1.0000
  H   H975      1.0  0.97346  0.20648  0.53180  1.0000
  H   H976      1.0  0.02873  0.25000  0.81174  1.0000
  H   H977      1.0  0.00096  0.27984  0.73916  1.0000
  Fe  Fe131     1.0  0.92367  0.35665  0.95524  1.0000
  H   H978      1.0  0.98779  0.25347  0.82408  1.0000
  H   H979      1.0  0.89184  0.30265  0.73892  1.0000
  H   H980      1.0  0.89150  0.29267  0.86228  1.0000
  C   C606      1.0  0.91206  0.27108  0.84003  1.0000
  N   N62       1.0  0.91941  0.30645  0.73037  1.0000
  H   H981      1.0  0.02501  0.36131  0.94303  1.0000
  H   H982      1.0  0.87570  0.21844  0.76777  1.0000
  H   H983      1.0  0.94842  0.30371  0.72527  1.0000
  H   H984      1.0  0.92035  0.31416  0.78961  1.0000
  S   S256      1.0  0.98901  0.35795  0.96812  1.0000
  Fe  Fe132     1.0  0.96272  0.35805  0.93877  1.0000
  H   H985      1.0  0.92807  0.28040  0.56490  1.0000
  S   S257      1.0  0.91730  0.35438  0.89248  1.0000
  C   C607      1.0  0.87325  0.18234  0.71454  1.0000
  Fe  Fe133     1.0  0.94396  0.33495  0.88857  1.0000
  S   S258      1.0  0.94863  0.33490  0.95224  1.0000
  S   S259      1.0  0.95169  0.30946  0.85378  1.0000
  H   H986      1.0  0.92785  0.32952  0.75548  1.0000
  C   C608      1.0  0.93649  0.29433  0.85328  1.0000
  H   H987      1.0  0.91716  0.30518  0.66866  1.0000
  C   C609      1.0  0.91811  0.29978  0.86321  1.0000
  C   C610      1.0  0.90594  0.29469  0.73835  1.0000
  H   H988      1.0  0.91323  0.31321  0.87455  1.0000
  H   H989      1.0  0.94076  0.28816  0.75917  1.0000
  C   C611      1.0  0.90584  0.28816  0.85633  1.0000
  S   S260      1.0  0.02496  0.24929  0.66221  1.0000
  H   H990      1.0  0.90827  0.28749  0.76680  1.0000
  H   H991      1.0  0.90403  0.32911  0.76119  1.0000
  C   C612      1.0  0.91781  0.32045  0.76038  1.0000
  H   H992      1.0  0.00078  0.24375  0.78304  1.0000
  S   S261      1.0  0.90382  0.35591  0.00475  1.0000
  H   H993      1.0  0.94912  0.24928  0.57396  1.0000
  C   C613      1.0  0.99331  0.25674  0.79520  1.0000
  C   C614      1.0  0.02068  0.26289  0.82318  1.0000
  S   S262      1.0  0.96019  0.35659  0.87455  1.0000
  H   H994      1.0  0.01993  0.26165  0.74554  1.0000
  H   H995      1.0  0.86813  0.23609  0.84701  1.0000
  H   H996      1.0  0.87099  0.18587  0.84772  1.0000
  H   H997      1.0  0.96667  0.34137  0.02373  1.0000
  H   H998      1.0  0.02071  0.25548  0.56721  1.0000
  C   C615      1.0  0.90783  0.27066  0.53224  1.0000
  H   H999      1.0  0.96793  0.23895  0.54403  1.0000
  C   C616      1.0  0.87024  0.19251  0.81856  1.0000
  H   H1000     1.0  0.87296  0.14716  0.59687  1.0000
  C   C617      1.0  0.95358  0.23856  0.55220  1.0000
  C   C618      1.0  0.89293  0.26191  0.53392  1.0000
  H   H1001     1.0  0.86319  0.15271  0.64399  1.0000
  H   H1002     1.0  0.86732  0.18012  0.57857  1.0000
  H   H1003     1.0  0.02555  0.65650  0.24896  1.0000
  Fe  Fe134     1.0  0.93777  0.39994  0.27746  1.0000
  S   S263      1.0  0.94655  0.39910  0.21527  1.0000
  S   S264      1.0  0.94637  0.41733  0.32354  1.0000
  H   H1004     1.0  0.00510  0.61654  0.25523  1.0000
  Fe  Fe135     1.0  0.91946  0.39213  0.20305  1.0000
  S   S265      1.0  0.90678  0.40584  0.14917  1.0000
  C   C619      1.0  0.02911  0.67185  0.19687  1.0000
  S   S266      1.0  0.90961  0.39607  0.26481  1.0000
  C   C620      1.0  0.98391  0.44466  0.28654  1.0000
  S   S267      1.0  0.02326  0.57150  0.44249  1.0000
  C   C621      1.0  0.98464  0.38659  0.15968  1.0000
  C   C622      1.0  0.99374  0.40041  0.14710  1.0000
  C   C623      1.0  0.01145  0.40027  0.15903  1.0000
  H   H1005     1.0  0.91166  0.62293  0.48537  1.0000
  H   H1006     1.0  0.88961  0.38964  0.33782  1.0000
  H   H1007     1.0  0.97083  0.38703  0.15111  1.0000
  H   H1008     1.0  0.98693  0.41137  0.12874  1.0000
  N   N63       1.0  0.00747  0.60823  0.31513  1.0000
  C   C624      1.0  0.90669  0.39149  0.10963  1.0000
  S   S268      1.0  0.95061  0.52009  0.36896  1.0000
  H   H1009     1.0  0.89773  0.52338  0.52621  1.0000
  H   H1010     1.0  0.01487  0.50992  0.41368  1.0000
  H   H1011     1.0  0.97114  0.37273  0.03665  1.0000
  H   H1012     1.0  0.99596  0.68084  0.06740  1.0000
  H   H1013     1.0  0.94442  0.58825  0.43161  1.0000
  S   S269      1.0  0.90760  0.49878  0.35275  1.0000
  C   C625      1.0  0.91874  0.47636  0.34376  1.0000
  C   C626      1.0  0.93429  0.46854  0.36399  1.0000
  C   C627      1.0  0.94260  0.45041  0.35746  1.0000
  C   C628      1.0  0.93563  0.44010  0.33017  1.0000
  C   C629      1.0  0.92028  0.44797  0.30936  1.0000
  C   C630      1.0  0.91175  0.46602  0.31646  1.0000
  H   H1014     1.0  0.93974  0.47642  0.38510  1.0000
  H   H1015     1.0  0.95446  0.44438  0.37374  1.0000
  H   H1016     1.0  0.91486  0.44015  0.28810  1.0000
  H   H1017     1.0  0.89974  0.47206  0.30069  1.0000
  N   N64       1.0  0.98222  0.43665  0.24844  1.0000
  C   C631      1.0  0.92830  0.68940  0.08021  1.0000
  C   C632      1.0  0.96335  0.44210  0.23506  1.0000
  H   H1018     1.0  0.00913  0.43872  0.22825  1.0000
  C   C633      1.0  0.98694  0.41660  0.25191  1.0000
  H   H1019     1.0  0.99806  0.44112  0.29716  1.0000
  N   N65       1.0  0.98295  0.65762  0.06485  1.0000
  Fe  Fe136     1.0  0.95623  0.51755  0.43238  1.0000
  C   C634      1.0  0.00142  0.59079  0.30953  1.0000
  H   H1020     1.0  0.90257  0.60244  0.49113  1.0000
  H   H1021     1.0  0.99193  0.45834  0.21777  1.0000
  C   C635      1.0  0.01036  0.52183  0.43105  1.0000
  H   H1022     1.0  0.92275  0.38680  0.34402  1.0000
  H   H1023     1.0  0.95920  0.45715  0.23281  1.0000
  S   S270      1.0  0.98309  0.50490  0.45750  1.0000
  H   H1024     1.0  0.00126  0.41193  0.26077  1.0000
  C   C636      1.0  0.99945  0.66575  0.06534  1.0000
  C   C637      1.0  0.99545  0.52257  0.45628  1.0000
  C   C638      1.0  0.90091  0.39858  0.42911  1.0000
  H   H1025     1.0  0.97253  0.48573  0.52775  1.0000
  H   H1026     1.0  0.98528  0.41008  0.22406  1.0000
  Fe  Fe137     1.0  0.92272  0.51608  0.38769  1.0000
  H   H1027     1.0  0.96856  0.67716  0.10471  1.0000
  H   H1028     1.0  0.98540  0.61825  0.35439  1.0000
  N   N66       1.0  0.90298  0.39827  0.38656  1.0000
  C   C639      1.0  0.88841  0.39015  0.36993  1.0000
  C   C640      1.0  0.91881  0.66491  0.04598  1.0000
  H   H1029     1.0  0.01296  0.57989  0.30079  1.0000
  H   H1030     1.0  0.91616  0.41005  0.06926  1.0000
  C   C641      1.0  0.02056  0.68154  0.16519  1.0000
  H   H1031     1.0  0.02042  0.62699  0.28197  1.0000
  C   C642      1.0  0.99179  0.62224  0.32703  1.0000
  H   H1032     1.0  0.91383  0.65225  0.04663  1.0000
  S   S271      1.0  0.93291  0.69992  0.12288  1.0000
  H   H1033     1.0  0.99656  0.63172  0.08717  1.0000
  C   C643      1.0  0.98951  0.53814  0.47820  1.0000
  C   C644      1.0  0.99467  0.44322  0.22016  1.0000
  C   C645      1.0  0.92081  0.38725  0.37588  1.0000
  H   H1034     1.0  0.91807  0.58382  0.39599  1.0000
  S   S272      1.0  0.92928  0.51111  0.45083  1.0000
  C   C646      1.0  0.91185  0.39711  0.07283  1.0000
  C   C647      1.0  0.02009  0.38621  0.18322  1.0000
  H   H1035     1.0  0.88855  0.42581  0.37853  1.0000
  C   C648      1.0  0.99337  0.37235  0.18337  1.0000
  H   H1036     1.0  0.99322  0.43792  0.19081  1.0000
  H   H1037     1.0  0.95359  0.43714  0.25532  1.0000
  H   H1038     1.0  0.01618  0.60067  0.37313  1.0000
  H   H1039     1.0  0.93221  0.39301  0.38750  1.0000
  C   C649      1.0  0.90099  0.37481  0.11410  1.0000
  S   S273      1.0  0.90823  0.68996  0.22358  1.0000
  H   H1040     1.0  0.91270  0.42354  0.38315  1.0000
  Fe  Fe138     1.0  0.93982  0.54968  0.37979  1.0000
  S   S274      1.0  0.94784  0.54724  0.44168  1.0000
  S   S275      1.0  0.95072  0.57246  0.34875  1.0000
  H   H1041     1.0  0.89225  0.62007  0.45815  1.0000
  H   H1042     1.0  0.93272  0.58408  0.47582  1.0000
  H   H1043     1.0  0.99332  0.56527  0.49057  1.0000
  S   S276      1.0  0.90891  0.55762  0.50779  1.0000
  H   H1044     1.0  0.88759  0.40682  0.43820  1.0000
  Fe  Fe139     1.0  0.92038  0.66165  0.24468  1.0000
  S   S277      1.0  0.94265  0.65748  0.19931  1.0000
  S   S278      1.0  0.90427  0.63979  0.25971  1.0000
  H   H1045     1.0  0.97602  0.63113  0.06192  1.0000
  H   H1046     1.0  0.97999  0.45977  0.28538  1.0000
  H   H1047     1.0  0.99102  0.59204  0.28667  1.0000
  Fe  Fe140     1.0  0.95814  0.66900  0.24404  1.0000
  S   S279      1.0  0.98714  0.65629  0.25467  1.0000
  H   H1048     1.0  0.99529  0.58599  0.33657  1.0000
  S   S280      1.0  0.93675  0.67123  0.29071  1.0000
  C   C650      1.0  0.00028  0.66510  0.21940  1.0000
  H   H1049     1.0  0.91175  0.40459  0.44247  1.0000
  C   C651      1.0  0.99188  0.67435  0.18712  1.0000
  C   C652      1.0  0.01889  0.53690  0.42665  1.0000
  H   H1050     1.0  0.97751  0.67536  0.18331  1.0000
  C   C653      1.0  0.00199  0.68260  0.16004  1.0000
  C   C654      1.0  0.99812  0.55315  0.47404  1.0000
  C   C655      1.0  0.01265  0.55264  0.44786  1.0000
  H   H1051     1.0  0.91948  0.66654  0.10831  1.0000
  C   C656      1.0  0.93497  0.59491  0.45464  1.0000
  H   H1052     1.0  0.89622  0.59788  0.40382  1.0000
  H   H1053     1.0  0.93070  0.61250  0.38661  1.0000
  H   H1054     1.0  0.99529  0.69049  0.13618  1.0000
  H   H1055     1.0  0.94203  0.60443  0.46982  1.0000
  H   H1056     1.0  0.00805  0.66067  0.09060  1.0000
  C   C657      1.0  0.96246  0.37256  0.06308  1.0000
  H   H1057     1.0  0.97494  0.43965  0.30866  1.0000
  C   C658      1.0  0.93741  0.59035  0.32238  1.0000
  C   C659      1.0  0.94567  0.60465  0.30898  1.0000
  C   C660      1.0  0.93559  0.61975  0.28957  1.0000
  C   C661      1.0  0.91709  0.62068  0.28342  1.0000
  C   C662      1.0  0.90877  0.60631  0.29660  1.0000
  C   C663      1.0  0.91892  0.59112  0.31599  1.0000
  H   H1058     1.0  0.95990  0.60409  0.31394  1.0000
  H   H1059     1.0  0.94216  0.63065  0.27926  1.0000
  H   H1060     1.0  0.89448  0.60691  0.29162  1.0000
  H   H1061     1.0  0.91248  0.58003  0.32576  1.0000
  H   H1062     1.0  0.90355  0.41728  0.33926  1.0000
  H   H1063     1.0  0.96163  0.43641  0.20620  1.0000
  H   H1064     1.0  0.90854  0.62556  0.39592  1.0000
  C   C664      1.0  0.97218  0.66218  0.10076  1.0000
  H   H1065     1.0  0.97795  0.53886  0.49766  1.0000
  C   C665      1.0  0.01534  0.61407  0.27850  1.0000
  C   C666      1.0  0.90184  0.41704  0.37129  1.0000
  C   C667      1.0  0.01898  0.66354  0.22394  1.0000
  Fe  Fe141     1.0  0.92671  0.69925  0.26610  1.0000
  H   H1066     1.0  0.97810  0.41117  0.27368  1.0000
  H   H1067     1.0  0.95922  0.65698  0.10071  1.0000
  H   H1068     1.0  0.87471  0.39803  0.37737  1.0000
  C   C668      1.0  0.92202  0.67296  0.08091  1.0000
  C   C669      1.0  0.92122  0.61853  0.41007  1.0000
  H   H1069     1.0  0.92747  0.62902  0.42408  1.0000
  Fe  Fe142     1.0  0.93214  0.68660  0.18223  1.0000
  H   H1070     1.0  0.98120  0.62460  0.30445  1.0000
  S   S281      1.0  0.94969  0.69786  0.22351  1.0000
  H   H1071     1.0  0.99590  0.63559  0.33138  1.0000
  H   H1072     1.0  0.90526  0.58076  0.43907  1.0000
  C   C670      1.0  0.90887  0.59117  0.41841  1.0000
  S   S282      1.0  0.91135  0.54608  0.39400  1.0000
  C   C671      1.0  0.90549  0.61289  0.46961  1.0000
  C   C672      1.0  0.98820  0.63764  0.06214  1.0000
  Fe  Fe143     1.0  0.92039  0.54137  0.45567  1.0000
  N   N67       1.0  0.91764  0.60441  0.43819  1.0000
  H   H1073     1.0  0.96679  0.38178  0.08420  1.0000
  H   H1074     1.0  0.92214  0.37290  0.38637  1.0000
  C   C673      1.0  0.91155  0.38602  0.04072  1.0000
  C   C674      1.0  0.02134  0.60587  0.34544  1.0000
  H   H1075     1.0  0.02574  0.61891  0.35133  1.0000
  S   S283      1.0  0.02227  0.41811  0.14452  1.0000
  H   H1076     1.0  0.97974  0.65617  0.12668  1.0000
  H   H1077     1.0  0.95638  0.51716  0.51345  1.0000
  H   H1078     1.0  0.90172  0.38460  0.44151  1.0000
  H   H1079     1.0  0.88906  0.37586  0.38034  1.0000
  C   C675      1.0  0.01118  0.37206  0.19479  1.0000
  H   H1080     1.0  0.94832  0.37850  0.05491  1.0000
  H   H1081     1.0  0.01464  0.40867  0.04823  1.0000
  H   H1082     1.0  0.02880  0.52617  0.51009  1.0000
  C   C676      1.0  0.93139  0.69769  0.04458  1.0000
  H   H1083     1.0  0.02697  0.60368  0.26811  1.0000
  H   H1084     1.0  0.00787  0.66262  0.03858  1.0000
  H   H1085     1.0  0.96797  0.67995  0.03196  1.0000
  C   C677      1.0  0.97194  0.66487  0.03114  1.0000
  H   H1086     1.0  0.95921  0.65929  0.03028  1.0000
  H   H1087     1.0  0.99626  0.63367  0.03524  1.0000
  H   H1088     1.0  0.02957  0.50527  0.69126  1.0000
  C   C678      1.0  0.90025  0.42113  0.92106  1.0000
  S   S284      1.0  0.93811  0.37998  0.94601  1.0000
  S   S285      1.0  0.92284  0.39770  0.83811  1.0000
  H   H1089     1.0  0.91229  0.41020  0.91636  1.0000
  H   H1090     1.0  0.00947  0.54437  0.73525  1.0000
  H   H1091     1.0  0.87189  0.39488  0.96055  1.0000
  H   H1092     1.0  0.88803  0.61162  0.94272  1.0000
  H   H1093     1.0  0.97602  0.52966  0.65470  1.0000
  H   H1094     1.0  0.93084  0.69606  0.98245  1.0000
  H   H1095     1.0  0.98514  0.45030  0.73281  1.0000
  C   C679      1.0  0.90135  0.51911  0.58775  1.0000
  H   H1096     1.0  0.02336  0.70013  0.81491  1.0000
  H   H1097     1.0  0.98134  0.47165  0.75684  1.0000
  H   H1098     1.0  0.98414  0.62906  0.82780  1.0000
  C   C680      1.0  0.99255  0.40738  0.92429  1.0000
  C   C681      1.0  0.98588  0.39281  0.94136  1.0000
  H   H1099     1.0  0.01221  0.42457  0.81156  1.0000
  C   C682      1.0  0.99014  0.53027  0.65773  1.0000
  H   H1100     1.0  0.98346  0.42020  0.91900  1.0000
  H   H1101     1.0  0.97167  0.39445  0.94924  1.0000
  C   C683      1.0  0.91338  0.54222  0.62095  1.0000
  S   S286      1.0  0.02285  0.56561  0.62936  1.0000
  C   C684      1.0  0.01488  0.70126  0.84184  1.0000
  H   H1102     1.0  0.86903  0.43646  0.95585  1.0000
  C   C685      1.0  0.92107  0.61528  0.91610  1.0000
  N   N68       1.0  0.88336  0.41368  0.92404  1.0000
  H   H1103     1.0  0.88146  0.41278  0.86212  1.0000
  H   H1104     1.0  0.97025  0.45379  0.77456  1.0000
  C   C686      1.0  0.90391  0.63873  0.87548  1.0000
  C   C687      1.0  0.88875  0.62437  0.92608  1.0000
  C   C688      1.0  0.94070  0.45287  0.83411  1.0000
  C   C689      1.0  0.92952  0.44836  0.80554  1.0000
  C   C690      1.0  0.92433  0.43127  0.80682  1.0000
  C   C691      1.0  0.93052  0.41853  0.83623  1.0000
  C   C692      1.0  0.94203  0.42290  0.86431  1.0000
  C   C693      1.0  0.94701  0.44008  0.86335  1.0000
  H   H1105     1.0  0.92459  0.45816  0.78295  1.0000
  H   H1106     1.0  0.91541  0.42795  0.78503  1.0000
  H   H1107     1.0  0.94697  0.41313  0.88695  1.0000
  H   H1108     1.0  0.95573  0.44350  0.88545  1.0000
  H   H1109     1.0  0.01428  0.61565  0.72289  1.0000
  C   C694      1.0  0.90701  0.52581  0.62205  1.0000
  C   C695      1.0  0.02035  0.51649  0.67796  1.0000
  H   H1110     1.0  0.98438  0.54140  0.77886  1.0000
  H   H1111     1.0  0.97771  0.52719  0.57905  1.0000
  N   N69       1.0  0.99867  0.44999  0.78708  1.0000
  S   S287      1.0  0.96450  0.51034  0.78342  1.0000
  S   S288      1.0  0.94693  0.53260  0.70719  1.0000
  C   C696      1.0  0.00197  0.51574  0.67481  1.0000
  H   H1112     1.0  0.90257  0.42837  0.94770  1.0000
  C   C697      1.0  0.97999  0.51259  0.57128  1.0000
  H   H1113     1.0  0.01063  0.50686  0.80856  1.0000
  N   N70       1.0  0.96269  0.50590  0.57029  1.0000
  Fe  Fe144     1.0  0.92590  0.51487  0.71242  1.0000
  S   S289      1.0  0.94561  0.48850  0.72103  1.0000
  S   S290      1.0  0.90573  0.51346  0.66570  1.0000
  C   C698      1.0  0.95033  0.51729  0.54303  1.0000
  H   H1114     1.0  0.93255  0.61284  0.89484  1.0000
  S   S291      1.0  0.01877  0.42359  0.89180  1.0000
  H   H1115     1.0  0.97245  0.64350  0.76652  1.0000
  H   H1116     1.0  0.98949  0.67463  0.94578  1.0000
  Fe  Fe145     1.0  0.96612  0.50648  0.71994  1.0000
  C   C699      1.0  0.01545  0.45432  0.76908  1.0000
  H   H1117     1.0  0.88593  0.40777  0.98514  1.0000
  C   C700      1.0  0.01823  0.54486  0.76060  1.0000
  C   C701      1.0  0.00061  0.43010  0.79262  1.0000
  S   S292      1.0  0.99370  0.49698  0.69370  1.0000
  H   H1118     1.0  0.02743  0.44965  0.78766  1.0000
  Fe  Fe146     1.0  0.93393  0.37620  0.88275  1.0000
  H   H1119     1.0  0.98473  0.63761  0.72205  1.0000
  H   H1120     1.0  0.91511  0.63714  0.85357  1.0000
  H   H1121     1.0  0.92387  0.62559  0.93674  1.0000
  H   H1122     1.0  0.89599  0.38939  0.95453  1.0000
  H   H1123     1.0  0.95068  0.52113  0.61932  1.0000
  C   C702      1.0  0.99537  0.45887  0.82500  1.0000
  H   H1124     1.0  0.91565  0.39048  0.01267  1.0000
  Fe  Fe147     1.0  0.94222  0.49434  0.78427  1.0000
  S   S293      1.0  0.94687  0.47442  0.83476  1.0000
  H   H1125     1.0  0.00300  0.42291  0.76466  1.0000
  H   H1126     1.0  0.98364  0.45473  0.84071  1.0000
  H   H1127     1.0  0.01465  0.41638  0.99853  1.0000
  C   C703      1.0  0.01084  0.40523  0.91328  1.0000
  H   H1128     1.0  0.95345  0.48141  0.55615  1.0000
  N   N71       1.0  0.01253  0.53453  0.79399  1.0000
  H   H1129     1.0  0.98708  0.51128  0.54256  1.0000
  H   H1130     1.0  0.98823  0.53423  0.82826  1.0000
  C   C704      1.0  0.98316  0.45669  0.76168  1.0000
  S   S294      1.0  0.92049  0.51929  0.77654  1.0000
  H   H1131     1.0  0.01430  0.46922  0.76384  1.0000
  H   H1132     1.0  0.89630  0.50649  0.58847  1.0000
  H   H1133     1.0  0.00257  0.59934  0.74583  1.0000
  C   C705      1.0  0.01243  0.68673  0.95783  1.0000
  C   C706      1.0  0.90215  0.52865  0.55250  1.0000
  H   H1134     1.0  0.00500  0.69649  0.97778  1.0000
  H   H1135     1.0  0.02080  0.63559  0.79542  1.0000
  H   H1136     1.0  0.86822  0.39871  0.88875  1.0000
  H   H1137     1.0  0.92121  0.60235  0.93269  1.0000
  C   C707      1.0  0.92213  0.67311  0.01033  1.0000
  C   C708      1.0  0.02258  0.38866  0.92005  1.0000
  C   C709      1.0  0.99334  0.54195  0.80391  1.0000
  H   H1138     1.0  0.01264  0.64573  0.75027  1.0000
  H   H1139     1.0  0.99993  0.65180  0.79450  1.0000
  N   N72       1.0  0.99822  0.62544  0.77305  1.0000
  H   H1140     1.0  0.91827  0.56490  0.58532  1.0000
  C   C710      1.0  0.00827  0.64036  0.77847  1.0000
  S   S295      1.0  0.94802  0.55741  0.81098  1.0000
  C   C711      1.0  0.98153  0.63229  0.75116  1.0000
  Fe  Fe148     1.0  0.94022  0.66034  0.82987  1.0000
  S   S296      1.0  0.95065  0.64692  0.88528  1.0000
  S   S297      1.0  0.93252  0.64290  0.78240  1.0000
  H   H1141     1.0  0.00562  0.61392  0.82922  1.0000
  S   S298      1.0  0.95631  0.68658  0.91348  1.0000
  Fe  Fe149     1.0  0.97202  0.66371  0.87910  1.0000
  S   S299      1.0  0.00102  0.64976  0.88426  1.0000
  Fe  Fe150     1.0  0.93380  0.67081  0.91439  1.0000
  S   S300      1.0  0.91872  0.66248  0.96690  1.0000
  S   S301      1.0  0.96294  0.67589  0.82162  1.0000
  S   S302      1.0  0.92141  0.68346  0.85922  1.0000
  C   C712      1.0  0.01287  0.66264  0.91204  1.0000
  H   H1142     1.0  0.97351  0.62141  0.74694  1.0000
  C   C713      1.0  0.00358  0.67456  0.93938  1.0000
  H   H1143     1.0  0.02418  0.69735  0.86639  1.0000
  C   C714      1.0  0.02674  0.53204  0.66504  1.0000
  H   H1144     1.0  0.94707  0.53172  0.55205  1.0000
  C   C715      1.0  0.91370  0.55203  0.58586  1.0000
  C   C716      1.0  0.95418  0.50685  0.60932  1.0000
  C   C717      1.0  0.01601  0.37423  0.93818  1.0000
  C   C718      1.0  0.01450  0.51517  0.78384  1.0000
  H   H1145     1.0  0.91750  0.54763  0.64733  1.0000
  H   H1146     1.0  0.99226  0.47394  0.82183  1.0000
  C   C719      1.0  0.99666  0.54548  0.64339  1.0000
  C   C720      1.0  0.01491  0.54649  0.64744  1.0000
  H   H1147     1.0  0.99133  0.55644  0.81243  1.0000
  H   H1148     1.0  0.98749  0.55660  0.62965  1.0000
  C   C721      1.0  0.94419  0.58086  0.79999  1.0000
  C   C722      1.0  0.93376  0.58871  0.76878  1.0000
  C   C723      1.0  0.93038  0.60777  0.76310  1.0000
  C   C724      1.0  0.93750  0.61896  0.78840  1.0000
  C   C725      1.0  0.94834  0.61090  0.81867  1.0000
  C   C726      1.0  0.95152  0.59203  0.82469  1.0000
  H   H1149     1.0  0.92803  0.58018  0.74952  1.0000
  H   H1150     1.0  0.92205  0.61385  0.73934  1.0000
  H   H1151     1.0  0.95442  0.61910  0.83747  1.0000
  H   H1152     1.0  0.95968  0.58604  0.84876  1.0000
  C   C727      1.0  0.96625  0.48686  0.55733  1.0000
  H   H1153     1.0  0.98647  0.60660  0.80844  1.0000
  H   H1154     1.0  0.86658  0.43854  0.90429  1.0000
  H   H1155     1.0  0.01853  0.44766  0.74064  1.0000
  N   N73       1.0  0.90356  0.62145  0.89670  1.0000
  H   H1156     1.0  0.89237  0.39197  0.88449  1.0000
  C   C728      1.0  0.90055  0.60751  0.86920  1.0000
  H   H1157     1.0  0.90042  0.59419  0.88404  1.0000
  H   H1158     1.0  0.89105  0.64367  0.85988  1.0000
  H   H1159     1.0  0.89078  0.63482  0.94724  1.0000
  C   C729      1.0  0.88432  0.40093  0.95752  1.0000
  H   H1160     1.0  0.98939  0.50478  0.59279  1.0000
  C   C730      1.0  0.88117  0.40390  0.88831  1.0000
  H   H1161     1.0  0.97562  0.47789  0.57714  1.0000
  H   H1162     1.0  0.93734  0.51233  0.54084  1.0000
  Fe  Fe151     1.0  0.94326  0.53504  0.77165  1.0000
  H   H1163     1.0  0.91146  0.60517  0.84646  1.0000
  H   H1164     1.0  0.90593  0.64965  0.89536  1.0000
  H   H1165     1.0  0.02235  0.60502  0.76758  1.0000
  H   H1166     1.0  0.00569  0.51349  0.75929  1.0000
  C   C731      1.0  0.99337  0.61839  0.81128  1.0000
  H   H1167     1.0  0.90001  0.43083  0.89609  1.0000
  H   H1168     1.0  0.94131  0.50145  0.60978  1.0000
  C   C732      1.0  0.99760  0.37626  0.94831  1.0000
  H   H1169     1.0  0.96333  0.49888  0.63104  1.0000
  H   H1170     1.0  0.88743  0.61166  0.85409  1.0000
  H   H1171     1.0  0.98825  0.42643  0.80668  1.0000
  H   H1172     1.0  0.01737  0.55941  0.76756  1.0000
  C   C733      1.0  0.00980  0.61067  0.75142  1.0000
  C   C734      1.0  0.90821  0.54521  0.55151  1.0000
  H   H1173     1.0  0.00591  0.69100  0.84084  1.0000
  H   H1174     1.0  0.97945  0.66132  0.00348  1.0000
  H   H1175     1.0  0.87533  0.62918  0.91255  1.0000
  H   H1176     1.0  0.00731  0.45509  0.84403  1.0000
  C   C735      1.0  0.86772  0.42875  0.92923  1.0000
  H   H1177     1.0  0.02009  0.52854  0.85313  1.0000
  C   C736      1.0  0.92846  0.68951  0.00974  1.0000
  C   C737      1.0  0.02402  0.53618  0.82739  1.0000
  C   C738      1.0  0.02226  0.40679  0.02015  1.0000
  H   H1178     1.0  0.02301  0.55062  0.83559  1.0000
  Fe  Fe152     1.0  0.94536  0.69784  0.85595  1.0000
  H   H1179     1.0  0.02206  0.39277  0.01029  1.0000
  H   H1180     1.0  0.02872  0.50930  0.77495  1.0000
  H   H1181     1.0  0.90678  0.76060  0.33012  1.0000
  H   H1182     1.0  0.92139  0.78767  0.32155  1.0000
  C   C739      1.0  0.92799  0.77468  0.31028  1.0000
  S   S303      1.0  0.91655  0.72399  0.30279  1.0000
  H   H1183     1.0  0.88790  0.81053  0.45494  1.0000
  H   H1184     1.0  0.99089  0.85695  0.37370  1.0000
  C   C740      1.0  0.92798  0.74254  0.29974  1.0000
  C   C741      1.0  0.94478  0.74102  0.28063  1.0000
  H   H1185     1.0  0.95153  0.72803  0.26986  1.0000
  C   C742      1.0  0.01892  0.84998  0.45054  1.0000
  C   C743      1.0  0.90229  0.85037  0.46784  1.0000
  H   H1186     1.0  0.91422  0.72370  0.17883  1.0000
  N   N74       1.0  0.00670  0.76868  0.31429  1.0000
  C   C744      1.0  0.94443  0.77326  0.28967  1.0000
  H   H1187     1.0  0.94442  0.73007  0.15608  1.0000
  H   H1188     1.0  0.98287  0.85776  0.45981  1.0000
  H   H1189     1.0  0.99367  0.76422  0.36880  1.0000
  C   C745      1.0  0.95283  0.75636  0.27508  1.0000
  C   C746      1.0  0.91974  0.75936  0.31507  1.0000
  C   C747      1.0  0.91235  0.73674  0.19445  1.0000
  C   C748      1.0  0.94118  0.74318  0.17160  1.0000
  H   H1190     1.0  0.92247  0.76553  0.22499  1.0000
  H   H1191     1.0  0.97876  0.87681  0.42662  1.0000
  H   H1192     1.0  0.01554  0.79191  0.33736  1.0000
  H   H1193     1.0  0.01350  0.84359  0.37543  1.0000
  H   H1194     1.0  0.99197  0.87772  0.46913  1.0000
  C   C749      1.0  0.88098  0.91065  0.33824  1.0000
  H   H1195     1.0  0.91795  0.73356  0.22377  1.0000
  H   H1196     1.0  0.91222  0.84970  0.44328  1.0000
  C   C750      1.0  0.91775  0.76748  0.19466  1.0000
  H   H1197     1.0  0.91494  0.80603  0.49590  1.0000
  H   H1198     1.0  0.01383  0.77697  0.25693  1.0000
  N   N75       1.0  0.92139  0.75013  0.17371  1.0000
  H   H1199     1.0  0.96558  0.75512  0.25924  1.0000
  N   N76       1.0  0.89915  0.83208  0.47942  1.0000
  C   C751      1.0  0.89052  0.82432  0.44739  1.0000
  C   C752      1.0  0.95984  0.83211  0.49149  1.0000
  C   C753      1.0  0.91425  0.75305  0.13413  1.0000
  C   C754      1.0  0.94044  0.85764  0.52212  1.0000
  C   C755      1.0  0.01385  0.87579  0.40619  1.0000
  C   C756      1.0  0.88018  0.88028  0.36368  1.0000
  H   H1200     1.0  0.92314  0.82522  0.51353  1.0000
  H   H1201     1.0  0.01745  0.88494  0.42850  1.0000
  C   C757      1.0  0.94914  0.84949  0.48900  1.0000
  H   H1202     1.0  0.01790  0.74180  0.33576  1.0000
  H   H1203     1.0  0.90298  0.77332  0.19611  1.0000
  H   H1204     1.0  0.91693  0.74014  0.11768  1.0000
  Fe  Fe153     1.0  0.95564  0.83131  0.39454  1.0000
  S   S304      1.0  0.94197  0.85995  0.38121  1.0000
  S   S305      1.0  0.96984  0.82133  0.44969  1.0000
  Fe  Fe154     1.0  0.94724  0.81738  0.31646  1.0000
  S   S306      1.0  0.93274  0.84498  0.29607  1.0000
  S   S307      1.0  0.95443  0.79236  0.27960  1.0000
  Fe  Fe155     1.0  0.95583  0.85526  0.32314  1.0000
  S   S308      1.0  0.96763  0.87822  0.29642  1.0000
  Fe  Fe156     1.0  0.92007  0.84746  0.35572  1.0000
  S   S309      1.0  0.89030  0.85719  0.37141  1.0000
  S   S310      1.0  0.97133  0.82762  0.33859  1.0000
  S   S311      1.0  0.93277  0.81883  0.37391  1.0000
  C   C758      1.0  0.02813  0.87770  0.27410  1.0000
  C   C759      1.0  0.00179  0.77786  0.27669  1.0000
  H   H1205     1.0  0.94846  0.75296  0.15629  1.0000
  H   H1206     1.0  0.87739  0.83313  0.43940  1.0000
  H   H1207     1.0  0.02632  0.74725  0.28892  1.0000
  H   H1208     1.0  0.01899  0.90491  0.25205  1.0000
  H   H1209     1.0  0.92070  0.76314  0.11762  1.0000
  H   H1210     1.0  0.92484  0.77778  0.18072  1.0000
  C   C760      1.0  0.99102  0.87728  0.28766  1.0000
  H   H1211     1.0  0.98415  0.78511  0.34408  1.0000
  H   H1212     1.0  0.99574  0.83753  0.40573  1.0000
  H   H1213     1.0  0.99995  0.84957  0.30702  1.0000
  C   C761      1.0  0.00413  0.86181  0.29624  1.0000
  H   H1214     1.0  0.89750  0.74178  0.19809  1.0000
  H   H1215     1.0  0.99153  0.77168  0.26175  1.0000
  C   C762      1.0  0.88957  0.89246  0.34472  1.0000
  H   H1216     1.0  0.97981  0.76397  0.32727  1.0000
  H   H1217     1.0  0.88831  0.91994  0.32321  1.0000
  H   H1218     1.0  0.90342  0.88784  0.33472  1.0000
  C   C763      1.0  0.99041  0.77056  0.33980  1.0000
  H   H1219     1.0  0.00389  0.74240  0.29406  1.0000
  H   H1220     1.0  0.90761  0.85714  0.49211  1.0000
  H   H1221     1.0  0.99584  0.79253  0.28031  1.0000
  H   H1222     1.0  0.88955  0.85938  0.45822  1.0000
  H   H1223     1.0  0.94757  0.85673  0.46166  1.0000
  C   C764      1.0  0.01401  0.74918  0.30805  1.0000
  C   C765      1.0  0.99654  0.89275  0.27177  1.0000
  H   H1224     1.0  0.98648  0.90469  0.26478  1.0000
  C   C766      1.0  0.02059  0.77715  0.33258  1.0000
  C   C767      1.0  0.02272  0.86211  0.29002  1.0000
  H   H1225     1.0  0.94702  0.74062  0.20086  1.0000
  C   C768      1.0  0.01496  0.89289  0.26459  1.0000
  N   N77       1.0  0.00581  0.86093  0.42399  1.0000
  H   H1226     1.0  0.00437  0.88416  0.38557  1.0000
  H   H1227     1.0  0.92647  0.81935  0.46360  1.0000
  C   C769      1.0  0.91667  0.82014  0.48845  1.0000
  H   H1228     1.0  0.93618  0.71045  0.04388  1.0000
  H   H1229     1.0  0.89931  0.75806  0.13458  1.0000
  C   C770      1.0  0.98910  0.86869  0.44584  1.0000
  H   H1230     1.0  0.01336  0.83849  0.46401  1.0000
  C   C771      1.0  0.00131  0.84921  0.39332  1.0000
  H   H1231     1.0  0.93214  0.87111  0.52004  1.0000
  H   H1232     1.0  0.89926  0.82314  0.42082  1.0000
  H   H1233     1.0  0.02466  0.77060  0.36104  1.0000
  H   H1234     1.0  0.02241  0.85838  0.47440  1.0000
  H   H1235     1.0  0.02659  0.87038  0.38977  1.0000
  C   C772      1.0  0.88714  0.83352  0.51409  1.0000
  H   H1236     1.0  0.87383  0.84252  0.50840  1.0000
  H   H1237     1.0  0.88449  0.81997  0.52370  1.0000
  C   C773      1.0  0.96213  0.82306  0.52746  1.0000
  H   H1238     1.0  0.98399  0.73863  0.81568  1.0000
  H   H1239     1.0  0.89238  0.94188  0.72613  1.0000
  C   C774      1.0  0.93363  0.73630  0.77698  1.0000
  C   C775      1.0  0.86500  0.93199  0.76735  1.0000
  S   S312      1.0  0.94733  0.72769  0.85033  1.0000
  C   C776      1.0  0.87117  0.87844  0.73245  1.0000
  C   C777      1.0  0.94201  0.74188  0.80909  1.0000
  C   C778      1.0  0.02174  0.87135  0.73028  1.0000
  H   H1240     1.0  0.93033  0.72285  0.77677  1.0000
  H   H1241     1.0  0.01262  0.82279  0.82299  1.0000
  H   H1242     1.0  0.02581  0.73250  0.82325  1.0000
  N   N78       1.0  0.00426  0.71984  0.84652  1.0000
  H   H1243     1.0  0.86444  0.93972  0.69105  1.0000
  C   C779      1.0  0.99298  0.72048  0.88222  1.0000
  H   H1244     1.0  0.95271  0.76380  0.83367  1.0000
  H   H1245     1.0  0.88471  0.96604  0.72995  1.0000
  C   C780      1.0  0.93332  0.76588  0.74521  1.0000
  C   C781      1.0  0.88409  0.95267  0.74414  1.0000
  C   C782      1.0  0.94207  0.77127  0.77699  1.0000
  S   S313      1.0  0.92644  0.78099  0.70607  1.0000
  C   C783      1.0  0.92921  0.74832  0.74524  1.0000
  C   C784      1.0  0.94622  0.75939  0.80893  1.0000
  H   H1246     1.0  0.87256  0.92067  0.74958  1.0000
  H   H1247     1.0  0.89902  0.80986  0.74175  1.0000
  H   H1248     1.0  0.92249  0.74404  0.72067  1.0000
  H   H1249     1.0  0.01814  0.84282  0.80072  1.0000
  H   H1250     1.0  0.98281  0.71522  0.80995  1.0000
  H   H1251     1.0  0.00151  0.71747  0.90836  1.0000
  Fe  Fe157     1.0  0.93213  0.84383  0.65504  1.0000
  S   S314      1.0  0.93255  0.86191  0.70590  1.0000
  S   S315      1.0  0.92858  0.85795  0.59678  1.0000
  Fe  Fe158     1.0  0.93061  0.81027  0.70612  1.0000
  S   S316      1.0  0.93069  0.82590  0.76051  1.0000
  Fe  Fe159     1.0  0.91092  0.84795  0.73084  1.0000
  S   S317      1.0  0.88523  0.86203  0.76114  1.0000
  Fe  Fe160     1.0  0.95238  0.83830  0.73013  1.0000
  S   S318      1.0  0.97667  0.84109  0.76538  1.0000
  S   S319      1.0  0.90910  0.83146  0.67851  1.0000
  S   S320      1.0  0.95374  0.82108  0.67728  1.0000
  C   C785      1.0  0.88613  0.80502  0.74771  1.0000
  C   C786      1.0  0.00865  0.87855  0.75801  1.0000
  C   C787      1.0  0.01678  0.73282  0.84933  1.0000
  C   C788      1.0  0.89845  0.79020  0.80647  1.0000
  H   H1252     1.0  0.01041  0.89019  0.77444  1.0000
  C   C789      1.0  0.88131  0.82089  0.80807  1.0000
  C   C790      1.0  0.02338  0.83118  0.82036  1.0000
  C   C791      1.0  0.86499  0.89540  0.67204  1.0000
  C   C792      1.0  0.99166  0.85462  0.74620  1.0000
  C   C793      1.0  0.99380  0.87008  0.76628  1.0000
  H   H1253     1.0  0.86701  0.78233  0.78305  1.0000
  H   H1254     1.0  0.98439  0.87505  0.78948  1.0000
  C   C794      1.0  0.94195  0.84827  0.55769  1.0000
  C   C795      1.0  0.95303  0.83106  0.56055  1.0000
  H   H1255     1.0  0.90046  0.77667  0.79254  1.0000
  H   H1256     1.0  0.95432  0.82378  0.58800  1.0000
  H   H1257     1.0  0.00921  0.74701  0.85240  1.0000
  H   H1258     1.0  0.88731  0.79184  0.73265  1.0000
  C   C796      1.0  0.87633  0.88230  0.69457  1.0000
  H   H1259     1.0  0.89652  0.78804  0.83807  1.0000
  C   C797      1.0  0.99242  0.72478  0.81284  1.0000
  H   H1260     1.0  0.88906  0.87515  0.68253  1.0000
  H   H1261     1.0  0.91134  0.79539  0.80222  1.0000
  H   H1262     1.0  0.98416  0.73409  0.88586  1.0000
  N   N79       1.0  0.88298  0.80299  0.78974  1.0000
  C   C798      1.0  0.01929  0.85631  0.70901  1.0000
  H   H1263     1.0  0.02506  0.83686  0.84919  1.0000
  H   H1264     1.0  0.89386  0.82666  0.80336  1.0000
  H   H1265     1.0  0.89077  0.95232  0.77264  1.0000
  H   H1266     1.0  0.86995  0.83102  0.79570  1.0000
  N   N80       1.0  0.86516  0.94990  0.74861  1.0000
  C   C799      1.0  0.00417  0.84803  0.71679  1.0000
  H   H1267     1.0  0.87510  0.81505  0.73406  1.0000
  H   H1268     1.0  0.00044  0.72461  0.78538  1.0000
  H   H1269     1.0  0.94545  0.78469  0.77715  1.0000
  H   H1270     1.0  0.86911  0.89824  0.64274  1.0000
  H   H1271     1.0  0.00275  0.83594  0.70151  1.0000
  H   H1272     1.0  0.87890  0.81998  0.83981  1.0000
  H   H1273     1.0  0.87137  0.93090  0.79627  1.0000
  H   H1274     1.0  0.89337  0.83930  0.53881  1.0000
  H   H1275     1.0  0.98382  0.71040  0.88172  1.0000
  H   H1276     1.0  0.02571  0.72962  0.87490  1.0000
  C   C800      1.0  0.86610  0.79586  0.79652  1.0000
  H   H1277     1.0  0.02716  0.80376  0.77071  1.0000
  H   H1278     1.0  0.02919  0.85084  0.68709  1.0000
  H   H1279     1.0  0.97051  0.80963  0.52958  1.0000
  H   H1280     1.0  0.86326  0.79419  0.82797  1.0000
