data_image0
_chemical_formula_structural       FeS2FeS2FeSFeS3FeS2FeS2FeSFeS3FeS2FeS2FeSFeS3FeS2FeS2FeSFeS3FeS2FeS2FeSFeS3FeS2FeS2FeSFeS3FeS2FeS2FeSFeS3FeS2FeS2FeSFeS3FeS2FeS2FeSFeS3FeS2FeS2FeSFeS3FeS2FeS2FeSFeS3FeS2FeS2FeSFeS3FeS2FeS2FeSFeS3FeS2FeS2FeSFeS3FeS2FeS2FeSFeS3FeS2FeS2FeSFeS3C6H4C6H4C6H4C6H4C6H4C6H4C6H4C6H4C6H4C6H4C6H4C6H4C6H4C6H4C6H4C6H4C6H4C6H4C6H4C6H4C6H4C6H4C6H4C6H4C6H4C6H4C6H4C6H4C6H4C6H4C6H4C6H4FeS2FeS2FeSFeS3FeS2FeS2FeSFeS3FeS2FeS2FeSFeS3FeS2FeS2FeSFeS3FeS2FeS2FeSFeS3FeS2FeS2FeSFeS3FeS2FeS2FeSFeS3FeS2FeS2FeSFeS3FeS2FeS2FeSFeS3FeS2FeS2FeSFeS3FeS2FeS2FeSFeS3FeS2FeS2FeSFeS3FeS2FeS2FeSFeS3FeS2FeS2FeSFeS3FeS2FeS2FeSFeS3FeS2FeS2FeSFeS3C6H4C6H4C6H4C6H4C6H4C6H4C6H4C6H4C6H4C6H4C6H4C6H4C6H4C6H4C6H4C6H4C6H4C6H4C6H4C6H4C6H4C6H4C6H4C6H4C6H4C6H4C6H4C6H4C6H4C6H4C6H4C6H4NC4H12NC4H12NC4H12NC4H12NC4H12NC4H12NC4H12NC4H12NC4H12NC4H12NC4H12NC4H12NC4H12NC4H12NC4H12NC4H12NC4H12NC4H12NC4H12NC4H12NC4H12NC4H12NC4H12NC4H12NC4H12NC4H12NC4H12NC4H12NC4H12NC4H12NC4H12NC4H12NC4H12NC4H12NC4H12NC4H12NC4H12NC4H12NC4H12NC4H12NC4H12NC4H12NC4H12NC4H12NC4H12NC4H12NC4H12NC4H12NC4H12NC4H12NC4H12NC4H12NC4H12NC4H12NC4H12NC4H12NC4H12NC4H12NC4H12NC4H12NC4H12NC4H12NC4H12NC4H12
_chemical_formula_sum              "Fe128 S256 C640 H1024 N64"
_cell_length_a       67.70269060648579
_cell_length_b       41.67648565813842
_cell_length_c       27.173038914832297
_cell_angle_alpha    90.07985682482835
_cell_angle_beta     90.1089778827078
_cell_angle_gamma    90.08631670064797

_space_group_name_H-M_alt    "P 1"
_space_group_IT_number       1

loop_
  _space_group_symop_operation_xyz
  'x, y, z'

loop_
  _atom_site_type_symbol
  _atom_site_label
  _atom_site_symmetry_multiplicity
  _atom_site_fract_x
  _atom_site_fract_y
  _atom_site_fract_z
  _atom_site_occupancy
  Fe  Fe1       1.0  0.2917827555647788  0.23020501286991477  0.3708040728239901  1.0000
  S   S1        1.0  0.30843210522682435  0.2049185220702533  0.31117212438706054  1.0000
  S   S2        1.0  0.2623404831865856  0.2508232028968669  0.34918524339906476  1.0000
  Fe  Fe2       1.0  0.32433326995243006  0.21997317869826188  0.4460001568357566  1.0000
  S   S3        1.0  0.3438270964685084  0.19405876499855063  0.3924006823714734  1.0000
  S   S4        1.0  0.33133115059880075  0.22629468920398071  0.5264627003975499  1.0000
  Fe  Fe3       1.0  0.3344682265342859  0.2326638643850203  0.33966518521408245  1.0000
  S   S5        1.0  0.353953029362318  0.2551483179834934  0.2823959167008395  1.0000
  Fe  Fe4       1.0  0.31605714720246203  0.16884348654376174  0.36902271268487646  1.0000
  S   S6        1.0  0.31579260987169583  0.11493655974525464  0.361454026963465  1.0000
  S   S7        1.0  0.3171716528278364  0.26081144779244664  0.39517921996120764  1.0000
  S   S8        1.0  0.29715121405690936  0.1917104970068301  0.4268161126776835  1.0000
  Fe  Fe5       1.0  0.321425880346494  0.47902917063674305  0.14853528123125867  1.0000
  S   S9        1.0  0.3089833676399504  0.447204897275832  0.08950980146005616  1.0000
  S   S10       1.0  0.3158272243800227  0.5316062970629414  0.13794632094543194  1.0000
  Fe  Fe6       1.0  0.33644630948770365  0.4230351356799539  0.20909033995207607  1.0000
  S   S11       1.0  0.32528089631101786  0.3868856025550899  0.15481845546383083  1.0000
  S   S12       1.0  0.3489684753761305  0.40640913422903324  0.2813440093160601  1.0000
  Fe  Fe7       1.0  0.33747844174498076  0.4204336988794247  0.09792168451909067  1.0000
  S   S13       1.0  0.3528815770374285  0.39914118147470545  0.03242238362324956  1.0000
  Fe  Fe8       1.0  0.29822561559193683  0.4172801621221861  0.1521490611426953  1.0000
  S   S14       1.0  0.26810829481544585  0.39513591195011966  0.15685016238530114  1.0000
  S   S15       1.0  0.3509665325276842  0.45456674436436256  0.1525401691632844  1.0000
  S   S16       1.0  0.30824624970699516  0.4512069693047391  0.2108613605679456  1.0000
  Fe  Fe9       1.0  0.1239424210883505  0.1931407025812612  0.4822809594137342  1.0000
  S   S17       1.0  0.11146168002857534  0.23026624136355034  0.43147490499543417  1.0000
  S   S18       1.0  0.10269147906776732  0.15640917697806328  0.5124340090326542  1.0000
  Fe  Fe10      1.0  0.16525301277217402  0.2196709675932407  0.4742243805772172  1.0000
  S   S19       1.0  0.15648186237588407  0.2586961628426263  0.4218877491006776  1.0000
  S   S20       1.0  0.19622881820326976  0.2111105893677269  0.5007387063859254  1.0000
  Fe  Fe11      1.0  0.13057265049258315  0.2653411083468302  0.47207806702641425  1.0000
  S   S21       1.0  0.11884112732206982  0.31560201031296525  0.4809973174083541  1.0000
  Fe  Fe12      1.0  0.13818148242168146  0.22059759416202826  0.38551584322988675  1.0000
  S   S22       1.0  0.1382100414546152  0.2145266905334971  0.3032078870546117  1.0000
  S   S23       1.0  0.14066240328234828  0.22913401577178427  0.5279111783851982  1.0000
  S   S24       1.0  0.14934989548863445  0.18085874429849225  0.43307171766013586  1.0000
  Fe  Fe13      1.0  0.052140647679645324  0.20598227991129808  0.0247457654405101  1.0000
  S   S25       1.0  0.029683994945787218  0.2228331161250264  0.07881028751436812  1.0000
  S   S26       1.0  0.04939644725370784  0.15667706587148109  0.9925913354643838  1.0000
  Fe  Fe14      1.0  0.07488117853127263  0.26820773776327683  0.028862314712206016  1.0000
  S   S27       1.0  0.05418297464162514  0.29088218711939184  0.08322441837495065  1.0000
  S   S28       1.0  0.10118624379070629  0.2946657626337176  0.9995711892344542  1.0000
  Fe  Fe15      1.0  0.055533290812288305  0.24280281616341465  0.12015470939839175  1.0000
  S   S29       1.0  0.05541301922984143  0.23623025506891124  0.20198080521143447  1.0000
  Fe  Fe16      1.0  0.03037559714392457  0.26895365683303657  0.036796794719163195  1.0000
  S   S30       1.0  0.0024867248292501642  0.2939875194457904  0.013518856592388495  1.0000
  S   S31       1.0  0.07819116642586899  0.22171577823578673  0.06948743759813514  1.0000
  S   S32       1.0  0.050904637523072394  0.25042357090817563  0.9787450089340485  1.0000
  Fe  Fe17      1.0  0.17639275074324784  0.47865983400548934  0.14164600306422281  1.0000
  S   S33       1.0  0.1481295006360089  0.4698203764349832  0.1818808309124507  1.0000
  S   S34       1.0  0.20298819248605568  0.5014394130094767  0.17683323783692928  1.0000
  Fe  Fe18      1.0  0.15969749647771006  0.4560327363365584  0.04405414134963914  1.0000
  S   S35       1.0  0.12980281078997266  0.44530595541961143  0.0755695561648897  1.0000
  S   S36       1.0  0.16737132907979133  0.4485616387915399  0.9645464107467188  1.0000
  Fe  Fe19      1.0  0.13384090182413635  0.49183813358550726  0.11559077654862504  1.0000
  S   S37       1.0  0.10951552537423967  0.5271974109884916  0.12835318990649158  1.0000
  Fe  Fe20      1.0  0.14685104225635087  0.42415913041770303  0.138392150547765  1.0000
  S   S38       1.0  0.13721718228146945  0.37766859909124106  0.17214561990754684  1.0000
  S   S39       1.0  0.1623373639010697  0.5045886259991944  0.07873923081640366  1.0000
  S   S40       1.0  0.17651555956735168  0.4308399342348605  0.10347012860767646  1.0000
  Fe  Fe21      1.0  0.9141784336660878  0.4059354404384012  0.8836638132099273  1.0000
  S   S41       1.0  0.9380462241362173  0.39864175992127515  0.8280944036754218  1.0000
  S   S42       1.0  0.9143594661849878  0.37279089990424136  0.9487082030056803  1.0000
  Fe  Fe22      1.0  0.8977891386614395  0.4641921661463598  0.8302785378660111  1.0000
  S   S43       1.0  0.9202829252083253  0.4621167818001814  0.7698218581080015  1.0000
  S   S44       1.0  0.8726411912945224  0.49891541981859666  0.8343112512223023  1.0000
  Fe  Fe23      1.0  0.9144369090836937  0.4089879876490991  0.7723717730103872  1.0000
  S   S45       1.0  0.9081860724012367  0.3748177954961851  0.7103998310358141  1.0000
  Fe  Fe24      1.0  0.9417164911925213  0.45205360193138794  0.8315041857518765  1.0000
  S   S46       1.0  0.9715470272435611  0.4735221951721201  0.8477969109674789  1.0000
  S   S47       1.0  0.8901954548513017  0.4120007577217339  0.8278525928858337  1.0000
  S   S48       1.0  0.9195730560151724  0.45863837072606206  0.8918319007245908  1.0000
  Fe  Fe25      1.0  0.9173381712672481  0.18992799706152708  0.031102326683466464  1.0000
  S   S49       1.0  0.9274222955963514  0.19707912137643685  0.9532836127465684  1.0000
  S   S50       1.0  0.9320326578328094  0.21214813736772456  0.09704995135822903  1.0000
  Fe  Fe26      1.0  0.885356272548185  0.14273295898544572  0.001960841065339336  1.0000
  S   S51       1.0  0.8922266163610721  0.1461520528023235  0.9215224597631939  1.0000
  S   S52       1.0  0.8612729651300074  0.11067340747938476  0.030138312032300885  1.0000
  Fe  Fe27      1.0  0.923921824052253  0.14388262394218176  0.9458152714318675  1.0000
  S   S53       1.0  0.9484566915806105  0.11282629702869497  0.9168807409701245  1.0000
  Fe  Fe28      1.0  0.8949991279915134  0.19897091791845262  0.9363998621022548  1.0000
  S   S54       1.0  0.8827572541456762  0.236760847308597  0.886226168817143  1.0000
  S   S55       1.0  0.9167714052079308  0.13643258662235766  0.02521105903495724  1.0000
  S   S56       1.0  0.88514234249817  0.1958413008262332  0.014980100094047932  1.0000
  Fe  Fe29      1.0  0.10260310399833217  0.4903779753905688  0.6522666919309534  1.0000
  S   S57       1.0  0.08231351925007968  0.4500625582226972  0.6322275048562671  1.0000
  S   S58       1.0  0.11941018542319237  0.5111143153990996  0.5883699103125271  1.0000
  Fe  Fe30      1.0  0.09405403710118776  0.4835579232261018  0.7611875180513783  1.0000
  S   S59       1.0  0.07327080490190752  0.44210893069487417  0.750266702714432  1.0000
  S   S60       1.0  0.09727112153514272  0.5042735646654427  0.8373738910468522  1.0000
  Fe  Fe31      1.0  0.0957860089872451  0.42427146370316465  0.6961090999874703  1.0000
  S   S61       1.0  0.10686564808305321  0.37315904679590167  0.6946963322267652  1.0000
  Fe  Fe32      1.0  0.06165334610240247  0.4714031813423754  0.6873999427439929  1.0000
  S   S62       1.0  0.029794127524052527  0.47707407856021994  0.6660478293703025  1.0000
  S   S63       1.0  0.11775729348629818  0.46320629194292223  0.7126152987725176  1.0000
  S   S64       1.0  0.0806991805433015  0.514292640345811  0.7020054831475855  1.0000
  Fe  Fe33      1.0  0.43578683736940527  0.4486922292150773  0.8731171805884492  1.0000
  S   S65       1.0  0.41770093876300735  0.440559382152727  0.8053599258396477  1.0000
  S   S66       1.0  0.42331645152752057  0.4766307180140526  0.9366476607660064  1.0000
  Fe  Fe34      1.0  0.47093920074943724  0.41309004826464857  0.8328149471811299  1.0000
  S   S67       1.0  0.45611718560598336  0.4014470003327358  0.7609497610812777  1.0000
  S   S68       1.0  0.5014555766730275  0.3970525921862134  0.853110367055161  1.0000
  Fe  Fe35      1.0  0.44539600662588846  0.4523190689047727  0.7642992288784215  1.0000
  S   S69       1.0  0.4413018262341986  0.48164648367778207  0.6958125433630623  1.0000
  Fe  Fe36      1.0  0.429763716969076  0.39074353393953226  0.8078264406821909  1.0000
  S   S70       1.0  0.4094820000724699  0.3494272275089831  0.7934381896456248  1.0000
  S   S71       1.0  0.46268685584356195  0.46513025653018447  0.8320713025072957  1.0000
  S   S72       1.0  0.4454891008618759  0.3975540815218352  0.8795823743633064  1.0000
  Fe  Fe37      1.0  0.42703488059148664  0.18407023029107908  0.6459535177771584  1.0000
  S   S73       1.0  0.4105805562065065  0.19045949509563628  0.7167362176441857  1.0000
  S   S74       1.0  0.42173565553451686  0.21355078481026282  0.5781485834760988  1.0000
  Fe  Fe38      1.0  0.4531258053251347  0.13114525445830735  0.6873893088129792  1.0000
  S   S75       1.0  0.43898790819443134  0.133200609732217  0.7613683158878308  1.0000
  S   S76       1.0  0.47834626927516605  0.09689539770874943  0.6805146115601222  1.0000
  Fe  Fe39      1.0  0.4107864673204001  0.13655909716512665  0.718584543412221  1.0000
  S   S77       1.0  0.38525086017728116  0.10569529138052845  0.741231736710578  1.0000
  Fe  Fe40      1.0  0.44050099747647453  0.18633692659337428  0.7520950087174633  1.0000
  S   S78       1.0  0.4550089713025206  0.21853670191880267  0.8072705466985504  1.0000
  S   S79       1.0  0.4248712519557074  0.1304020501672812  0.6445993545566647  1.0000
  S   S80       1.0  0.4569113459688886  0.18431147362419248  0.6811231491485302  1.0000
  Fe  Fe41      1.0  0.5931635048119399  0.4464343703666945  0.10559070022237727  1.0000
  S   S81       1.0  0.6057218556431231  0.3967567968414865  0.10118313892803954  1.0000
  S   S82       1.0  0.6146703350696909  0.48681855151918796  0.11804592969304095  1.0000
  Fe  Fe42      1.0  0.5511339734282378  0.42292653770471234  0.09029800225822515  1.0000
  S   S83       1.0  0.5600719119066929  0.37116043461517817  0.08724901289755826  1.0000
  S   S84       1.0  0.5198290418005673  0.4371439242853065  0.07316244330900767  1.0000
  Fe  Fe43      1.0  0.5803075847425891  0.38355662110218713  0.1497615697055421  1.0000
  S   S85       1.0  0.5870714170827989  0.3515490476888537  0.21400706017083748  1.0000
  Fe  Fe44      1.0  0.5843874516767826  0.3894701026884932  0.03924627111751988  1.0000
  S   S86       1.0  0.5904184963271459  0.3657376246660858  0.9669749181874701  1.0000
  S   S87       1.0  0.5689508828981296  0.4339020797379111  0.15838677936024848  1.0000
  S   S88       1.0  0.5743928887207179  0.44053444019998333  0.03824680888801768  1.0000
  Fe  Fe45      1.0  0.6677396883127803  0.39313467548965453  0.6873736517493023  1.0000
  S   S89       1.0  0.6438594729415211  0.40754155648126283  0.6347834208974019  1.0000
  S   S90       1.0  0.6902969714715044  0.35757476654657433  0.6613061174385061  1.0000
  Fe  Fe46      1.0  0.6506828232563332  0.4331700136184262  0.7703388972767145  1.0000
  S   S91       1.0  0.6255247261646837  0.45147086872098263  0.7247873212443581  1.0000
  S   S92       1.0  0.6529712203847285  0.44708595046258676  0.8498119642576191  1.0000
  Fe  Fe47      1.0  0.6234747824215863  0.4004120707126697  0.6989019659131948  1.0000
  S   S93       1.0  0.5943234416130421  0.3750104160023199  0.6905016303817186  1.0000
  Fe  Fe48      1.0  0.6483505733574216  0.4569152666827572  0.6655634888883194  1.0000
  S   S94       1.0  0.6539819433061148  0.4996629004678538  0.6174776533450376  1.0000
  S   S95       1.0  0.6471177867585148  0.38154326029544977  0.7487257315452284  1.0000
  S   S96       1.0  0.6738340660572604  0.44316568230687875  0.7136861551596476  1.0000
  Fe  Fe49      1.0  0.5733243910045612  0.1766840510502003  0.635109968297707  1.0000
  S   S97       1.0  0.5753705108747231  0.16371185213373168  0.7149694847895225  1.0000
  S   S98       1.0  0.5450233675727314  0.1852694995251606  0.5950624439244294  1.0000
  Fe  Fe50      1.0  0.6173456229548714  0.18046914217673  0.6219552766618767  1.0000
  S   S99       1.0  0.6237933965988565  0.16767813043957192  0.7005473626451066  1.0000
  S   S100      1.0  0.6401581794589299  0.19328153879861387  0.5657486412114096  1.0000
  Fe  Fe51      1.0  0.599783971407607  0.13107315785934331  0.6902575011748658  1.0000
  S   S101      1.0  0.6009895943844135  0.08077394712470888  0.7195355938284131  1.0000
  Fe  Fe52      1.0  0.5989229265978845  0.2013589737750808  0.7182294533503769  1.0000
  S   S102      1.0  0.6010703083260186  0.23666155204016623  0.7806571327155793  1.0000
  S   S103      1.0  0.595535935694834  0.14069761518706042  0.6098165703348082  1.0000
  S   S104      1.0  0.594735979257935  0.21734179290591618  0.6403276383006269  1.0000
  Fe  Fe53      1.0  0.842680297425037  0.12749879154756202  0.2950746974238263  1.0000
  S   S105      1.0  0.8453192754473609  0.15675052239535137  0.3641100033060255  1.0000
  S   S106      1.0  0.8697945931771822  0.10681901421807209  0.26034681479269456  1.0000
  Fe  Fe54      1.0  0.7987237339695016  0.13822875480056152  0.2855433153587572  1.0000
  S   S107      1.0  0.7972281241023692  0.16875638954706257  0.3534951868666227  1.0000
  S   S108      1.0  0.7728231927282416  0.12838781410419076  0.235941214392137  1.0000
  Fe  Fe55      1.0  0.8252064514436673  0.19130087800241255  0.3256870727292438  1.0000
  S   S109      1.0  0.831168147098568  0.24442631381412855  0.32099493983320077  1.0000
  Fe  Fe56      1.0  0.8174109652910362  0.13138878914827215  0.3858009100683559  1.0000
  S   S110      1.0  0.811614311054401  0.11144060213443724  0.4611846625531701  1.0000
  S   S111      1.0  0.8248794939483571  0.16414056016200446  0.25464447898596715  1.0000
  S   S112      1.0  0.816506790128922  0.09887756770162716  0.31997006960101115  1.0000
  Fe  Fe57      1.0  0.7860971865513017  0.4175849527289336  0.5916808178381614  1.0000
  S   S113      1.0  0.7685080085376165  0.4019295675790816  0.5261513642816108  1.0000
  S   S114      1.0  0.7729874274046719  0.4257352216303574  0.6661917216679406  1.0000
  Fe  Fe58      1.0  0.824103168825043  0.4211163327646324  0.5341203292016092  1.0000
  S   S115      1.0  0.8098634226912157  0.40609048901079525  0.4626725148739466  1.0000
  S   S116      1.0  0.8562579737853648  0.43427590523500004  0.5401533887173792  1.0000
  Fe  Fe59      1.0  0.7854810762100003  0.43966989648615523  0.4855444360090985  1.0000
  S   S117      1.0  0.7667341391898511  0.4727848844717239  0.439815629581764  1.0000
  Fe  Fe60      1.0  0.7941741367879104  0.3698396614402835  0.5097453495957759  1.0000
  S   S118      1.0  0.7895284883184618  0.3170950305035157  0.4958940885776985  1.0000
  S   S119      1.0  0.8011529403427408  0.4579124144533781  0.5526056796785381  1.0000
  S   S120      1.0  0.8103288367404514  0.3823555423365121  0.5794117721001214  1.0000
  Fe  Fe61      1.0  0.6439585722211758  0.12153459324149919  0.2251255652952288  1.0000
  S   S121      1.0  0.6647806837327819  0.16081565277966886  0.20300010717000966  1.0000
  S   S122      1.0  0.6468230708399001  0.07167527525739131  0.19424810605943982  1.0000
  Fe  Fe62      1.0  0.6233901757687754  0.16290449468310386  0.30116713471695467  1.0000
  S   S123      1.0  0.6418624504620845  0.20610508685558498  0.2849198332863297  1.0000
  S   S124      1.0  0.6004789215487429  0.16549243166564853  0.3603375284991327  1.0000
  Fe  Fe63      1.0  0.6377620351603591  0.19206130670530464  0.20580865106050872  1.0000
  S   S125      1.0  0.6300318967789733  0.2254458311322125  0.143684926722327  1.0000
  Fe  Fe64      1.0  0.6669608958866218  0.1711185263305973  0.28395067730572754  1.0000
  S   S126      1.0  0.694149518487128  0.18011349241099567  0.32933416877211  1.0000
  S   S127      1.0  0.6166739780110604  0.15187202839185512  0.22222437203090253  1.0000
  S   S128      1.0  0.648698144204488  0.1287490215881543  0.3060100005957096  1.0000
  C   C1        1.0  0.8271251160063984  0.07914993420320472  0.47654037357394924  1.0000
  C   C2        1.0  0.7750254051621102  0.5635243912181431  0.3925174558386635  1.0000
  C   C3        1.0  0.7664639558646704  0.5353920203673322  0.41113265746125643  1.0000
  C   C4        1.0  0.7782376303821351  0.5088348459711907  0.4224920793259294  1.0000
  C   C5        1.0  0.7987362415363971  0.5108390684296572  0.41681286754939295  1.0000
  C   C6        1.0  0.8426847247122929  0.07014246666306585  0.44562827495974067  1.0000
  H   H1        1.0  0.765762623436814  0.5836065161252711  0.3831300930923906  1.0000
  H   H2        1.0  0.7506637208054441  0.534089156997153  0.4165229778794401  1.0000
  H   H3        1.0  0.8079196818110125  0.490409752556072  0.42565562046407707  1.0000
  H   H4        1.0  0.8463274845517608  0.08462252816198369  0.413887858316078  1.0000
  C   C7        1.0  0.8207295757342542  0.2652070844813509  0.37058028531754655  1.0000
  C   C8        1.0  0.8174369033784689  0.29835301433304046  0.3672657202777232  1.0000
  C   C9        1.0  0.8082400162297957  0.3148243018664183  0.40611481847406333  1.0000
  C   C10       1.0  0.8024760531345959  0.298111663505936  0.44832356248398025  1.0000
  C   C11       1.0  0.8063023801749607  0.2652012334196865  0.45209060770039783  1.0000
  C   C12       1.0  0.8153859172070297  0.24874872318471733  0.4132721585056032  1.0000
  H   H5        1.0  0.8215214786008026  0.31108278338865336  0.3341146697281981  1.0000
  H   H6        1.0  0.8050824268566673  0.34017280205859246  0.4028449016239091  1.0000
  H   H7        1.0  0.8019158539504145  0.2522372295890772  0.48482246865514467  1.0000
  H   H8        1.0  0.8181010070563435  0.22323164572149015  0.41627040054390035  1.0000
  C   C13       1.0  0.7508744902607205  0.14226634987480186  0.26196880388354205  1.0000
  C   C14       1.0  0.735977620242643  0.15447274666197816  0.23153167471104358  1.0000
  C   C15       1.0  0.7182347910543377  0.16540256565741868  0.25197732937737083  1.0000
  C   C16       1.0  0.7154039096977881  0.16399604888177025  0.30284546495705694  1.0000
  C   C17       1.0  0.7302070672375623  0.1514413638731  0.33320707055588006  1.0000
  C   C18       1.0  0.7479822090167297  0.140655582020086  0.3128023452452222  1.0000
  H   H9        1.0  0.7383397689472795  0.15603638181208418  0.19221993173672475  1.0000
  H   H10       1.0  0.7070021161326102  0.1757741759749368  0.22858165779189166  1.0000
  H   H11       1.0  0.7278899164455556  0.14995287966949492  0.3725242114747521  1.0000
  H   H12       1.0  0.7593550045585449  0.13076550195615103  0.3363033745345881  1.0000
  C   C19       1.0  0.6291525258304895  0.19017474185074967  0.5074630246745649  1.0000
  C   C20       1.0  0.6085486260605152  0.18939714406382904  0.5029758184420259  1.0000
  C   C21       1.0  0.5997573644483649  0.1826158007220041  0.45736863132837413  1.0000
  C   C22       1.0  0.6115439823565472  0.17694802454636846  0.41606156278596956  1.0000
  C   C23       1.0  0.6321116432103253  0.17926375816785944  0.4200107124496207  1.0000
  C   C24       1.0  0.6409130309143446  0.1858867559661598  0.4657044856979142  1.0000
  H   H13       1.0  0.5993273320900118  0.19313121866571858  0.534882170332539  1.0000
  H   H14       1.0  0.5838340332187743  0.18107781891293614  0.4544778179633518  1.0000
  H   H15       1.0  0.6413409429914471  0.1751620678196342  0.38823615172439957  1.0000
  H   H16       1.0  0.6568466665193359  0.18653335571476856  0.468953844131076  1.0000
  C   C25       1.0  0.5938654396748678  0.33770796454263174  0.7201687719913316  1.0000
  C   C26       1.0  0.6045934233645391  0.33266318850885757  0.7635099859936064  1.0000
  C   C27       1.0  0.6060144090605434  0.3017457447633262  0.7835241994312632  1.0000
  C   C28       1.0  0.5966230999387964  0.27590195749461854  0.7602733021849846  1.0000
  C   C29       1.0  0.5847275046012768  0.28141251499388703  0.7190274487302889  1.0000
  C   C30       1.0  0.5833376852244828  0.3122984056822696  0.6989849053240024  1.0000
  H   H17       1.0  0.6120366030074872  0.3524273191161961  0.7812705341665853  1.0000
  H   H18       1.0  0.61493770458439  0.29771303197308935  0.8159916966536759  1.0000
  H   H19       1.0  0.5766750559723693  0.26185877010383957  0.7023412310842388  1.0000
  H   H20       1.0  0.5746725937879129  0.31624702121434084  0.6660303576145664  1.0000
  C   C31       1.0  0.6325997847429805  0.5213751372688709  0.6024894583443201  1.0000
  C   C32       1.0  0.6196468940265993  0.0006688925857118998  0.6494195510123147  1.0000
  C   C33       1.0  0.6106100782153498  0.021535665832939976  0.683162644876946  1.0000
  C   C34       1.0  0.6132861740274338  0.05477978262644512  0.6790704072510902  1.0000
  C   C35       1.0  0.625568342944745  0.06707133594273218  0.6423179398883014  1.0000
  C   C36       1.0  0.63479320522232  0.04617612237404045  0.6090702483467423  1.0000
  H   H21       1.0  0.6123218241172974  0.4857325171246576  0.6297327695873299  1.0000
  H   H22       1.0  0.6011184282259343  0.011950427618259374  0.7115100855513022  1.0000
  H   H23       1.0  0.6281209817151204  0.09264020883384377  0.6398364001613323  1.0000
  H   H24       1.0  0.6446503056362849  0.05556409955011276  0.5813799017966043  1.0000
  C   C37       1.0  0.7142959012719163  0.3726885362037736  0.6689618522978317  1.0000
  C   C38       1.0  0.7293653321979742  0.3622384334133977  0.6377196825274138  1.0000
  C   C39       1.0  0.7479017504602856  0.3772466773033667  0.6389898483743975  1.0000
  C   C40       1.0  0.7513488308006213  0.40284231487275796  0.6712569362732526  1.0000
  C   C41       1.0  0.7366881300037396  0.41195006693797015  0.7046215261089833  1.0000
  C   C42       1.0  0.7181649025793454  0.3968451703267086  0.703474821080234  1.0000
  H   H25       1.0  0.7265543839022082  0.3432099886524244  0.6114841345352507  1.0000
  H   H26       1.0  0.759445812330822  0.3691772832660584  0.6145818540730077  1.0000
  H   H27       1.0  0.7394109118115676  0.43135739165986314  0.7302584130503258  1.0000
  H   H28       1.0  0.7068802420817162  0.4039889186891435  0.7292148352104189  1.0000
  C   C43       1.0  0.5997490350497686  0.31752112606412003  0.1934256014915985  1.0000
  C   C44       1.0  0.6140614674129715  0.30326664453142615  0.2234848592216147  1.0000
  C   C45       1.0  0.6235518609829762  0.2750465312188729  0.20829763122131278  1.0000
  C   C46       1.0  0.6185563298286125  0.2608818733549064  0.1632741465308817  1.0000
  C   C47       1.0  0.6042343432923943  0.2751714653411603  0.13330161940735064  1.0000
  C   C48       1.0  0.5949714076694664  0.3036273330291369  0.14810536749820136  1.0000
  H   H29       1.0  0.6179572971613962  0.3143170072611125  0.2582364300559786  1.0000
  H   H30       1.0  0.6349360335316951  0.264594791547877  0.2310269919458045  1.0000
  H   H31       1.0  0.599950500210761  0.2638698052641142  0.0991271327027079  1.0000
  H   H32       1.0  0.583706848591828  0.3143072243930245  0.12513580796265833  1.0000
  C   C49       1.0  0.6056232184684223  0.524950376737837  0.10359418964193101  1.0000
  C   C50       1.0  0.5857368157578131  0.5295606182364397  0.09164263741280254  1.0000
  C   C51       1.0  0.6288039692349167  0.03210239951376592  0.12727124626645048  1.0000
  C   C52       1.0  0.6309626766026324  0.06367035777876406  0.1443436943469786  1.0000
  C   C53       1.0  0.6205580209122631  0.08844079889843508  0.12131812460009095  1.0000
  C   C54       1.0  0.6187734969025588  0.5508758429137318  0.10217516298357299  1.0000
  H   H33       1.0  0.5755417010621403  0.5095312168229356  0.09250583875755614  1.0000
  H   H34       1.0  0.6368659033038664  0.012866157985915061  0.1448350430138798  1.0000
  H   H35       1.0  0.6223874951255223  0.11291320617884182  0.13363378414604643  1.0000
  H   H36       1.0  0.6342125322104825  0.5472739989108159  0.1110002885415069  1.0000
  C   C55       1.0  0.607992399279404  0.3880648101655327  0.9348766239623416  1.0000
  C   C56       1.0  0.6222278710895408  0.40600633807545156  0.9602344288003833  1.0000
  C   C57       1.0  0.6364712223314384  0.42340774558109673  0.9339984354949399  1.0000
  C   C58       1.0  0.63595596401916  0.4238771275964491  0.882583277082963  1.0000
  C   C59       1.0  0.6215306108720772  0.4062691457755326  0.8574149702719664  1.0000
  C   C60       1.0  0.6078413406990403  0.387767279890698  0.8834916513617218  1.0000
  H   H37       1.0  0.6224803417965844  0.406075904803212  1.0026476118696337e-05  1.0000
  H   H38       1.0  0.6478526482703286  0.43652932823113677  0.9535163528991464  1.0000
  H   H39       1.0  0.6208309604718378  0.4070524776807279  0.8178369575123183  1.0000
  H   H40       1.0  0.5969132526096601  0.3736999244244589  0.8639058968919635  1.0000
  C   C61       1.0  0.4972487465950859  0.11799927015140498  0.6510122911843963  1.0000
  C   C62       1.0  0.5170118759129683  0.11208421914586723  0.6630224503222812  1.0000
  C   C63       1.0  0.5319093244760528  0.13211049191565363  0.6444839406592734  1.0000
  C   C64       1.0  0.5269925697337547  0.15787250367753664  0.6138340515856117  1.0000
  C   C65       1.0  0.5073321636231288  0.16289026767365902  0.6002209819140052  1.0000
  C   C66       1.0  0.4924784796439766  0.1429084016934213  0.6187155209800849  1.0000
  H   H41       1.0  0.5207455173032134  0.09268843903516959  0.6877545146637513  1.0000
  H   H42       1.0  0.5471455144661302  0.12771426371377936  0.6542019045596227  1.0000
  H   H43       1.0  0.5035356046939261  0.18254651713192532  0.576011790754196  1.0000
  H   H44       1.0  0.4772848628425641  0.14687695282462632  0.6080728095316745  1.0000
  C   C67       1.0  0.4219190942063272  0.3132448834261071  0.8029769262936682  1.0000
  C   C68       1.0  0.4115140191492681  0.28429731797971775  0.7999239044887871  1.0000
  C   C69       1.0  0.42163592856219034  0.25508868639933197  0.8028069830090852  1.0000
  C   C70       1.0  0.44212484699744703  0.25482268862916174  0.809201058272824  1.0000
  C   C71       1.0  0.4524578983181891  0.28375279153090327  0.8140840089215613  1.0000
  C   C72       1.0  0.44235858337790945  0.31301109864339616  0.8106725580769576  1.0000
  H   H45       1.0  0.3956577725033873  0.28445101066726475  0.7948343887973763  1.0000
  H   H46       1.0  0.4135475232881417  0.23277705337135693  0.8005749053008656  1.0000
  H   H47       1.0  0.46829652854898635  0.2836181124999948  0.8193210154256308  1.0000
  H   H48       1.0  0.45044403327983507  0.3353395556717679  0.8133229471530905  1.0000
  C   C73       1.0  0.44801391603808943  0.5221539576382677  0.7001114805027886  1.0000
  C   C74       1.0  0.43975714315448017  0.5442170876177763  0.6671648089516684  1.0000
  C   C75       1.0  0.38647871385114996  0.045002152302613396  0.7802371967863728  1.0000
  C   C76       1.0  0.39350941124987854  0.06587355584205135  0.7438844692659221  1.0000
  C   C77       1.0  0.40772556014944217  0.055154132673484346  0.7104791437077578  1.0000
  C   C78       1.0  0.46090003211689573  0.5328698560647885  0.7368951224575073  1.0000
  H   H49       1.0  0.42976366692623824  0.5359672530581737  0.6386706474978064  1.0000
  H   H50       1.0  0.3754484350932294  0.05319552150959228  0.8061358628548121  1.0000
  H   H51       1.0  0.4132143008846624  0.07090642532077615  0.6822563179049062  1.0000
  H   H52       1.0  0.4675913702246607  0.5159213279338525  0.7618183490347459  1.0000
  C   C79       1.0  0.5061750354688455  0.4076742076926633  0.9146063444402025  1.0000
  C   C80       1.0  0.5228381681286538  0.39549134396955576  0.9385740383450454  1.0000
  C   C81       1.0  0.5271445104198476  0.4048400234954954  0.9869698041248569  1.0000
  C   C82       1.0  0.5146455429505162  0.42597256231556496  0.012047993806068469  1.0000
  C   C83       1.0  0.49793325408312394  0.43811060123258927  0.9881075960303011  1.0000
  C   C84       1.0  0.4936709124469192  0.42891560868529865  0.939506192811574  1.0000
  H   H53       1.0  0.5324926226736746  0.37883391573241554  0.9197963944048625  1.0000
  H   H54       1.0  0.540138347152359  0.3954735904370191  0.004754705244371715  1.0000
  H   H55       1.0  0.4885201714364851  0.45512858069152085  0.006743949975936303  1.0000
  H   H56       1.0  0.48086251851384576  0.4386562305396789  0.921198492341936  1.0000
  C   C85       1.0  0.8633935524927584  0.10540315452295018  0.09393982482338159  1.0000
  C   C86       1.0  0.8820285821138055  0.10297019590313379  0.11583410339102723  1.0000
  C   C87       1.0  0.8838072415033107  0.10116021894837841  0.16705898713613612  1.0000
  C   C88       1.0  0.8669664808747898  0.10250527179274972  0.19665297646854477  1.0000
  C   C89       1.0  0.848231411370188  0.10337397903875242  0.17481601601546615  1.0000
  C   C90       1.0  0.8464503739511129  0.10459634892865793  0.12335697551194506  1.0000
  H   H57       1.0  0.8951184616466882  0.10240533655530437  0.09349328204752315  1.0000
  H   H58       1.0  0.8982902207631588  0.10000964152859183  0.18389558384662535  1.0000
  H   H59       1.0  0.8351379628287267  0.10389039474253389  0.19755696253970567  1.0000
  H   H60       1.0  0.8319768689699677  0.10615575127022561  0.10654701625295804  1.0000
  C   C91       1.0  0.8807887793971267  0.538686206733082  0.8397401703502123  1.0000
  C   C92       1.0  0.896882620619576  0.5495710265044638  0.8121966794780848  1.0000
  C   C93       1.0  0.9511418371600703  0.052196063528079144  0.8793415406817199  1.0000
  C   C94       1.0  0.9396304059325365  0.07995871069327191  0.883063892507192  1.0000
  C   C95       1.0  0.921022101455211  0.08091926201474346  0.8608227760810433  1.0000
  C   C96       1.0  0.8712171288598451  0.5596263088788599  0.8721858659455489  1.0000
  H   H61       1.0  0.9041965391505394  0.5335530609918246  0.7867481296640343  1.0000
  H   H62       1.0  0.9656166100250188  0.051578419825647925  0.8960183845416086  1.0000
  H   H63       1.0  0.9123865838211924  0.10260185554505571  0.8619207321294149  1.0000
  H   H64       1.0  0.8587622067451981  0.551244058239921  0.8935560380293933  1.0000
  C   C97       1.0  0.903407433113023  0.3356294109791597  0.9353071536013422  1.0000
  C   C98       1.0  0.9087272863522078  0.30851945099211264  0.9625903398176325  1.0000
  C   C99       1.0  0.901425895936205  0.27820690307455664  0.9492498758230699  1.0000
  C   C100      1.0  0.8888033260283299  0.2749660689105409  0.9087916331351782  1.0000
  C   C101      1.0  0.8825794136724987  0.30228791749600353  0.8833820587325925  1.0000
  C   C102      1.0  0.8900538091873653  0.3325413937398697  0.8962606287529811  1.0000
  H   H65       1.0  0.9188297362364032  0.31080583619404245  0.9933125605699727  1.0000
  H   H66       1.0  0.9057595285879789  0.25725612213251087  0.9697665792557798  1.0000
  H   H67       1.0  0.8722462621761979  0.3000037417521814  0.8531698457018059  1.0000
  H   H68       1.0  0.8853654282908047  0.35341410842777915  0.8760979265102105  1.0000
  C   C103      1.0  0.987637027350043  0.4740597980477163  0.7971027798310133  1.0000
  C   C104      1.0  0.007751008334693221  0.4805129266735988  0.8045324935799586  1.0000
  C   C105      1.0  0.020825296479144217  0.48103987439920387  0.7644725828540938  1.0000
  C   C106      1.0  0.013734917911216726  0.4756795722889877  0.7167598243277791  1.0000
  C   C107      1.0  0.9935951617241919  0.46951888773773587  0.7092995676376338  1.0000
  C   C108      1.0  0.9805884954775861  0.46836027664768276  0.7494701357822875  1.0000
  H   H69       1.0  0.013251930630248543  0.4849531643422541  0.8413082287454161  1.0000
  H   H70       1.0  0.03632853595835983  0.486003725649389  0.7704398077760664  1.0000
  H   H71       1.0  0.9880661321381027  0.46533306657139634  0.6724578568660208  1.0000
  H   H72       1.0  0.965092818452223  0.4633935929038877  0.7434472926597353  1.0000
  C   C109      1.0  0.8930233191295207  0.3923615483034496  0.6655779055862832  1.0000
  C   C110      1.0  0.8977534012817011  0.4223242894818277  0.6457440747098998  1.0000
  C   C111      1.0  0.8863047921145086  0.4350569253604583  0.6073622380252848  1.0000
  C   C112      1.0  0.8696750012891155  0.4184793174332903  0.5900261591649915  1.0000
  C   C113      1.0  0.8644658856667607  0.3891698476903474  0.6115096012082247  1.0000
  C   C114      1.0  0.8763650711724392  0.37580634624493775  0.6484614937403742  1.0000
  H   H73       1.0  0.9106670235941703  0.4351500101778603  0.6587276200400508  1.0000
  H   H74       1.0  0.8904081319948939  0.4577569078959637  0.5909464803933998  1.0000
  H   H75       1.0  0.8515776084672255  0.37633010486344437  0.5991661629834726  1.0000
  H   H76       1.0  0.8725699646941935  0.3527446404894322  0.6640987593967789  1.0000
  C   C115      1.0  0.14882081962070987  0.4661948488385804  0.9284456827905436  1.0000
  C   C116      1.0  0.14919149641332557  0.4631585293726189  0.8771387078397762  1.0000
  C   C117      1.0  0.13356949402734974  0.47528714575477415  0.8486428607413182  1.0000
  C   C118      1.0  0.11765989653663067  0.49069323372047785  0.8714403893151161  1.0000
  C   C119      1.0  0.11759202149093184  0.4944188620481055  0.9226077581971018  1.0000
  C   C120      1.0  0.1331492932424496  0.48228190561886125  0.950994835243262  1.0000
  H   H77       1.0  0.16140668495802601  0.45104726003873  0.859503122951781  1.0000
  H   H78       1.0  0.13387368497205493  0.47271791105600414  0.8091615843790172  1.0000
  H   H79       1.0  0.10532552042853571  0.5060982507852465  0.9406217388098577  1.0000
  H   H80       1.0  0.13290734574477847  0.48530544880985527  0.9904260935736824  1.0000
  C   C121      1.0  0.11222107306012585  0.31620660337833245  0.04781060068741905  1.0000
  C   C122      1.0  0.10671211617018495  0.31026973204490826  0.09656329138693119  1.0000
  C   C123      1.0  0.11465022400860136  0.32884516620377163  0.13482753872243258  1.0000
  C   C124      1.0  0.1281888370961817  0.3532851138257667  0.12447591444798034  1.0000
  C   C125      1.0  0.13407622849923168  0.3587209501965868  0.07581612727430942  1.0000
  C   C126      1.0  0.12614709799320722  0.3401088592226154  0.03750396488431096  1.0000
  H   H81       1.0  0.09621002894690212  0.29152964563378214  0.104870122122382  1.0000
  H   H82       1.0  0.10979050828027725  0.32490590813234255  0.17211427113142813  1.0000
  H   H83       1.0  0.1447497057972442  0.3772696218623347  0.06768021101907218  1.0000
  H   H84       1.0  0.1306217865290312  0.34451796273359697  0.9999571143359017  1.0000
  C   C127      1.0  0.054116124864314274  0.12778449576605244  0.03772483575896235  1.0000
  C   C128      1.0  0.123659989591832  0.5917203973615921  0.02254758354025954  1.0000
  C   C129      1.0  0.12258444356526077  0.5632607828883109  0.05006275023937157  1.0000
  C   C130      1.0  0.11109018608599312  0.5621218804662622  0.09281231646059518  1.0000
  C   C131      1.0  0.10093286108639465  0.5894841757378487  0.10827646018616233  1.0000
  C   C132      1.0  0.10208262552468739  0.6178230752389045  0.08091739247335726  1.0000
  H   H85       1.0  0.13218519025473863  0.5923709099111009  0.9889132562876665  1.0000
  H   H86       1.0  0.13024108630897202  0.5420682353765767  0.03750503307721553  1.0000
  H   H87       1.0  0.09213750988028391  0.588823893125822  0.14151141985660012  1.0000
  H   H88       1.0  0.05550779956255414  0.1617445498945018  0.09764539546706573  1.0000
  C   C133      1.0  0.9820906088427096  0.2748546181101178  0.040142129735548204  1.0000
  C   C134      1.0  0.9836135404624158  0.2604939090599746  0.08653171596897691  1.0000
  C   C135      1.0  0.967828453791923  0.24238314290631993  0.10522174788963001  1.0000
  C   C136      1.0  0.9505725532851103  0.23858390679648467  0.07739529025734804  1.0000
  C   C137      1.0  0.948785188535726  0.2541490767862585  0.032126169944338256  1.0000
  C   C138      1.0  0.9644652030006934  0.2723566876888998  0.013531343923452344  1.0000
  H   H89       1.0  0.9969845903558099  0.263229189888311  0.10796954872895892  1.0000
  H   H90       1.0  0.9692215903308913  0.2306428481593327  0.1405544732746542  1.0000
  H   H91       1.0  0.9352935140489747  0.25210921274344555  0.011353450616542027  1.0000
  H   H92       1.0  0.9630999719827507  0.2835182284115103  0.9778198467362278  1.0000
  C   C139      1.0  0.10847444074421683  0.3550039296874243  0.6360856417505623  1.0000
  C   C140      1.0  0.11989665957956552  0.3272383289784549  0.6296820885861792  1.0000
  C   C141      1.0  0.1227531653748848  0.31423909740469785  0.5823534678423427  1.0000
  C   C142      1.0  0.11417575469437692  0.32900919030475334  0.5413181313677788  1.0000
  C   C143      1.0  0.1023400845419189  0.3561597846869951  0.547984773530609  1.0000
  C   C144      1.0  0.09942687593599087  0.3689779831006528  0.595145591934486  1.0000
  H   H93       1.0  0.12689967210901043  0.3161464116586816  0.6611657061849042  1.0000
  H   H94       1.0  0.131936586652138  0.29327338270793635  0.5775645571430316  1.0000
  H   H95       1.0  0.09538180240122585  0.36735008081119014  0.5165119653107175  1.0000
  H   H96       1.0  0.09002381272243576  0.3895046088041719  0.5996497133317849  1.0000
  C   C145      1.0  0.10963641269743936  0.11588338959722828  0.5104691064588117  1.0000
  C   C146      1.0  0.09654516255629408  0.09256164815940224  0.5282300516423174  1.0000
  C   C147      1.0  0.10740389354113278  0.5720644186853177  0.6131213096797317  1.0000
  C   C148      1.0  0.11594645745350896  0.5522931433110121  0.5774589594328414  1.0000
  C   C149      1.0  0.12136713631093254  0.5652700714894582  0.5318984168286724  1.0000
  C   C150      1.0  0.11811980013829215  0.5978854960193114  0.5218398636177238  1.0000
  H   H97       1.0  0.08232377132316816  0.09969253360282876  0.5427222648231759  1.0000
  H   H98       1.0  0.10357913511891081  0.5624111323455177  0.6486988318556621  1.0000
  H   H99       1.0  0.12795810033760713  0.5500673989765047  0.5041367385434028  1.0000
  H   H100      1.0  0.1382468223739428  0.12420596686686194  0.47860294091303196  1.0000
  C   C151      1.0  0.11517096185069273  0.21922958080034824  0.2746089234289629  1.0000
  C   C152      1.0  0.11420476806941704  0.22480907001178296  0.22386875400446268  1.0000
  C   C153      1.0  0.09590875365224871  0.23038787480624864  0.20110148086108623  1.0000
  C   C154      1.0  0.07854952718263686  0.22971499267023462  0.2289376297353875  1.0000
  C   C155      1.0  0.07953978087606273  0.22364102137459818  0.27944713278558053  1.0000
  C   C156      1.0  0.09780000293157243  0.21831287498542298  0.3021615592838723  1.0000
  H   H101      1.0  0.1276422281401094  0.22576320485964946  0.20239634350195534  1.0000
  H   H102      1.0  0.09530557749204682  0.23578491652927897  0.16232742731366215  1.0000
  H   H103      1.0  0.06611742396782216  0.223134318118055  0.3010361016524465  1.0000
  H   H104      1.0  0.09830810123248512  0.21331289829901418  0.3408888312271764  1.0000
  C   C157      1.0  0.37182668008723097  0.4218833597515407  0.005357679688190231  1.0000
  C   C158      1.0  0.3821389749412613  0.40892323238642286  0.9654083651696005  1.0000
  C   C159      1.0  0.3976431622098962  0.4260450240980246  0.9436135624654639  1.0000
  C   C160      1.0  0.4030626217898893  0.4561391127830145  0.9619580471838145  1.0000
  C   C161      1.0  0.39262375265727006  0.4694166290430443  0.0015276210763888187  1.0000
  C   C162      1.0  0.3769820725038232  0.45230750309134193  0.023202100026487038  1.0000
  H   H105      1.0  0.3781217064950545  0.3854953055206118  0.9512697881738182  1.0000
  H   H106      1.0  0.4054068202688204  0.41571908304471367  0.9127364221953652  1.0000
  H   H107      1.0  0.39670505273275997  0.4927658037912808  0.01574942523231604  1.0000
  H   H108      1.0  0.36896046534481  0.4625968940380608  0.05370678664485706  1.0000
  C   C163      1.0  0.25059685425093153  0.424940927560936  0.1689269536756086  1.0000
  C   C164      1.0  0.2558045361631662  0.4574386526505683  0.16642924331704925  1.0000
  C   C165      1.0  0.2412740128563565  0.4811446908431497  0.1715207107269146  1.0000
  C   C166      1.0  0.2215636247213678  0.4723351068269962  0.1790157408414268  1.0000
  C   C167      1.0  0.21650320744345614  0.43992165829078134  0.18314062442281442  1.0000
  C   C168      1.0  0.2309960341142321  0.41622515497504586  0.17795908423814533  1.0000
  H   H109      1.0  0.2708628774912394  0.46430815537955233  0.15844988046268904  1.0000
  H   H110      1.0  0.2451619787866502  0.5061340087720069  0.1670983834564836  1.0000
  H   H111      1.0  0.20134915340102297  0.4330487811229487  0.18996712048868392  1.0000
  H   H112      1.0  0.2269403400474855  0.3911366844479754  0.18007932327073162  1.0000
  C   C169      1.0  0.3548024218249277  0.29729322145507797  0.28379198552527996  1.0000
  C   C170      1.0  0.35774163965483546  0.31415375608612545  0.23987713501880784  1.0000
  C   C171      1.0  0.35661191358670713  0.3477633523771479  0.23924751653670237  1.0000
  C   C172      1.0  0.35274769651902926  0.36468766313923545  0.28263771144872973  1.0000
  C   C173      1.0  0.3506493182932399  0.3479204176692963  0.32698624827840345  1.0000
  C   C174      1.0  0.3516024543445746  0.31425034232869137  0.32755373560365186  1.0000
  H   H113      1.0  0.3604805605365558  0.30117358150469886  0.20605794763064209  1.0000
  H   H114      1.0  0.35888212489046106  0.3605782098084281  0.2051830825337226  1.0000
  H   H115      1.0  0.3478301319889378  0.36093150040607797  0.36072799959767726  1.0000
  H   H116      1.0  0.3498291199088269  0.3014432881183531  0.36180327449631566  1.0000
  C   C175      1.0  0.3265851972516353  0.5559360917039965  0.1831473652362268  1.0000
  C   C176      1.0  0.33557007744079587  0.5425010317000111  0.22466875128267505  1.0000
  C   C177      1.0  0.2898842513317251  0.11598795468961245  0.2831761159962771  1.0000
  C   C178      1.0  0.3003098774216272  0.09734661522006709  0.3171527891612888  1.0000
  C   C179      1.0  0.33160217266770836  0.6092002184509597  0.2171338289311709  1.0000
  C   C180      1.0  0.3249809464473986  0.5892832193427722  0.17895928293239452  1.0000
  H   H117      1.0  0.3369684640982837  0.5167168778258586  0.22783594957588368  1.0000
  H   H118      1.0  0.29195408313604965  0.1416839661623611  0.28230327484663204  1.0000
  H   H119      1.0  0.3302114795499772  0.6349310947894307  0.21384120956124644  1.0000
  H   H120      1.0  0.3182441003099321  0.599695417547768  0.146571122150242  1.0000
  C   C181      1.0  0.24392291395907464  0.24261795375314169  0.39268886340860776  1.0000
  C   C182      1.0  0.2489621021082813  0.23378762538188824  0.4407122701891296  1.0000
  C   C183      1.0  0.2341804865151353  0.22473481984680238  0.47405069380278314  1.0000
  C   C184      1.0  0.21434206647159504  0.2244474862484082  0.45943834012816226  1.0000
  C   C185      1.0  0.20930330672826375  0.2335420396087138  0.4114899436155123  1.0000
  C   C186      1.0  0.2240721574432505  0.24279291890898236  0.37823786537100024  1.0000
  H   H121      1.0  0.2642343201656879  0.23417767431379669  0.4523610483799022  1.0000
  H   H122      1.0  0.23812914082125375  0.21791925141647145  0.5112055306614325  1.0000
  H   H123      1.0  0.1941147704664617  0.23265691479094333  0.39952989137583383  1.0000
  H   H124      1.0  0.22014172894870973  0.2493212919788088  0.3409575973898535  1.0000
  C   C187      1.0  0.35661792681010135  0.22692342607156532  0.540448337114179  1.0000
  C   C188      1.0  0.37083130495164496  0.22675430086779919  0.5031992996151792  1.0000
  C   C189      1.0  0.3908985211508966  0.22346166626710856  0.5151427549755843  1.0000
  C   C190      1.0  0.3967355528101621  0.21969988480513283  0.5642300421078154  1.0000
  C   C191      1.0  0.38260326137750167  0.22116985607947728  0.6016303696888783  1.0000
  C   C192      1.0  0.3626032864111107  0.2253475279636409  0.5897331826417275  1.0000
  H   H125      1.0  0.36639290375131794  0.22893572206959328  0.4651551488295406  1.0000
  H   H126      1.0  0.4018347464174195  0.22295681390001904  0.48613045239339114  1.0000
  H   H127      1.0  0.3870126985051844  0.2191506610167172  0.6396671735983427  1.0000
  H   H128      1.0  0.35164657313697223  0.2263237874844544  0.6186484000877936  1.0000
  Fe  Fe65      1.0  0.2795532168261111  0.6730832148076321  0.32807888377555255  1.0000
  S   S129      1.0  0.29974963295240925  0.6723416623839239  0.2630611238284696  1.0000
  S   S130      1.0  0.2495712127183672  0.6503367037166456  0.3187235895478741  1.0000
  Fe  Fe66      1.0  0.30943344041986354  0.7078190072301588  0.3919099300332159  1.0000
  S   S131      1.0  0.33210611625056397  0.7106404592593175  0.3320227780685718  1.0000
  S   S132      1.0  0.3168450979512073  0.7291130933072851  0.46542057145777177  1.0000
  Fe  Fe67      1.0  0.3064709599809057  0.7233918522136125  0.28342889655200537  1.0000
  S   S133      1.0  0.30690803951029233  0.7597792492977368  0.22220462790504633  1.0000
  Fe  Fe68      1.0  0.32338698006711786  0.65963410754057  0.31745832651762823  1.0000
  S   S134      1.0  0.3458185198933788  0.6203275003230136  0.30974045076270795  1.0000
  S   S135      1.0  0.2844694733858731  0.7252676278998236  0.3447487370404649  1.0000
  S   S136      1.0  0.30251502601719443  0.6557170028411923  0.3810242302923525  1.0000
  Fe  Fe69      1.0  0.2646003256517179  0.999979585479533  0.1856408091621251  1.0000
  S   S137      1.0  0.27493155049400686  0.99441787152575  0.10773687120448061  1.0000
  S   S138      1.0  0.25720469093311155  0.05022165347278418  0.20985742468693766  1.0000
  Fe  Fe70      1.0  0.26720114084533836  0.9280800084086335  0.20611489878820813  1.0000
  S   S139      1.0  0.2781039298680412  0.9169656753224281  0.1301888324243184  1.0000
  S   S140      1.0  0.26276617658858903  0.8903899265815314  0.26456008919003693  1.0000
  Fe  Fe71      1.0  0.29721954078423773  0.9605413832773108  0.13971970445470416  1.0000
  S   S141      1.0  0.33003826037139006  0.9649251923606521  0.12786654182280155  1.0000
  Fe  Fe72      1.0  0.25471258538736424  0.9517420826053518  0.1061027550212401  1.0000
  S   S142      1.0  0.23325649329377163  0.9385634708588613  0.04628874649647918  1.0000
  S   S143      1.0  0.2882316203578527  0.9689737643412702  0.21799431826340154  1.0000
  S   S144      1.0  0.2424339780116646  0.9599979134849931  0.18151590471818807  1.0000
  Fe  Fe73      1.0  0.11818191338851591  0.6790239271758108  0.47658746870843405  1.0000
  S   S145      1.0  0.09930215528660935  0.6925103838720261  0.41178257969167226  1.0000
  S   S146      1.0  0.10476378436399947  0.6583516373850464  0.5455288950214983  1.0000
  Fe  Fe74      1.0  0.1552162839043988  0.7087448408512458  0.4325703542288564  1.0000
  S   S147      1.0  0.13965743051827958  0.7242506950927128  0.36408804316289367  1.0000
  S   S148      1.0  0.18654562857114113  0.7238541065401441  0.4470366996350079  1.0000
  Fe  Fe75      1.0  0.11523777499235274  0.739582771169139  0.41418629094099785  1.0000
  S   S149      1.0  0.10148472095436123  0.788073116145906  0.4015085724594419  1.0000
  Fe  Fe76      1.0  0.12530683841942183  0.6758326950737237  0.36743532789488664  1.0000
  S   S150      1.0  0.12334172708205926  0.6485935134412482  0.296321968480979  1.0000
  S   S151      1.0  0.13194078018864838  0.727810440030434  0.48291322023940486  1.0000
  S   S152      1.0  0.1431504455286757  0.6585902560121286  0.43201407573610906  1.0000
  Fe  Fe77      1.0  0.08545620568277745  0.6830294951964084  0.01793792531760685  1.0000
  S   S153      1.0  0.058644231636573396  0.6600933393385668  0.05120561903440124  1.0000
  S   S154      1.0  0.11206012650374286  0.6529720329378815  0.9998383116955892  1.0000
  Fe  Fe78      1.0  0.06631062602074267  0.748836864428551  0.012094383968350275  1.0000
  S   S155      1.0  0.03791430269853757  0.7313061369604532  0.044746204702556414  1.0000
  S   S156      1.0  0.06726553354644804  0.8005666398093334  0.9881389843218885  1.0000
  Fe  Fe79      1.0  0.0574725700118246  0.7046888893416153  0.09719254334872372  1.0000
  S   S157      1.0  0.05084619541677404  0.7034453887444637  0.1779687477973214  1.0000
  Fe  Fe80      1.0  0.04183928849776075  0.6885217622438911  0.995659589814603  1.0000
  S   S158      1.0  0.01726785656437735  0.6658767622742152  0.9521323531000552  1.0000
  S   S159      1.0  0.08575923901265425  0.7256053958896317  0.06860758948766586  1.0000
  S   S160      1.0  0.06865362469356118  0.7081488646979721  0.9580824417683511  1.0000
  Fe  Fe81      1.0  0.13220452804823038  0.007067603489212537  0.04967774522255586  1.0000
  S   S161      1.0  0.12126826200362215  0.9947581734225976  0.1250702421055511  1.0000
  S   S162      1.0  0.1609979327294341  0.033684105948126764  0.04562245487640526  1.0000
  Fe  Fe82      1.0  0.09380284078054113  0.9866905598093526  0.0008624448127101392  1.0000
  S   S163      1.0  0.07946650561679182  0.9733882207316322  0.07227522455296587  1.0000
  S   S164      1.0  0.07602306116165014  0.9812541490846575  0.9314776688993625  1.0000
  Fe  Fe83      1.0  0.09326446496627483  0.01855668725228199  0.10085533684075942  1.0000
  S   S165      1.0  0.07809368819955154  0.0556063853828237  0.14727611901768856  1.0000
  Fe  Fe84      1.0  0.10875119461808228  0.9506438814682061  0.08910251343137054  1.0000
  S   S166      1.0  0.11227115747038158  0.9013228357712769  0.12171586573786275  1.0000
  S   S167      1.0  0.1050914987788325  0.034039873417550215  0.027748400378367455  1.0000
  S   S168      1.0  0.12225417451020591  0.9606670445162854  0.015327107150219454  1.0000
  Fe  Fe85      1.0  0.938258449207513  0.8914606338462505  0.8936144777501349  1.0000
  S   S169      1.0  0.955727360135852  0.8629250833594374  0.8391301087574607  1.0000
  S   S170      1.0  0.9343830714992329  0.8709056517681345  0.9692220000592869  1.0000
  Fe  Fe86      1.0  0.9313986936889316  0.9461449075811423  0.8220778061387357  1.0000
  S   S171      1.0  0.9482747181657839  0.9223366076264542  0.7614678722363188  1.0000
  S   S172      1.0  0.9143973600027605  0.9913470491903923  0.8076405450596025  1.0000
  Fe  Fe87      1.0  0.9323619425899021  0.8777326783607631  0.7852194854877114  1.0000
  S   S173      1.0  0.919460125636166  0.8438593841083956  0.7291490045115224  1.0000
  Fe  Fe88      1.0  0.9700557812743535  0.9099717413898957  0.8209979608429118  1.0000
  S   S174      1.0  0.003269277182390562  0.9137372113235865  0.8197054010080708  1.0000
  S   S175      1.0  0.913695272359222  0.9026356276110797  0.8412344288895443  1.0000
  S   S176      1.0  0.954386425984294  0.9375471903519671  0.8802187451998211  1.0000
  Fe  Fe89      1.0  0.9115556310998739  0.686666125585672  0.02781653110894733  1.0000
  S   S177      1.0  0.907970850147417  0.708578850349976  0.9533134235103136  1.0000
  S   S178      1.0  0.9394263031535177  0.6916981656906651  0.0718417740561097  1.0000
  Fe  Fe90      1.0  0.8706167525439287  0.6575894344370844  0.02738980716801409  1.0000
  S   S179      1.0  0.8633182024025844  0.6763398735405892  0.9519864485539612  1.0000
  S   S180      1.0  0.8504815690631212  0.6268119252189625  0.07332763611628135  1.0000
  Fe  Fe91      1.0  0.8941734248812648  0.661627993799415  0.9326257975122164  1.0000
  S   S181      1.0  0.904062790125901  0.6404135292352987  0.8608244672367635  1.0000
  Fe  Fe92      1.0  0.8776640509824283  0.7215650281021984  0.9791750293054587  1.0000
  S   S182      1.0  0.8654488740622067  0.7695157085775499  0.9582733934570451  1.0000
  S   S183      1.0  0.9003213975702172  0.6383295580947644  0.00531164247460203  1.0000
  S   S184      1.0  0.8824378088376705  0.7042472559239101  0.0563280290493855  1.0000
  Fe  Fe93      1.0  0.1125849859118977  0.9809249101521512  0.5683085654501  1.0000
  S   S185      1.0  0.08974551469439374  0.9427509511227143  0.5553098085667385  1.0000
  S   S186      1.0  0.12753665237260559  0.010402913020460591  0.5100233123818094  1.0000
  Fe  Fe94      1.0  0.11472482000543094  0.9690065240905987  0.677213996057771  1.0000
  S   S187      1.0  0.09225274153614982  0.9296847779428121  0.675115133190782  1.0000
  S   S188      1.0  0.13082511298843746  0.9855265521669725  0.7447268014593438  1.0000
  Fe  Fe95      1.0  0.10777228492027424  0.913091916021796  0.6072357334225652  1.0000
  S   S189      1.0  0.11076947559548733  0.8594851379453488  0.6041540850815087  1.0000
  Fe  Fe96      1.0  0.07569677760602311  0.9620543214863081  0.6239703326701785  1.0000
  S   S190      1.0  0.04261621190680209  0.9661146349087685  0.6252162278572423  1.0000
  S   S191      1.0  0.1321137778018918  0.9493175475082092  0.6141761616990299  1.0000
  S   S192      1.0  0.09679341767251914  0.0032545204281209106  0.6322028611177577  1.0000
  Fe  Fe97      1.0  0.39669014156393045  0.9129567341698709  0.9164077192017824  1.0000
  S   S193      1.0  0.40650122101321085  0.8947265136424475  0.8425138492352018  1.0000
  S   S194      1.0  0.3657932916699787  0.8990373940466628  0.9384999265792022  1.0000
  Fe  Fe98      1.0  0.43507379534905105  0.9476202863432225  0.9349011579287244  1.0000
  S   S195      1.0  0.44780953092027787  0.9323938087809027  0.8630315570092669  1.0000
  S   S196      1.0  0.45546586086596585  0.9803170941322868  0.9765476544780316  1.0000
  Fe  Fe99      1.0  0.41828103303154524  0.9441034224502425  0.8315633477897119  1.0000
  S   S197      1.0  0.41948562682150387  0.9655006649521392  0.7560750100045441  1.0000
  Fe  Fe100     1.0  0.4352071129942277  0.884303019033513  0.8802834718703609  1.0000
  S   S198      1.0  0.455122857590629  0.8431462806340921  0.8602551838363345  1.0000
  S   S199      1.0  0.4062461811424096  0.963841136883046  0.9021325326876267  1.0000
  S   S200      1.0  0.42459222546337116  0.898206329155539  0.9555289838279468  1.0000
  Fe  Fe101     1.0  0.4089005631386051  0.6688721201613688  0.5979823953273559  1.0000
  S   S201      1.0  0.4124839537343656  0.6715905262988676  0.6798479177770616  1.0000
  S   S202      1.0  0.382513005215236  0.6435016655976772  0.5654018509047819  1.0000
  Fe  Fe102     1.0  0.447033575778528  0.7045991058769794  0.5786286337998263  1.0000
  S   S203      1.0  0.45376240899882636  0.711567984154107  0.6588547233162361  1.0000
  S   S204      1.0  0.4654253134340241  0.7195628712345457  0.5142175860521219  1.0000
  Fe  Fe103     1.0  0.44429693856898117  0.6602232204536491  0.6656730842143261  1.0000
  S   S205      1.0  0.4625870322388975  0.628533841847235  0.7143644421577311  1.0000
  Fe  Fe104     1.0  0.4215080568253265  0.722528221357337  0.666117218943052  1.0000
  S   S206      1.0  0.406033348542395  0.7604908675262493  0.7103125526768492  1.0000
  S   S207      1.0  0.4399660940712987  0.6522629685564376  0.5848277671444022  1.0000
  S   S208      1.0  0.41570520960988705  0.7206997069427391  0.585010595206302  1.0000
  Fe  Fe105     1.0  0.5846377376666407  0.9895749337207861  0.0002950533091841123  1.0000
  S   S209      1.0  0.6038987053956807  0.9673410737381168  0.9428338272192182  1.0000
  S   S210      1.0  0.5888351478179541  0.04192196429286765  0.016879914359328563  1.0000
  Fe  Fe106     1.0  0.5587768589789771  0.9303288875825624  0.00972169659095612  1.0000
  S   S211      1.0  0.5759366321676146  0.9029290478146907  0.9532111371095412  1.0000
  S   S212      1.0  0.5322582253811243  0.904736747594668  0.04007382256958647  1.0000
  Fe  Fe107     1.0  0.6025863339403357  0.9237364037021618  0.9905876237374123  1.0000
  S   S213      1.0  0.6304330490156457  0.8966871083612624  0.007308578516612929  1.0000
  Fe  Fe108     1.0  0.5756174660354333  0.9489362716842248  0.9109210460305176  1.0000
  S   S214      1.0  0.5688980057594495  0.9556575940959825  0.8311163507759112  1.0000
  S   S215      1.0  0.5854822730495133  0.9472831266696755  0.051523845457035033  1.0000
  S   S216      1.0  0.556294783918977  0.9747291560775825  0.9640314031300883  1.0000
  Fe  Fe109     1.0  0.6783474239668132  0.9000674720456908  0.6471819213565796  1.0000
  S   S217      1.0  0.6758616279064963  0.9159124149666702  0.5686817746678005  1.0000
  S   S218      1.0  0.7065965814732982  0.9011529417650759  0.6901607907219905  1.0000
  Fe  Fe110     1.0  0.635730780436955  0.879768096352966  0.65193761834241  1.0000
  S   S219      1.0  0.6291427628949884  0.8943269690242824  0.5740960766415723  1.0000
  S   S220      1.0  0.6149103519277962  0.8545431987465862  0.7029855265315053  1.0000
  Fe  Fe111     1.0  0.658311567713053  0.871195631387292  0.557295914620241  1.0000
  S   S221      1.0  0.6637093186579225  0.841579829268736  0.48957095470393736  1.0000
  Fe  Fe112     1.0  0.647268266191974  0.9379251430829865  0.5926531102565398  1.0000
  S   S222      1.0  0.6413164176509136  0.9880190122811743  0.566136536204879  1.0000
  S   S223      1.0  0.6634089370014156  0.8529873993761614  0.6336004370922771  1.0000
  S   S224      1.0  0.6511749706207481  0.9255246382555223  0.6724362722787203  1.0000
  Fe  Fe113     1.0  0.5724956679169159  0.6951762209444783  0.5348787035805151  1.0000
  S   S225      1.0  0.5957727342975696  0.6664955484377447  0.573082408713796  1.0000
  S   S226      1.0  0.5540677106285893  0.7275210805364778  0.5820526024481321  1.0000
  Fe  Fe114     1.0  0.582227063973948  0.6669262346700853  0.4352349525735713  1.0000
  S   S227      1.0  0.6063775724592105  0.6355465945246469  0.46494136209900405  1.0000
  S   S228      1.0  0.5727123964888023  0.6635284309808394  0.3561398352138057  1.0000
  Fe  Fe115     1.0  0.5851614857939343  0.6257181815122064  0.5266121338266471  1.0000
  S   S229      1.0  0.5775029594322698  0.5784459700866718  0.5612316425930773  1.0000
  Fe  Fe116     1.0  0.6147147615466394  0.679439723128447  0.508529785324519  1.0000
  S   S230      1.0  0.6460271540656619  0.694644642193716  0.5242907203581261  1.0000
  S   S231      1.0  0.5602380628588877  0.6533538154327334  0.4932769953013501  1.0000
  S   S232      1.0  0.5921969961646034  0.7118379245019173  0.473926076370949  1.0000
  Fe  Fe117     1.0  0.7734907097080578  0.6812688342798544  0.2528858374215029  1.0000
  S   S233      1.0  0.7920248228173572  0.6881071167645916  0.3207886546624544  1.0000
  S   S234      1.0  0.7816524794182261  0.7019440197833189  0.17917316095422825  1.0000
  Fe  Fe118     1.0  0.7413584139542327  0.6463944382989206  0.3083551676029371  1.0000
  S   S235      1.0  0.7568778631573697  0.6498921409782291  0.3806306273083165  1.0000
  S   S236      1.0  0.7112769950365794  0.6248720037902624  0.3039497932679608  1.0000
  Fe  Fe119     1.0  0.7633461755702738  0.7005001859096128  0.3579143849483102  1.0000
  S   S237      1.0  0.7560984877712723  0.7395673518061621  0.4122191084318423  1.0000
  Fe  Fe120     1.0  0.7837773539798824  0.6369097616783433  0.33696745561273767  1.0000
  S   S238      1.0  0.8061594997182544  0.5997746178950799  0.3589769246084493  1.0000
  S   S239      1.0  0.7455248635699028  0.6979269927335005  0.2886225597490011  1.0000
  S   S240      1.0  0.767534389355737  0.6291428867266855  0.26600449292399037  1.0000
  Fe  Fe121     1.0  0.7949749398869008  0.9312577919027967  0.5379793366764068  1.0000
  S   S241      1.0  0.8142131788817852  0.9313317610849018  0.47115867956435703  1.0000
  S   S242      1.0  0.7652056048080353  0.954399872008754  0.5321928125798288  1.0000
  Fe  Fe122     1.0  0.8258428412024958  0.8984404788770114  0.6008188205434226  1.0000
  S   S243      1.0  0.847746684682111  0.8957494613005519  0.53913911847447  1.0000
  S   S244      1.0  0.831718430684764  0.8835402202903143  0.6790129347999345  1.0000
  Fe  Fe123     1.0  0.8382403286037947  0.946147641403851  0.5230416086775757  1.0000
  S   S245      1.0  0.8598332967833012  0.9849932301428679  0.5031594548503794  1.0000
  Fe  Fe124     1.0  0.8215446892499221  0.8809420908278515  0.49330445872991985  1.0000
  S   S246      1.0  0.8239376523386043  0.8435060789650667  0.43368910873595556  1.0000
  S   S247      1.0  0.818358002347353  0.9502425956916607  0.5883105871946316  1.0000
  S   S248      1.0  0.8002792828837414  0.8796088632243458  0.5565387565812402  1.0000
  Fe  Fe125     1.0  0.6072095447504002  0.6620538036814098  0.07296705496270373  1.0000
  S   S249      1.0  0.631574261597525  0.6657754642553563  0.017689125456616495  1.0000
  S   S250      1.0  0.5833291413668218  0.6248946471893709  0.06562628844851015  1.0000
  Fe  Fe126     1.0  0.6231175893580861  0.7170473025519113  0.13456954429310983  1.0000
  S   S251      1.0  0.6488105074082244  0.725639928494998  0.0844455294165276  1.0000
  S   S252      1.0  0.620544751107995  0.7465773850046806  0.2032436663746619  1.0000
  Fe  Fe127     1.0  0.6266647040520075  0.7188568717678999  0.023833156718374934  1.0000
  S   S253      1.0  0.6237648611420648  0.7496611724915844  0.956327874771822  1.0000
  Fe  Fe128     1.0  0.651284128501328  0.6720530190103567  0.08351715159649342  1.0000
  S   S254      1.0  0.6812187324988739  0.6487117245582289  0.08739950034243947  1.0000
  S   S255      1.0  0.6005771707909815  0.7147934101324025  0.07426131438411464  1.0000
  S   S256      1.0  0.6271812729980198  0.6638010712694474  0.13864016740042023  1.0000
  C   C193      1.0  0.7954576928500267  0.565370016345603  0.38552705063608494  1.0000
  C   C194      1.0  0.8226050090279942  0.060281528380018434  0.517630336855582  1.0000
  C   C195      1.0  0.8326585731059487  0.03138987900794499  0.5259452660519903  1.0000
  C   C196      1.0  0.8478750336335025  0.02193532511819085  0.49440210995120404  1.0000
  C   C197      1.0  0.8532092357450939  0.04174153841518757  0.45495377509924356  1.0000
  C   C198      1.0  0.8073253394910023  0.5390807087637959  0.3982030792500281  1.0000
  H   H129      1.0  0.8107903357676192  0.06739383824164213  0.5420743751897146  1.0000
  H   H130      1.0  0.8286680009919867  0.0165205578983203  0.5569122248775227  1.0000
  H   H131      1.0  0.8650287701769354  0.03456521919818001  0.4305528954562282  1.0000
  H   H132      1.0  0.8231500717541286  0.540400824296969  0.3930717791509874  1.0000
  C   C199      1.0  0.7748206758217739  0.7686597204047927  0.4177142439154638  1.0000
  C   C200      1.0  0.7898768101580751  0.7707903286922093  0.38272264042389703  1.0000
  C   C201      1.0  0.8048365299579111  0.7939160069470361  0.3879423804273811  1.0000
  C   C202      1.0  0.8047761891235584  0.8151196910761827  0.42801400638327636  1.0000
  C   C203      1.0  0.7896024505410952  0.8131428911409846  0.46277053430765547  1.0000
  C   C204      1.0  0.7746444284521646  0.7899783595087181  0.45760717347715407  1.0000
  H   H133      1.0  0.789943958818172  0.7548495688817067  0.35141060713042455  1.0000
  H   H134      1.0  0.8164860044390704  0.7954421059930341  0.36084479918787077  1.0000
  H   H135      1.0  0.789625801027237  0.8289680973653564  0.49408250784254293  1.0000
  H   H136      1.0  0.7632169017041412  0.7880339915951483  0.48511927162739693  1.0000
  C   C205      1.0  0.7026325966495599  0.6304728090614456  0.24397083178586745  1.0000
  C   C206      1.0  0.6839795303033877  0.6437967739879632  0.23609662613989904  1.0000
  C   C207      1.0  0.6774196485971015  0.649735715147111  0.1880444908581765  1.0000
  C   C208      1.0  0.6890846886681216  0.6410188172165503  0.14777330829807256  1.0000
  C   C209      1.0  0.7076752940512775  0.6272618966414228  0.1557936034614274  1.0000
  C   C210      1.0  0.714638725081597  0.6227282941301994  0.20388402332444985  1.0000
  H   H137      1.0  0.6747960950929651  0.6503297748194049  0.2670705155294704  1.0000
  H   H138      1.0  0.6634370524438441  0.6613752515966353  0.1824234612963123  1.0000
  H   H139      1.0  0.716789223106027  0.6205119306293421  0.1248128739556294  1.0000
  H   H140      1.0  0.7291820336461403  0.6129280578771249  0.20991540380537402  1.0000
  C   C211      1.0  0.5853163866140962  0.688887048968778  0.31535618722373815  1.0000
  C   C212      1.0  0.6013381165739045  0.7076014263647613  0.3309161007659053  1.0000
  C   C213      1.0  0.6118341882855481  0.7261804027890059  0.2966301556153831  1.0000
  C   C214      1.0  0.6067009362719696  0.7251631250261669  0.24665805651597736  1.0000
  C   C215      1.0  0.590697165348555  0.7064536111513667  0.23122266146120704  1.0000
  C   C216      1.0  0.5797563591713977  0.6889647835592485  0.26573635778923477  1.0000
  H   H141      1.0  0.6057383995983038  0.7075684893150822  0.36914910198933426  1.0000
  H   H142      1.0  0.624220042207606  0.7406655559167054  0.3085918407889271  1.0000
  H   H143      1.0  0.5865758477935612  0.7058337794216285  0.19273803956420274  1.0000
  H   H144      1.0  0.5670325272683772  0.6752494475637335  0.25392512350654706  1.0000
  C   C217      1.0  0.6589762444870731  0.8007477154817638  0.4990315642928711  1.0000
  C   C218      1.0  0.6685283693298846  0.784113838204178  0.5368720464388735  1.0000
  C   C219      1.0  0.6645533982176225  0.7514275247592235  0.5442149140672768  1.0000
  C   C220      1.0  0.6507279948797746  0.735522237241415  0.5144815877505959  1.0000
  C   C221      1.0  0.6412724175553598  0.7521291809941536  0.47651519119218655  1.0000
  C   C222      1.0  0.6455905915435186  0.7846190983807106  0.4684062794669175  1.0000
  H   H145      1.0  0.6789731879909875  0.7963969774629638  0.5604606721500525  1.0000
  H   H146      1.0  0.6719819961317449  0.7385468203296865  0.5734390222137609  1.0000
  H   H147      1.0  0.6309490295084633  0.7398191193889757  0.4526476452938705  1.0000
  H   H148      1.0  0.6383330764882116  0.797392277281712  0.43879689190858223  1.0000
  C   C223      1.0  0.6314827314564341  0.013079675874573926  0.6118260082788406  1.0000
  C   C224      1.0  0.6138229598173481  0.5090086107112712  0.6126547936284181  1.0000
  C   C225      1.0  0.5969036023202086  0.5266312141291594  0.5999098116883734  1.0000
  C   C226      1.0  0.598747333835454  0.5566714153400729  0.5772441599433  1.0000
  C   C227      1.0  0.6175317469584544  0.5690861607906339  0.5674066964314922  1.0000
  C   C228      1.0  0.6344278642141996  0.5513769408865618  0.5797841485939776  1.0000
  H   H149      1.0  0.6170045416823575  0.9751197886080475  0.6516366688498647  1.0000
  H   H150      1.0  0.5823908627023612  0.5169398176281421  0.6073861990885859  1.0000
  H   H151      1.0  0.6190617343193704  0.5923383111133538  0.5502677167995064  1.0000
  H   H152      1.0  0.6489203041614652  0.5610594018106595  0.572037044444841  1.0000
  C   C229      1.0  0.7241088672521102  0.9211711579979156  0.6539616498268066  1.0000
  C   C230      1.0  0.7438635217283087  0.9113338860503096  0.6543004722908736  1.0000
  C   C231      1.0  0.7569962844568942  0.9230831624255899  0.6186618207504025  1.0000
  C   C232      1.0  0.7502594186913378  0.9442838115274365  0.582406502101559  1.0000
  C   C233      1.0  0.7308609680458482  0.9556112868918162  0.5840892791869238  1.0000
  C   C234      1.0  0.7178742990959825  0.9442997988701656  0.620159361027191  1.0000
  H   H153      1.0  0.7488107250847377  0.8936455792351057  0.680692469039626  1.0000
  H   H154      1.0  0.7721145298237725  0.91483008243343  0.6183011720173451  1.0000
  H   H155      1.0  0.7256937428808962  0.9725317192332371  0.5568006569298268  1.0000
  H   H156      1.0  0.702909492884145  0.9532102968733208  0.6214039888114702  1.0000
  C   C235      1.0  0.6295601452512782  0.8561858907751679  0.9904224724769852  1.0000
  C   C236      1.0  0.6408741403325169  0.8339253623424573  0.016623987459768896  1.0000
  C   C237      1.0  0.6393114877335545  0.8011236124005081  0.005938757158594932  1.0000
  C   C238      1.0  0.6268047672907412  0.7906372388062609  0.9682023728315687  1.0000
  C   C239      1.0  0.616181828997507  0.8130677880636876  0.9404640015742387  1.0000
  C   C240      1.0  0.6173698306555422  0.8458187480174796  0.951975690877843  1.0000
  H   H157      1.0  0.6504737163633842  0.8419571530758672  0.04607625204716448  1.0000
  H   H158      1.0  0.6478211875521978  0.7839751775571118  0.026793744824698203  1.0000
  H   H159      1.0  0.6066329312312199  0.8049661385271321  0.9109467994824971  1.0000
  H   H160      1.0  0.6089936807630604  0.862980055577557  0.9308273532252835  1.0000
  C   C241      1.0  0.6052555674868612  0.04994272635702335  0.06560209361482872  1.0000
  C   C242      1.0  0.6159383469801316  0.025222387143997826  0.08800818329666082  1.0000
  C   C243      1.0  0.578980959689857  0.5602727043853832  0.07893078314029944  1.0000
  C   C244      1.0  0.5921337402662522  0.5862343441068948  0.07778978155970505  1.0000
  C   C245      1.0  0.6120797018034349  0.5814212567830175  0.08885877214293814  1.0000
  C   C246      1.0  0.6077326407627848  0.08157811446346175  0.08201669439110049  1.0000
  H   H161      1.0  0.6142533263190845  0.0008017915100213546  0.07525910373017686  1.0000
  H   H162      1.0  0.5635205140953407  0.5639772408131521  0.07044500156493494  1.0000
  H   H163      1.0  0.6223464377242068  0.6012929382464477  0.0876024305348082  1.0000
  H   H164      1.0  0.599578781626956  0.10079581576212471  0.06465153927097544  1.0000
  C   C247      1.0  0.5810823223540086  0.9271633501922895  0.7949042239209878  1.0000
  C   C248      1.0  0.5876462725633148  0.9354972705852124  0.7478266105316406  1.0000
  C   C249      1.0  0.5979568255650389  0.9131230493202738  0.7191701707176926  1.0000
  C   C250      1.0  0.601059124265898  0.8820811407127548  0.7369646040169406  1.0000
  C   C251      1.0  0.594036906258712  0.8734631753506988  0.7835070728090197  1.0000
  C   C252      1.0  0.5843819311405393  0.8961879576538482  0.8128622103664459  1.0000
  H   H165      1.0  0.5850552867834778  0.9594121975945901  0.7337853198524767  1.0000
  H   H166      1.0  0.6033639706425661  0.9198464105840405  0.683168533159941  1.0000
  H   H167      1.0  0.596451579922914  0.8494307250259991  0.7972887705065155  1.0000
  H   H168      1.0  0.5792715567387686  0.8895522182986343  0.8490218426858741  1.0000
  C   C253      1.0  0.4901214627235353  0.7254328607794834  0.5312338827205614  1.0000
  C   C254      1.0  0.5052097757634845  0.7188045082977281  0.4975918150377638  1.0000
  C   C255      1.0  0.5250328574830901  0.7204823271763151  0.5125133731588009  1.0000
  C   C256      1.0  0.5297001339411763  0.7291161358531087  0.5609180830463609  1.0000
  C   C257      1.0  0.5146653537858683  0.7373767302428113  0.5937314538399355  1.0000
  C   C258      1.0  0.4948854261010311  0.7353163561806285  0.5789755381464647  1.0000
  H   H169      1.0  0.5015719770061522  0.711473764048588  0.4604332967603817  1.0000
  H   H170      1.0  0.5366481377250679  0.7146771527566081  0.48672802005393184  1.0000
  H   H171      1.0  0.5182786009768048  0.7444907716929877  0.6309933214977439  1.0000
  H   H172      1.0  0.48335297916479036  0.7416909037408018  0.6044234674975715  1.0000
  C   C259      1.0  0.4418051556613446  0.8153759804796097  0.8247043174429591  1.0000
  C   C260      1.0  0.4516027104291434  0.7957651903136995  0.7907365708798424  1.0000
  C   C261      1.0  0.44071027717592637  0.7772689166597685  0.7569542411215214  1.0000
  C   C262      1.0  0.4200531079873261  0.7787139466395979  0.7569168611326914  1.0000
  C   C263      1.0  0.41032853074444786  0.797280154161936  0.7922118317492449  1.0000
  C   C264      1.0  0.4211893471312004  0.8152573054652603  0.826383613111715  1.0000
  H   H173      1.0  0.46757327713340574  0.795700524700084  0.7893962972803013  1.0000
  H   H174      1.0  0.44832668724800373  0.7630488982334981  0.7297417122539092  1.0000
  H   H175      1.0  0.39435950552367566  0.7981822450593316  0.7927817041170137  1.0000
  H   H176      1.0  0.41356929357841304  0.8291886115928025  0.8539490513903574  1.0000
  C   C265      1.0  0.40856730494026444  0.0033747568610906775  0.7507969891636506  1.0000
  C   C266      1.0  0.39420145347687185  0.013816951092585628  0.7841104950403159  1.0000
  C   C267      1.0  0.4440163097415046  0.577026354719153  0.6716670835273568  1.0000
  C   C268      1.0  0.45690753337667983  0.587714379871918  0.7084453106109935  1.0000
  C   C269      1.0  0.46545917935869485  0.5656128490968277  0.7408193710220892  1.0000
  C   C270      1.0  0.41499279923738047  0.02383063201023261  0.7134129306421624  1.0000
  H   H177      1.0  0.38899284374800364  0.997915310748558  0.8127152207281494  1.0000
  H   H178      1.0  0.43731752086922326  0.59394602799662  0.6466361844762029  1.0000
  H   H179      1.0  0.47556040128139704  0.5738311280475756  0.7690862044026292  1.0000
  H   H180      1.0  0.42610405158499365  0.015841831980372145  0.6875729315446583  1.0000
  C   C271      1.0  0.47630279523667274  0.9595378996715043  0.9984059602562793  1.0000
  C   C272      1.0  0.49376440565228413  0.9763215602830679  0.008635181536410075  1.0000
  C   C273      1.0  0.5108316117707771  0.9597089909231317  0.023189137102516577  1.0000
  C   C274      1.0  0.5104322235028113  0.9263085007184538  0.02826194838181295  1.0000
  C   C275      1.0  0.4927273343991862  0.9097122418448543  0.02026604212719607  1.0000
  C   C276      1.0  0.47580193089784134  0.9262069640347467  0.004481561420971003  1.0000
  H   H181      1.0  0.49418111216821436  0.0021483445414440805  0.0047900044796211905  1.0000
  H   H182      1.0  0.5242105919792313  0.9728614453782961  0.031244954843771433  1.0000
  H   H183      1.0  0.49220141467240075  0.8839607046421531  0.025059644505640355  1.0000
  H   H184      1.0  0.46232703932153435  0.9131133965592667  0.9975651493705481  1.0000
  C   C277      1.0  0.8302021713468749  0.6471952165905239  0.09856764136985063  1.0000
  C   C278      1.0  0.8268129589941153  0.679580272887577  0.08814591794613635  1.0000
  C   C279      1.0  0.8113148766676178  0.6959459761892486  0.11155343104345916  1.0000
  C   C280      1.0  0.7994702235865027  0.6801553370178886  0.14617233440494454  1.0000
  C   C281      1.0  0.8026463993106611  0.6476263403519689  0.15586386467854135  1.0000
  C   C282      1.0  0.8178457364928663  0.6311122521872964  0.13169264201256595  1.0000
  H   H185      1.0  0.8362236984542882  0.6920941789950281  0.062346245710427343  1.0000
  H   H186      1.0  0.8089332094660188  0.7211248574166811  0.1039007598490571  1.0000
  H   H187      1.0  0.7934957656369391  0.6351876031578739  0.18211411640592903  1.0000
  H   H188      1.0  0.8203576723312795  0.6059895116600471  0.13949030478559044  1.0000
  C   C283      1.0  0.9248784062407721  0.025785219766372824  0.8338625009000992  1.0000
  C   C284      1.0  0.9437324264651866  0.02503001460512544  0.8549538838557983  1.0000
  C   C285      1.0  0.9032833634802324  0.581463728603936  0.8168863970184838  1.0000
  C   C286      1.0  0.8941495286922525  0.6020844679009268  0.850609990601885  1.0000
  C   C287      1.0  0.8780993119957562  0.5911596448676572  0.8782629125347089  1.0000
  C   C288      1.0  0.9136870599482562  0.05391961356491359  0.836054071229204  1.0000
  H   H189      1.0  0.9525819719658666  0.0035972867100382278  0.8524161333892747  1.0000
  H   H190      1.0  0.9156178942075941  0.5899388729299382  0.795211700105676  1.0000
  H   H191      1.0  0.8710068253460229  0.6069447602448093  0.9044608257158776  1.0000
  H   H192      1.0  0.8992169813333596  0.054732398542101546  0.8191048770764521  1.0000
  C   C289      1.0  0.9143476904598057  0.8441696872514958  0.9699907304852925  1.0000
  C   C290      1.0  0.9156167234384306  0.815716324760649  0.9971032915262987  1.0000
  C   C291      1.0  0.9004302683923612  0.7928681119616516  0.99431358716266  1.0000
  C   C292      1.0  0.8836299656419763  0.7990116287090673  0.965814668204474  1.0000
  C   C293      1.0  0.8819004902524142  0.828170807411506  0.9407454009731057  1.0000
  C   C294      1.0  0.8973658181886509  0.850534340484305  0.9423227356476813  1.0000
  H   H193      1.0  0.9284420527233767  0.8110712440985085  0.019599536879936208  1.0000
  H   H194      1.0  0.9016639209882796  0.7705884400074237  0.014445834219645626  1.0000
  H   H195      1.0  0.8688029607147705  0.833180113886618  0.9192333526908752  1.0000
  H   H196      1.0  0.8959563430776416  0.8729327926399739  0.9228517076194068  1.0000
  C   C295      1.0  0.013837301693087056  0.9292414110572903  0.7658717479761028  1.0000
  C   C296      1.0  0.0342216552826633  0.9348286088272786  0.7646005925600644  1.0000
  C   C297      1.0  0.04303180423158404  0.9473484225649237  0.7221309861920604  1.0000
  C   C298      1.0  0.031572587167007615  0.953775236426795  0.6804609117678665  1.0000
  C   C299      1.0  0.011145097641639845  0.9487063555105275  0.6820183793433553  1.0000
  C   C300      1.0  0.0022882227281975087  0.9364527135780379  0.7246783138084223  1.0000
  H   H197      1.0  0.043218378500408106  0.9294800338777574  0.7964684525761524  1.0000
  H   H198      1.0  0.05864325037371487  0.9522017319535538  0.7218235617074948  1.0000
  H   H199      1.0  0.0021728106732448182  0.9538890992446684  0.6499948149459843  1.0000
  H   H200      1.0  0.9865845408108778  0.9322974988035295  0.7253208730378109  1.0000
  C   C301      1.0  0.8948180275564618  0.8533521463480096  0.7153147463001435  1.0000
  C   C302      1.0  0.8820838672926353  0.8639906645420613  0.7522920045598223  1.0000
  C   C303      1.0  0.8625931248371774  0.8724292351851439  0.740885788150644  1.0000
  C   C304      1.0  0.8557725246163834  0.8705580353642106  0.6923398061767563  1.0000
  C   C305      1.0  0.8683226339521842  0.85909998771293  0.6554580177646391  1.0000
  C   C306      1.0  0.8877779560039344  0.8501438908724465  0.6670665952706373  1.0000
  H   H201      1.0  0.8870502152194876  0.8651152901181614  0.7899371888809114  1.0000
  H   H202      1.0  0.852828173679272  0.8808239069462288  0.7696442897196647  1.0000
  H   H203      1.0  0.8629887403259786  0.8567377483968409  0.6181488488870387  1.0000
  H   H204      1.0  0.8974697777295086  0.841379631286352  0.6384288307640905  1.0000
  C   C307      1.0  0.09092717760109693  0.9855071767304062  0.8793563736813588  1.0000
  C   C308      1.0  0.08288338998589206  0.9800185123714591  0.8325939301260413  1.0000
  C   C309      1.0  0.09503809163270427  0.980914812885011  0.7909276360388574  1.0000
  C   C310      1.0  0.11524823808318496  0.987059957777923  0.7960094989427737  1.0000
  C   C311      1.0  0.12318674891824055  0.9933806850256827  0.8426240902267051  1.0000
  C   C312      1.0  0.11101701752273306  0.9926776863640817  0.8843113020043978  1.0000
  H   H205      1.0  0.0673447522106021  0.9745992793806042  0.8285126509412306  1.0000
  H   H206      1.0  0.08879661111627257  0.976722195673183  0.7549081576486565  1.0000
  H   H207      1.0  0.1388111919652859  0.9983260040661275  0.8466211869892357  1.0000
  H   H208      1.0  0.11727272178526249  0.9973056424598892  0.9202676551334419  1.0000
  C   C313      1.0  0.0787056695945838  0.8277391741304245  0.028753149251962817  1.0000
  C   C314      1.0  0.09177725419861993  0.817467793513733  0.0654559153323655  1.0000
  C   C315      1.0  0.10180610723225225  0.8400930816064892  0.09475462441800198  1.0000
  C   C316      1.0  0.09895802562831713  0.8729952680604293  0.08693147169504778  1.0000
  C   C317      1.0  0.08574822581388442  0.8831393025900438  0.050568480282997985  1.0000
  C   C318      1.0  0.07545883819572397  0.8605812545143716  0.022103495640971582  1.0000
  H   H209      1.0  0.09458520793493763  0.792226365525232  0.07036797314122722  1.0000
  H   H210      1.0  0.1121495175792051  0.8321513174142806  0.12252673692925095  1.0000
  H   H211      1.0  0.08340510444753635  0.9083733258651359  0.04427866702150718  1.0000
  H   H212      1.0  0.0650312971483289  0.8686019737406505  0.9946212616383394  1.0000
  C   C319      1.0  0.11312901540936493  0.6189085223975156  0.03762790221917611  1.0000
  C   C320      1.0  0.05589010794007554  0.09555319641839954  0.024167828196542285  1.0000
  C   C321      1.0  0.06196423442308885  0.07279867114572114  0.05892676092965532  1.0000
  C   C322      1.0  0.06626808654622018  0.0822837811518462  0.10719377374351491  1.0000
  C   C323      1.0  0.0631131524317432  0.11410954837485865  0.12158591614034238  1.0000
  C   C324      1.0  0.05717872366252097  0.13694188226325843  0.08673707927047936  1.0000
  H   H213      1.0  0.05339645432627238  0.08838303678650172  0.9863720589401975  1.0000
  H   H214      1.0  0.0638533256544569  0.04803993842899734  0.0480029727288378  1.0000
  H   H215      1.0  0.0661945550664409  0.12145400572389864  0.1590409419297809  1.0000
  H   H216      1.0  0.09423621748676747  0.6387783249443013  0.09314583579418122  1.0000
  C   C325      1.0  0.9954065963389298  0.6686445444693515  0.9862162669830401  1.0000
  C   C326      1.0  0.9962779004404292  0.674689023372977  0.03679814464005782  1.0000
  C   C327      1.0  0.9789180961117554  0.6807298876963997  0.06316103182380584  1.0000
  C   C328      1.0  0.9606386758407026  0.6807233872846198  0.0390787463735518  1.0000
  C   C329      1.0  0.9596709550052278  0.6736373666049511  0.9887665436044194  1.0000
  C   C330      1.0  0.9770632660620091  0.6674375889414428  0.962350563590274  1.0000
  H   H217      1.0  0.010368173989873997  0.6751900440512053  0.055609772557031256  1.0000
  H   H218      1.0  0.9797029883302966  0.6859801676074488  0.1021521819257254  1.0000
  H   H219      1.0  0.9455921179345689  0.6736743342938852  0.9699709370569378  1.0000
  H   H220      1.0  0.9763653559689034  0.662971113956065  0.9231439254283847  1.0000
  C   C331      1.0  0.10526433915378486  0.841201717410713  0.547693704668737  1.0000
  C   C332      1.0  0.10190998117238981  0.8080885655739801  0.5466889447040748  1.0000
  C   C333      1.0  0.09984124407258221  0.7920235475299644  0.5017289846792364  1.0000
  C   C334      1.0  0.10113612215843948  0.8089841989377338  0.4575416922646066  1.0000
  C   C335      1.0  0.1034347819718009  0.8424099262813581  0.45850318113113453  1.0000
  C   C336      1.0  0.10557233262542232  0.8585568328795791  0.50366303308754  1.0000
  H   H221      1.0  0.10131240244828167  0.7946365724682187  0.580694183431739  1.0000
  H   H222      1.0  0.09737703263535291  0.7663770286208792  0.5012361502259018  1.0000
  H   H223      1.0  0.1043993525970921  0.85562120036081  0.4243361417310564  1.0000
  H   H224      1.0  0.10828594760048049  0.8841397356063001  0.5041956502450623  1.0000
  C   C337      1.0  0.10953200082167817  0.6176621272478304  0.5574536433988784  1.0000
  C   C338      1.0  0.10415421311056751  0.604668920097349  0.6030780006794472  1.0000
  C   C339      1.0  0.10184312063385592  0.06002015226909885  0.5277555613226642  1.0000
  C   C340      1.0  0.12017424799400045  0.05070137655855689  0.5090126909300976  1.0000
  C   C341      1.0  0.13309626721449996  0.07392475173343094  0.490366586341792  1.0000
  C   C342      1.0  0.1279292504013576  0.10648194763775676  0.49159204935368533  1.0000
  H   H225      1.0  0.09761473157420308  0.6199520242249718  0.6308262688969473  1.0000
  H   H226      1.0  0.09164857799818571  0.0421486575542771  0.5414260827602798  1.0000
  H   H227      1.0  0.1473239806393185  0.06677346985744048  0.47597558870998863  1.0000
  H   H228      1.0  0.12211085858322668  0.6076268828337245  0.48640279277182213  1.0000
  C   C343      1.0  0.10241165490939697  0.6604306146181533  0.26298703311977883  1.0000
  C   C344      1.0  0.1036261087202821  0.6640730840731934  0.2119127065587044  1.0000
  C   C345      1.0  0.08754889707375235  0.6764803211997168  0.18559501482779575  1.0000
  C   C346      1.0  0.07013492004778654  0.6847550046006009  0.21001678754716052  1.0000
  C   C347      1.0  0.06866226401012976  0.6800112873847466  0.2608198452730631  1.0000
  C   C348      1.0  0.08481572436641871  0.6679386697278035  0.2872905214991841  1.0000
  H   H229      1.0  0.11715595721798241  0.6583186001961554  0.19278515059345516  1.0000
  H   H230      1.0  0.08877245569146776  0.6802396177785822  0.14653904525953435  1.0000
  H   H231      1.0  0.055125104117935475  0.686031431927955  0.2798033198292397  1.0000
  H   H232      1.0  0.08354533844388756  0.6641291243477444  0.32640011651017253  1.0000
  C   C349      1.0  0.3395611369457732  0.9485975187232738  0.07322119311526065  1.0000
  C   C350      1.0  0.35992519178153987  0.9503582613298308  0.06433304049281308  1.0000
  C   C351      1.0  0.3680602263858442  0.9359249708762957  0.02228505941399539  1.0000
  C   C352      1.0  0.35585356744012175  0.9193309055140519  0.9893765225120703  1.0000
  C   C353      1.0  0.33547139813973725  0.917698253159679  0.9981985032794501  1.0000
  C   C354      1.0  0.32729229607652405  0.932563072892214  0.03982618238911195  1.0000
  H   H233      1.0  0.3694826798510271  0.9626897189596528  0.09013188565053665  1.0000
  H   H234      1.0  0.3838079168739656  0.9371488929071352  0.01572182776565989  1.0000
  H   H235      1.0  0.3259947783096231  0.9049659355496718  0.9726485660709238  1.0000
  H   H236      1.0  0.31154357543774114  0.9313002710835073  0.046247698717890584  1.0000
  C   C355      1.0  0.21406744793175964  0.9665996110390134  0.04121051492839811  1.0000
  C   C356      1.0  0.19668235957628072  0.9582406160266153  0.016211257639845433  1.0000
  C   C357      1.0  0.18035820785299267  0.9789677251848365  0.0167707642969519  1.0000
  C   C358      1.0  0.18171427512546956  0.008676726883052988  0.040539435003435376  1.0000
  C   C359      1.0  0.19939379552081876  0.017619990831970744  0.06366988788018246  1.0000
  C   C360      1.0  0.21543389388451725  0.9963587671022809  0.06480588024131384  1.0000
  H   H237      1.0  0.19563163643694728  0.9352520265632319  0.9978253089346307  1.0000
  H   H238      1.0  0.16678939364161716  0.9720555398052025  0.9985746754432363  1.0000
  H   H239      1.0  0.20048410740807115  0.04055253587656393  0.08221940801266614  1.0000
  H   H240      1.0  0.22884146565078065  0.0029964936450674884  0.08403854071233874  1.0000
  C   C361      1.0  0.2946914038616876  0.7959016955041134  0.2348127039341719  1.0000
  C   C362      1.0  0.2877698497150226  0.8144897272008444  0.19558429116123507  1.0000
  C   C363      1.0  0.2780084917101134  0.843545915855514  0.2045629376793366  1.0000
  C   C364      1.0  0.2752865855358369  0.8543212504088267  0.25281480553877683  1.0000
  C   C365      1.0  0.28199316499392757  0.8355044638424878  0.2921347695821193  1.0000
  C   C366      1.0  0.2917773004041771  0.8063705399313184  0.2831511148698172  1.0000
  H   H241      1.0  0.2896935459502844  0.8061476042779232  0.158162038590593  1.0000
  H   H242      1.0  0.27212138707280525  0.8571169872744661  0.17414804068728176  1.0000
  H   H243      1.0  0.27987878758695756  0.8437028736829482  0.3295716079521627  1.0000
  H   H244      1.0  0.297334624029333  0.7923089752436056  0.3136051160721615  1.0000
  C   C367      1.0  0.27420622868387806  0.06793587708336779  0.25039316376077464  1.0000
  C   C368      1.0  0.27663358099776375  0.10132961045196698  0.2503126832427107  1.0000
  C   C369      1.0  0.3423248626621331  0.562489885523161  0.2627990080479244  1.0000
  C   C370      1.0  0.33992347542680773  0.5957942846379668  0.2594596605717168  1.0000
  C   C371      1.0  0.29804265363668914  0.063935783735668  0.3167787173002762  1.0000
  C   C372      1.0  0.28509453161448156  0.04922904722871135  0.28329174327273604  1.0000
  H   H245      1.0  0.2683478592552289  0.11584474860527783  0.22453791967455983  1.0000
  H   H246      1.0  0.3488435449527281  0.552058684316205  0.2954482853644734  1.0000
  H   H247      1.0  0.30610944964452785  0.04941270992563829  0.3429727493862099  1.0000
  H   H248      1.0  0.28307520945863845  0.023520091726990655  0.28409002717235793  1.0000
  C   C373      1.0  0.23201241009738938  0.6687407123046853  0.3568204048412728  1.0000
  C   C374      1.0  0.23805480878794774  0.6900089541652111  0.39371414549943096  1.0000
  C   C375      1.0  0.2239779462187725  0.7065390968955321  0.4216978214376692  1.0000
  C   C376      1.0  0.20380597300009046  0.7015948100027378  0.413263039857368  1.0000
  C   C377      1.0  0.19769871368245176  0.679775035424131  0.3770741757706749  1.0000
  C   C378      1.0  0.21182112180959967  0.6633404247041673  0.34884456879378045  1.0000
  H   H249      1.0  0.25359582151261734  0.6936270549374871  0.4009878800742846  1.0000
  H   H250      1.0  0.2287478328280471  0.7231054860494782  0.4500443049573197  1.0000
  H   H251      1.0  0.18211618604421473  0.6758273871015117  0.3704996696051473  1.0000
  H   H252      1.0  0.20709299919699767  0.6467993301635924  0.32045041726065754  1.0000
  C   C379      1.0  0.33461911357297386  0.7053277561316159  0.4946869226187902  1.0000
  C   C380      1.0  0.33277516304342636  0.6718984738344099  0.4954819996075972  1.0000
  C   C381      1.0  0.3473444545791718  0.6531018229151481  0.5181917053980205  1.0000
  C   C382      1.0  0.36403121826503126  0.6676187273147514  0.5391084640285143  1.0000
  C   C383      1.0  0.3657878736934251  0.7010281882591396  0.5382751975502056  1.0000
  C   C384      1.0  0.3510199107359519  0.7198817569223415  0.5166667543112671  1.0000
  H   H253      1.0  0.3199705251144696  0.6605292142231978  0.479246470301342  1.0000
  H   H254      1.0  0.3457616031801761  0.6272554795581285  0.5189977340509151  1.0000
  H   H255      1.0  0.378477066709187  0.7125046835275242  0.5540217256263275  1.0000
  H   H256      1.0  0.3525539583801571  0.7457317856784422  0.5157302360347408  1.0000
  N   N1        1.0  0.33197390432736923  0.06338414549501104  0.16740273120955207  1.0000
  C   C385      1.0  0.3333397606208548  0.08796371421769544  0.12838587650350464  1.0000
  C   C386      1.0  0.3131599960086912  0.045666063937801704  0.16215987832346346  1.0000
  C   C387      1.0  0.33269202960354705  0.07911628304351193  0.21616884291141947  1.0000
  C   C388      1.0  0.3486606260981147  0.04073559149304118  0.16280320376197044  1.0000
  H   H257      1.0  0.3328233324914668  0.07683508396342908  0.09109582161779395  1.0000
  H   H258      1.0  0.34735437561371374  0.10186956983879591  0.13124542153152707  1.0000
  H   H259      1.0  0.32089598468112784  0.10535791132264083  0.130739998652047  1.0000
  H   H260      1.0  0.31152285138844027  0.027200389731493635  0.19139581389864047  1.0000
  H   H261      1.0  0.30015612616748577  0.06192426655974059  0.16470069386289055  1.0000
  H   H262      1.0  0.31232674432820684  0.03294677174812599  0.12613924723285375  1.0000
  H   H263      1.0  0.33131267291764555  0.06133381463911469  0.24653628333451838  1.0000
  H   H264      1.0  0.32045490396087384  0.0966626399484467  0.22049500628269736  1.0000
  H   H265      1.0  0.34678224819105863  0.09242830672387292  0.22184533991393618  1.0000
  H   H266      1.0  0.363133852408332  0.053065692392323616  0.16744585026975356  1.0000
  H   H267      1.0  0.348702932877247  0.028764219985858652  0.12608673886426902  1.0000
  H   H268      1.0  0.34773930783723683  0.021302099227523463  0.19082947609667933  1.0000
  N   N2        1.0  0.8363218379907478  0.46252283531975974  0.7149063669219476  1.0000
  C   C389      1.0  0.8365677666168566  0.4647187156816929  0.6606256963229887  1.0000
  C   C390      1.0  0.8376200683727039  0.4950833918057263  0.7363592919519566  1.0000
  C   C391      1.0  0.8533317770405064  0.44322765830662025  0.7318519725619917  1.0000
  C   C392      1.0  0.8177260930080084  0.4470901117667219  0.7308568043117674  1.0000
  H   H269      1.0  0.8505525437673942  0.4756189558104742  0.646992985486667  1.0000
  H   H270      1.0  0.8241055342512709  0.4795427149882771  0.6466486041935207  1.0000
  H   H271      1.0  0.8351582146859101  0.4406087281147144  0.6432981977722934  1.0000
  H   H272      1.0  0.8367977000905976  0.49433026383121326  0.7772914336338869  1.0000
  H   H273      1.0  0.8518610319238213  0.5069717603096243  0.7268725184051609  1.0000
  H   H274      1.0  0.8253950331523603  0.5107095667335865  0.7232176617403452  1.0000
  H   H275      1.0  0.8537397852377697  0.441611359480603  0.7727707959036199  1.0000
  H   H276      1.0  0.8676138005695142  0.45405949648759664  0.7200894922841223  1.0000
  H   H277      1.0  0.8527695832362732  0.41837705608465997  0.7168573772981031  1.0000
  H   H278      1.0  0.8159912944095431  0.42268707254899174  0.7145894521061052  1.0000
  H   H279      1.0  0.8045844433101988  0.4612587377947694  0.7192117713663226  1.0000
  H   H280      1.0  0.8170999161008703  0.44457513416696814  0.7716015400399174  1.0000
  N   N3        1.0  0.2339021337519449  0.7636037361115954  0.2817221843868021  1.0000
  C   C393      1.0  0.21389397669272703  0.7500488951346083  0.28831144988284846  1.0000
  C   C394      1.0  0.24690319272494587  0.7391027753913819  0.2594218446842533  1.0000
  C   C395      1.0  0.24188378160482205  0.7733687596033629  0.3301643816690882  1.0000
  C   C396      1.0  0.23294840607123524  0.7918902108677104  0.24906607501626846  1.0000
  H   H281      1.0  0.20369592226510957  0.7677321875737186  0.3054636947296335  1.0000
  H   H282      1.0  0.21423356999575183  0.7286746673863631  0.3128131711767812  1.0000
  H   H283      1.0  0.20737272145149221  0.742256277636518  0.25262954766205303  1.0000
  H   H284      1.0  0.26220424823976574  0.7483949334904031  0.25415669177703626  1.0000
  H   H285      1.0  0.24789346253825384  0.7172932027991665  0.28291509244634955  1.0000
  H   H286      1.0  0.2413934171250851  0.7312733629361975  0.22273242218931172  1.0000
  H   H287      1.0  0.23250169099421036  0.7919438923246521  0.34794164688761015  1.0000
  H   H288      1.0  0.2570212391515696  0.7834944788106367  0.326793889994835  1.0000
  H   H289      1.0  0.24277880566234877  0.7526521574770546  0.35582177336652143  1.0000
  H   H290      1.0  0.2267839034256498  0.785575544728547  0.21232002819971615  1.0000
  H   H291      1.0  0.2479051803530432  0.8021886847742763  0.24288545169043058  1.0000
  H   H292      1.0  0.22369302167563476  0.811284277788005  0.26515192088435946  1.0000
  N   N4        1.0  0.9428082461918023  0.5651938832054929  0.9329890364369876  1.0000
  C   C397      1.0  0.9464570505272866  0.5772219214631245  0.8826722256530857  1.0000
  C   C398      1.0  0.9496986286212491  0.5892897332204163  0.969173161834173  1.0000
  C   C399      1.0  0.9536063202521067  0.5347561581320273  0.9401140541867828  1.0000
  C   C400      1.0  0.9214223314166  0.5595545202175876  0.9398265853477512  1.0000
  H   H293      1.0  0.9413625366523661  0.5596779178143668  0.8543759955667555  1.0000
  H   H294      1.0  0.9624453774503685  0.581725246849674  0.8762054618282599  1.0000
  H   H295      1.0  0.9385236485685972  0.6002005267827242  0.8759555046325245  1.0000
  H   H296      1.0  0.9657625813987428  0.5944029701191033  0.9651027920216754  1.0000
  H   H297      1.0  0.9417297667661985  0.6124581851662007  0.9644568563798782  1.0000
  H   H298      1.0  0.947091845406957  0.581224357385894  0.007648656930185237  1.0000
  H   H299      1.0  0.9513300200624992  0.5250051577059657  0.9777628861655688  1.0000
  H   H300      1.0  0.96976798648019  0.5379346872431173  0.9343658900356702  1.0000
  H   H301      1.0  0.9485568051781446  0.5161478750588  0.9133986879199061  1.0000
  H   H302      1.0  0.91290774482894  0.582226935470459  0.9359912186959896  1.0000
  H   H303      1.0  0.9181163786101277  0.5497573898954304  0.9769751508637684  1.0000
  H   H304      1.0  0.9154816056562188  0.5423061734743546  0.9121222689359014  1.0000
  N   N5        1.0  0.6461449359014676  0.2814359547930345  0.6455982945959718  1.0000
  C   C401      1.0  0.6646895699069663  0.27814608406335767  0.6174231410443741  1.0000
  C   C402      1.0  0.6438479048993279  0.25365078978080713  0.6788548477401969  1.0000
  C   C403      1.0  0.6292074168801661  0.28272709741330254  0.6112480489569387  1.0000
  C   C404      1.0  0.6468205268608757  0.3112792801379634  0.6749135421748584  1.0000
  H   H305      1.0  0.6646468168098132  0.25582341851213153  0.5947391180253094  1.0000
  H   H306      1.0  0.6777649674323833  0.27727066116894333  0.6423359736486078  1.0000
  H   H307      1.0  0.6669657865511274  0.29891423106376364  0.5923122522167872  1.0000
  H   H308      1.0  0.6298948988958117  0.2551923960254877  0.7003280139263286  1.0000
  H   H309      1.0  0.6434911093173885  0.23069035380360545  0.6578776297576225  1.0000
  H   H310      1.0  0.6562372785595866  0.2521573249349481  0.7057005207357989  1.0000
  H   H311      1.0  0.614991980808383  0.28533000753459925  0.6314284981809135  1.0000
  H   H312      1.0  0.6282143518139657  0.2604886246784299  0.5885422085859123  1.0000
  H   H313      1.0  0.6304575650684359  0.30345054817762607  0.5856585367810104  1.0000
  H   H314      1.0  0.6331118573409686  0.31446070987178104  0.6967242961084709  1.0000
  H   H315      1.0  0.6484585191731311  0.33275961777444274  0.6509670054606708  1.0000
  H   H316      1.0  0.6595162592986976  0.3113525697486852  0.7010414522356289  1.0000
  N   N6        1.0  0.04276452370732975  0.8663660575994879  0.5926516926870578  1.0000
  C   C405      1.0  0.021877265648133415  0.8756764497482424  0.5994730953239334  1.0000
  C   C406      1.0  0.044073877583606924  0.831619763000397  0.5821738972487568  1.0000
  C   C407      1.0  0.053987731460522825  0.8737441567175199  0.6379697861028276  1.0000
  C   C408      1.0  0.05119906956958897  0.884568422507768  0.551029811583733  1.0000
  H   H317      1.0  0.02050512991643183  0.9019326640973686  0.6065912156111078  1.0000
  H   H318      1.0  0.015097787065093016  0.863047282758957  0.6313490728608853  1.0000
  H   H319      1.0  0.012863416288076523  0.8701506831127697  0.5662314812679508  1.0000
  H   H320      1.0  0.059710900205936834  0.8240379265834197  0.5767326610807715  1.0000
  H   H321      1.0  0.03790959721159415  0.8171375954125044  0.6129391766827524  1.0000
  H   H322      1.0  0.03579401532892823  0.82514624953782  0.5481332740965422  1.0000
  H   H323      1.0  0.0697905687724929  0.8667857481335078  0.634392957954585  1.0000
  H   H324      1.0  0.0478069408004671  0.8610095101240937  0.6704519104838768  1.0000
  H   H325      1.0  0.05359049096975532  0.8998362807555549  0.646323379476518  1.0000
  H   H326      1.0  0.043357151737828614  0.879172287430757  0.5159606390907195  1.0000
  H   H327      1.0  0.06709892976509901  0.8787644244417037  0.5456213381860274  1.0000
  H   H328      1.0  0.050068246901414204  0.9109335399250512  0.557366283894048  1.0000
  N   N7        1.0  0.5757774975018916  0.24836906934043051  0.3090580117925957  1.0000
  C   C409      1.0  0.5799138939013296  0.22750272840309158  0.2662318023991364  1.0000
  C   C410      1.0  0.5665103589228131  0.27849346269348046  0.2920429682244076  1.0000
  C   C411      1.0  0.5944740485984407  0.2558159653605043  0.33490696356692834  1.0000
  C   C412      1.0  0.5621994970570666  0.23169073901751341  0.3430893440368072  1.0000
  H   H329      1.0  0.5870963976584709  0.20467472371251375  0.27770694199152895  1.0000
  H   H330      1.0  0.589993118587994  0.2394396379462419  0.23960108644561687  1.0000
  H   H331      1.0  0.5661562029264067  0.22113725288692554  0.24599773672213754  1.0000
  H   H332      1.0  0.5524454243572862  0.27384840459364496  0.2719978111260032  1.0000
  H   H333      1.0  0.5632436242899592  0.29494572712407147  0.3232687017823897  1.0000
  H   H334      1.0  0.5763334112407301  0.2917803195195761  0.2664532557430492  1.0000
  H   H335      1.0  0.5919789371413212  0.271708880444223  0.367220342660741  1.0000
  H   H336      1.0  0.6051451152604331  0.2680489816158865  0.31015872588112126  1.0000
  H   H337      1.0  0.6017954826000467  0.233639812661027  0.34853227101908824  1.0000
  H   H338      1.0  0.5589102450187329  0.24663379553076026  0.3760424618662439  1.0000
  H   H339      1.0  0.5686673938304796  0.2087798672790881  0.3565400014834471  1.0000
  H   H340      1.0  0.547931739192585  0.22571037835656774  0.3248397845677474  1.0000
  N   N8        1.0  0.7449593433289031  0.24406182863480133  0.3755007291968988  1.0000
  C   C413      1.0  0.7374339830607701  0.2183173283806361  0.407825592984826  1.0000
  C   C414      1.0  0.7463624478607778  0.23207270112161588  0.32439176529979896  1.0000
  C   C415      1.0  0.7647277636797799  0.25411131422700656  0.3926834867424676  1.0000
  C   C416      1.0  0.7313381682299692  0.27171769799471834  0.37723880266684545  1.0000
  H   H341      1.0  0.7473394197777604  0.19700870331339904  0.40727308745157953  1.0000
  H   H342      1.0  0.7224613087700803  0.2101826052365089  0.39609059532581703  1.0000
  H   H343      1.0  0.7362972070549154  0.22652196558039345  0.4467237617142976  1.0000
  H   H344      1.0  0.752535522196306  0.25058470928411664  0.2992583230975926  1.0000
  H   H345      1.0  0.7561069380796928  0.21060857120028478  0.32191369459008257  1.0000
  H   H346      1.0  0.7315902894419867  0.22506392386329868  0.3098198880556914  1.0000
  H   H347      1.0  0.7642573645526912  0.2634388024150909  0.4311395437329678  1.0000
  H   H348      1.0  0.7710388151094342  0.2734401357419178  0.3692079630779682  1.0000
  H   H349      1.0  0.7753105231417416  0.23368598169550547  0.391985841436467  1.0000
  H   H350      1.0  0.7162123472043254  0.26473743246532516  0.3648735076316528  1.0000
  H   H351      1.0  0.7365261570474687  0.2915499615561306  0.3530791822997342  1.0000
  H   H352      1.0  0.7300858602011167  0.2815001712613894  0.4152815498874241  1.0000
  N   N9        1.0  0.01653588251805216  0.9986827131564393  0.8959781640938238  1.0000
  C   C417      1.0  0.006063855852037392  0.998228273336753  0.8481584022873873  1.0000
  C   C418      1.0  0.03281447027522222  0.02234846584704231  0.8941824905979678  1.0000
  C   C419      1.0  0.02469405308593231  0.9664973829459251  0.9062844962547464  1.0000
  C   C420      1.0  0.0025722260465161906  0.007599084943071599  0.9354218317887811  1.0000
  H   H353      1.0  0.9938605538870746  0.9802587681941267  0.8479846995543018  1.0000
  H   H354      1.0  0.016197813845642894  0.9916625847486891  0.8175192121718919  1.0000
  H   H355      1.0  0.9994923803930613  0.02200204205714651  0.83934089693121  1.0000
  H   H356      1.0  0.04092319768278796  0.02352558681109329  0.9298767374162248  1.0000
  H   H357      1.0  0.0438624787962274  0.01588871946343895  0.8655265217866323  1.0000
  H   H358      1.0  0.027298792976862885  0.04686865492150205  0.8857435532154655  1.0000
  H   H359      1.0  0.033132634817433004  0.966139476765985  0.9414949997903178  1.0000
  H   H360      1.0  0.03495643181246488  0.9586335751791378  0.8767090863627028  1.0000
  H   H361      1.0  0.012795955908151857  0.948101531512535  0.9088672730373966  1.0000
  H   H362      1.0  0.9898606934891341  0.990596184415615  0.9369033527910416  1.0000
  H   H363      1.0  0.9965177757965752  0.03209621594838885  0.9295691589189176  1.0000
  H   H364      1.0  0.009907141861987379  0.007329489042280812  0.9721483343776955  1.0000
  N   N10       1.0  0.8623376842899555  0.3410222768372542  0.4680670552314147  1.0000
  C   C421      1.0  0.8579760835294561  0.36120940408527336  0.42468864622761515  1.0000
  C   C422      1.0  0.880946569135072  0.35200529524742724  0.4912300087466919  1.0000
  C   C423      1.0  0.8642312049096409  0.30711319636654916  0.4527269872992637  1.0000
  C   C424      1.0  0.8460823151154963  0.3439901319254699  0.5038720815653159  1.0000
  H   H365      1.0  0.8439370216805266  0.3537581555206789  0.4065578974129931  1.0000
  H   H366      1.0  0.8699216275196908  0.3596434799038296  0.39673801946968557  1.0000
  H   H367      1.0  0.856377707326209  0.38695798394592196  0.435280098021228  1.0000
  H   H368      1.0  0.8844316323204169  0.3379286115742002  0.5249370899873861  1.0000
  H   H369      1.0  0.893653121084225  0.34978356493212104  0.4655601469156937  1.0000
  H   H370      1.0  0.8799811885369185  0.3776926811041044  0.5025819483855662  1.0000
  H   H371      1.0  0.8675421904173143  0.291277173160807  0.4846454010612599  1.0000
  H   H372      1.0  0.8761914874615925  0.3039212139919957  0.42513164270546655  1.0000
  H   H373      1.0  0.8502997499887619  0.2980704528922457  0.4357633642854005  1.0000
  H   H374      1.0  0.8488116134566299  0.32943198393619955  0.5374998967542546  1.0000
  H   H375      1.0  0.8317934450014457  0.335899492785862  0.4880337419979698  1.0000
  H   H376      1.0  0.8441263208629919  0.36934967182867345  0.5153324908348808  1.0000
  N   N11       1.0  0.3912226402484923  0.6477617504395847  0.40309625593950377  1.0000
  C   C425      1.0  0.3821803841138815  0.6181835598060483  0.42296381655697995  1.0000
  C   C426      1.0  0.39932015733592446  0.6411076692116958  0.35363735325836215  1.0000
  C   C427      1.0  0.4072700081180782  0.6585761090558807  0.4362449685968688  1.0000
  C   C428      1.0  0.37606083793099965  0.6731393343741  0.3994374947718391  1.0000
  H   H377      1.0  0.37631307355882715  0.6220599623559572  0.46067830148109884  1.0000
  H   H378      1.0  0.39307843031827716  0.5982892637148831  0.42523885329215444  1.0000
  H   H379      1.0  0.36966749172572816  0.6098153009857937  0.39948695730599776  1.0000
  H   H380      1.0  0.41079198791422006  0.6220287673070448  0.35491231591323075  1.0000
  H   H381      1.0  0.3875223195057565  0.6327966678791734  0.32788717050163146  1.0000
  H   H382      1.0  0.40614642198452483  0.662914063394153  0.33726558096573406  1.0000
  H   H383      1.0  0.4015724122907692  0.6640566571226729  0.47375151118692194  1.0000
  H   H384      1.0  0.41455662814307065  0.6807220643610646  0.4222770423724312  1.0000
  H   H385      1.0  0.4188526655343794  0.6398516827468667  0.4404894602996096  1.0000
  H   H386      1.0  0.3635396697718066  0.6655012752234719  0.37556248982141077  1.0000
  H   H387      1.0  0.38221950515933734  0.6956614172005341  0.38376962112510643  1.0000
  H   H388      1.0  0.3697652533612978  0.679052371243766  0.4360219141386243  1.0000
  N   N12       1.0  0.6539990977734648  0.8863125129181341  0.8290116245874447  1.0000
  C   C429      1.0  0.6432468183719865  0.8554069373508693  0.8281777469149324  1.0000
  C   C430      1.0  0.6595940185277358  0.8941897058953133  0.88025482629937  1.0000
  C   C431      1.0  0.6411313441523169  0.9118980594324363  0.8093224576694363  1.0000
  C   C432      1.0  0.6719422036843565  0.8837578872474281  0.7982334290332028  1.0000
  H   H389      1.0  0.6391401394831053  0.848353458782463  0.7899705222477621  1.0000
  H   H390      1.0  0.6293454616669547  0.8567379408369811  0.849838760636176  1.0000
  H   H391      1.0  0.6522962239917157  0.8356383199713999  0.8439611933611019  1.0000
  H   H392      1.0  0.6679159075087926  0.9172008168747772  0.8823374101580487  1.0000
  H   H393      1.0  0.6463295097693452  0.8966618479975264  0.9041980195396983  1.0000
  H   H394      1.0  0.6690166680740454  0.875139052149571  0.8967393626053164  1.0000
  H   H395      1.0  0.6487778123912589  0.9355542602542173  0.8090877339758119  1.0000
  H   H396      1.0  0.6273720408804537  0.914475805150953  0.8313764979395396  1.0000
  H   H397      1.0  0.6366114663321188  0.9066168140445242  0.7708117705401262  1.0000
  H   H398      1.0  0.6803715497916378  0.9067325422583256  0.7973096346187761  1.0000
  H   H399      1.0  0.6682052470297375  0.8776802976449309  0.7593408037262738  1.0000
  H   H400      1.0  0.682103123081868  0.8648104369091733  0.8119971125638845  1.0000
  N   N13       1.0  0.8503222183879405  0.6703061023246272  0.2552514454958015  1.0000
  C   C433      1.0  0.8513488447068013  0.6408129642813561  0.22506911173544752  1.0000
  C   C434      1.0  0.834940510203312  0.6917795884139065  0.2352215507626465  1.0000
  C   C435      1.0  0.8696199974455038  0.6869149756831748  0.2539950352072322  1.0000
  C   C436      1.0  0.8453337688912702  0.6617298130446518  0.30655739169757856  1.0000
  H   H401      1.0  0.8549549594687093  0.6463395979085623  0.18594752505501866  1.0000
  H   H402      1.0  0.8370189772927019  0.6276673140587613  0.2252845239294512  1.0000
  H   H403      1.0  0.8628492853454159  0.6240538915085793  0.2389376213573804  1.0000
  H   H404      1.0  0.83381290081884  0.7144732554700362  0.2566856547652627  1.0000
  H   H405      1.0  0.8379984460841406  0.6982907827264054  0.19621625017484745  1.0000
  H   H406      1.0  0.8201546806453426  0.6801768688183676  0.23618036676395238  1.0000
  H   H407      1.0  0.8693504317263696  0.7093538119799533  0.27629247799867773  1.0000
  H   H408      1.0  0.8737282409679148  0.693642049250595  0.2156374055240211  1.0000
  H   H409      1.0  0.8816238297695614  0.671421115135448  0.26873546949113414  1.0000
  H   H410      1.0  0.8440033355343042  0.6834182272631061  0.3303043100396781  1.0000
  H   H411      1.0  0.8566882630421949  0.6457711317632631  0.32317724778011825  1.0000
  H   H412      1.0  0.8309753157666425  0.6486738355893064  0.30855202288698713  1.0000
  N   N14       1.0  0.14216148067116166  0.0771946832558077  0.6564162634919483  1.0000
  C   C437      1.0  0.13512148262990037  0.06411641484245334  0.7037927400423915  1.0000
  C   C438      1.0  0.14745918951553616  0.050473912432064116  0.6231100144063989  1.0000
  C   C439      1.0  0.15971824460755996  0.09758476891952572  0.6650215227176749  1.0000
  C   C440      1.0  0.1263468081241534  0.09662372931423313  0.6337211828850062  1.0000
  H   H413      1.0  0.13093812984114409  0.08350654644844124  0.7299237028345622  1.0000
  H   H414      1.0  0.14664166930253658  0.04917216485455822  0.721985328022779  1.0000
  H   H415      1.0  0.12191843262521204  0.048486447673257604  0.6986050075449034  1.0000
  H   H416      1.0  0.1344981347993011  0.03493070438670576  0.615003740339438  1.0000
  H   H417      1.0  0.15300559765482408  0.059383624832966664  0.5870702605486184  1.0000
  H   H418      1.0  0.15902713087289624  0.034808161937628146  0.6395058653941353  1.0000
  H   H419      1.0  0.16536037662325373  0.10790237873884578  0.6299276844739803  1.0000
  H   H420      1.0  0.1719514398838098  0.0836476778365296  0.6821318034548739  1.0000
  H   H421      1.0  0.15624708014893188  0.1180247756954067  0.689970738833349  1.0000
  H   H422      1.0  0.13122271806038246  0.10713608244884476  0.598135586431226  1.0000
  H   H423      1.0  0.12182681687437061  0.11690169121221272  0.6578735021880263  1.0000
  H   H424      1.0  0.11293427201765414  0.08189552029885405  0.6262172807304105  1.0000
  N   N15       1.0  0.17736195306651947  0.9413832013098448  0.1719012501689586  1.0000
  C   C441      1.0  0.15682366550671203  0.9293209867610024  0.17061095900464276  1.0000
  C   C442      1.0  0.18913270103227292  0.9244471998592577  0.13421276909714877  1.0000
  C   C443      1.0  0.18605828334804084  0.9356491579152826  0.22102713601186166  1.0000
  C   C444      1.0  0.17740056216122357  0.9761773961069943  0.16148219681829343  1.0000
  H   H425      1.0  0.1473245575891278  0.9416970621700648  0.19808623852089197  1.0000
  H   H426      1.0  0.15605717509702782  0.9030986549231109  0.1780114301508016  1.0000
  H   H427      1.0  0.14996423124455419  0.9332819540486293  0.13380314762657242  1.0000
  H   H428      1.0  0.1826297375265427  0.9275319994972873  0.09691660944185254  1.0000
  H   H429      1.0  0.20457180487772775  0.9336797889730238  0.13266380144529374  1.0000
  H   H430      1.0  0.1899192975399613  0.8982377290113712  0.14149874018359485  1.0000
  H   H431      1.0  0.18640082190241286  0.9096085542923347  0.22996032756553655  1.0000
  H   H432      1.0  0.17749473841068636  0.9480050337459305  0.25038208961533587  1.0000
  H   H433      1.0  0.20153841985287566  0.9446938821049002  0.22300444826572555  1.0000
  H   H434      1.0  0.19271536925519725  0.9859651775077973  0.15977255125004958  1.0000
  H   H435      1.0  0.1692063876807503  0.9899169529929907  0.1899914153859574  1.0000
  H   H436      1.0  0.1701790173298394  0.9813865443537861  0.12559799173004324  1.0000
  N   N16       1.0  0.5929578149743464  0.05624897617694624  0.8633088023524184  1.0000
  C   C445      1.0  0.5989448648398007  0.033258064887583094  0.8246180250853752  1.0000
  C   C446      1.0  0.6089861017208816  0.05949194786363465  0.9000138377069522  1.0000
  C   C447      1.0  0.5749021347118614  0.04434195363297566  0.8876780002836018  1.0000
  C   C448      1.0  0.5889496363082756  0.08790275237419531  0.8410032266064343  1.0000
  H   H437      1.0  0.5871959377281664  0.030438210229683405  0.7961423190617543  1.0000
  H   H438      1.0  0.6018454700349911  0.0089916959528209  0.8400701638941359  1.0000
  H   H439      1.0  0.6125178830368178  0.041418624833329476  0.8052125510118752  1.0000
  H   H440      1.0  0.612201015585601  0.03621243268126606  0.9182926002906265  1.0000
  H   H441      1.0  0.6228918863884383  0.06818803130960971  0.882783420692154  1.0000
  H   H442      1.0  0.6049171235055211  0.0766803923437811  0.9297592755572073  1.0000
  H   H443      1.0  0.5774700943367262  0.020459373959829108  0.9044849246417963  1.0000
  H   H444      1.0  0.562494090914725  0.04164224433965846  0.8610729550205404  1.0000
  H   H445      1.0  0.5701040746232532  0.060686946584373125  0.9178506217938637  1.0000
  H   H446      1.0  0.5840033029645961  0.10561893986155058  0.8690224861633528  1.0000
  H   H447      1.0  0.5772981459299048  0.08621184539681526  0.8120926213889215  1.0000
  H   H448      1.0  0.6023815028906859  0.09781985158877804  0.8229003895728596  1.0000
  N   N17       1.0  0.34091807364122667  0.8579302436734837  0.14662807591260818  1.0000
  C   C449      1.0  0.3487861668042849  0.8526300272447653  0.09653375567444543  1.0000
  C   C450      1.0  0.35383634589052493  0.8807392733711659  0.1732747844801658  1.0000
  C   C451      1.0  0.3401616482895752  0.8270821805877216  0.17343442519814325  1.0000
  C   C452      1.0  0.32081708723742214  0.871461425510917  0.14326387223061757  1.0000
  H   H449      1.0  0.339184005586524  0.836118952171782  0.07485689015046758  1.0000
  H   H450      1.0  0.36388233357086314  0.8421145448999403  0.09755496771974426  1.0000
  H   H451      1.0  0.3498090715799016  0.8755380070416936  0.07562254523961354  1.0000
  H   H452      1.0  0.34829090394900775  0.8854022345540467  0.21116268446028127  1.0000
  H   H453      1.0  0.3692072102702906  0.8715207778975727  0.17629871689721016  1.0000
  H   H454      1.0  0.3545328488120344  0.9043461470321075  0.15404701799093343  1.0000
  H   H455      1.0  0.3339782215414861  0.8301234923163948  0.2111334536568916  1.0000
  H   H456      1.0  0.35508751943730826  0.8162262981101704  0.17726682097314703  1.0000
  H   H457      1.0  0.33059612703855157  0.8092449116779422  0.1541669581954492  1.0000
  H   H458      1.0  0.3208637462432263  0.8948006325968427  0.12356498071685675  1.0000
  H   H459      1.0  0.31443868748079795  0.8759010611375462  0.18040471770483246  1.0000
  H   H460      1.0  0.31060983918164675  0.8551366117336429  0.1230637735716884  1.0000
  N   N18       1.0  0.07287784999569125  0.5826755465508202  0.9269017740163426  1.0000
  C   C453      1.0  0.0636648836640128  0.5539463721121423  0.9045821566851696  1.0000
  C   C454      1.0  0.09380336800780675  0.5845829887506203  0.9116333916912497  1.0000
  C   C455      1.0  0.07172052712939925  0.5804107205086638  0.9811004800476422  1.0000
  C   C456      1.0  0.06234555372798689  0.6118165872566446  0.9103728436606795  1.0000
  H   H461      1.0  0.047776199373826156  0.5519676999026014  0.9144968738483654  1.0000
  H   H462      1.0  0.07117826293891705  0.5315864091744679  0.9169083677685778  1.0000
  H   H463      1.0  0.06470472599695842  0.5544540783942596  0.863673530415716  1.0000
  H   H464      1.0  0.10237008578893847  0.563501365927126  0.9247966812266948  1.0000
  H   H465      1.0  0.09526334883664123  0.5852178459281877  0.8708482943822657  1.0000
  H   H466      1.0  0.1011143508175858  0.6064396866723134  0.9266651470302811  1.0000
  H   H467      1.0  0.07765697812130345  0.6024388054930668  0.9988139112588222  1.0000
  H   H468      1.0  0.0803999813189924  0.5597358735089787  0.9954687825748502  1.0000
  H   H469      1.0  0.056203564563195085  0.5776958260058636  0.9938692532823407  1.0000
  H   H470      1.0  0.06269553000499828  0.6142236903978918  0.8696192033724254  1.0000
  H   H471      1.0  0.06914085116735702  0.6339140684899603  0.9262677824018646  1.0000
  H   H472      1.0  0.04657097788945186  0.6115890418246308  0.9220452060546245  1.0000
  N   N19       1.0  0.15292288925598932  0.5824919339038763  0.2110868278776648  1.0000
  C   C457      1.0  0.16539439019066254  0.5569683750935026  0.23248430314545884  1.0000
  C   C458      1.0  0.1602877024981927  0.6141552253651259  0.22744191106441042  1.0000
  C   C459      1.0  0.13227541942343687  0.5781801156831673  0.22752738040132287  1.0000
  C   C460      1.0  0.15373568722551192  0.5806285217842101  0.15683461673931826  1.0000
  H   H473      1.0  0.16027332512991754  0.532768213758562  0.22074929615475475  1.0000
  H   H474      1.0  0.16508622145060312  0.5576151840894203  0.2734161815448357  1.0000
  H   H475      1.0  0.18106080713396158  0.5592595654090105  0.22055222500820384  1.0000
  H   H476      1.0  0.15096259336905385  0.6339102061056829  0.2126174334085558  1.0000
  H   H477      1.0  0.15994340227319895  0.6163036249267467  0.2683095216487997  1.0000
  H   H478      1.0  0.17574391198012576  0.618365250904364  0.21525976844764458  1.0000
  H   H479      1.0  0.1309589458921595  0.5803205474052078  0.26822981578760435  1.0000
  H   H480      1.0  0.12634566915468395  0.5542700193032771  0.21663813094256454  1.0000
  H   H481      1.0  0.1223378510507805  0.5965966329915081  0.21117957882233934  1.0000
  H   H482      1.0  0.1482086001193517  0.5570388342950746  0.14351398005458876  1.0000
  H   H483      1.0  0.1690784519000366  0.5834856858143692  0.14292729637290913  1.0000
  H   H484      1.0  0.14438745305356832  0.5994497436818657  0.13939553523769668  1.0000
  N   N20       1.0  0.5133863574432028  0.8883393965059233  0.8784961646161757  1.0000
  C   C461      1.0  0.5326217938700326  0.8741530533022401  0.8649331720286138  1.0000
  C   C462      1.0  0.5035570222030816  0.8678323025147069  0.9154776569276076  1.0000
  C   C463      1.0  0.500730992510764  0.8906352565105905  0.8342870541552305  1.0000
  C   C464      1.0  0.5166370390746468  0.9207320708952701  0.8992832898499702  1.0000
  H   H485      1.0  0.5406332847659786  0.8895128950620831  0.8379416263750593  1.0000
  H   H486      1.0  0.5307562857710642  0.8499407673008363  0.848206577540479  1.0000
  H   H487      1.0  0.5423318784292434  0.8714624938654242  0.8977569048803692  1.0000
  H   H488      1.0  0.5125370401874078  0.8658972571461027  0.9497534448761139  1.0000
  H   H489      1.0  0.4888340712090032  0.8776360263902917  0.925884318592394  1.0000
  H   H490      1.0  0.5009161486770088  0.8431382271879845  0.9011650118286533  1.0000
  H   H491      1.0  0.5077108609004344  0.905764666718096  0.8053958620592822  1.0000
  H   H492      1.0  0.4861272902570079  0.9012475587085235  0.8434342514254564  1.0000
  H   H493      1.0  0.4977314766681528  0.8664920590784081  0.8182409423845304  1.0000
  H   H494      1.0  0.5263350888854089  0.9197661788835817  0.9323584597615752  1.0000
  H   H495      1.0  0.5024836578667335  0.9320279583910088  0.9108988375543235  1.0000
  H   H496      1.0  0.5239419720147893  0.9369686360565902  0.8723054189890616  1.0000
  N   N21       1.0  0.6111616186802916  0.07927883560351598  0.47816599801436027  1.0000
  C   C465      1.0  0.6232850869282021  0.10493168647029634  0.5006111358515405  1.0000
  C   C466      1.0  0.6017348020256106  0.09163176594769308  0.43286366940373977  1.0000
  C   C467      1.0  0.5957375376298639  0.06908957707978415  0.513341342582177  1.0000
  C   C468      1.0  0.6238799499962764  0.05161736983552734  0.46584274619692184  1.0000
  H   H497      1.0  0.6308632255976315  0.09666238615591133  0.5345542776324594  1.0000
  H   H498      1.0  0.614024271244069  0.12570972943352263  0.5113108920797184  1.0000
  H   H499      1.0  0.6347883114251105  0.113890296931013  0.47480147421087415  1.0000
  H   H500      1.0  0.6129276900190941  0.10008537428983186  0.4057622767808036  1.0000
  H   H501      1.0  0.5925741367883394  0.07294899452063013  0.4144570666656248  1.0000
  H   H502      1.0  0.5919514285233548  0.11245984991341935  0.4408931199066589  1.0000
  H   H503      1.0  0.5863005115979509  0.04971423691895271  0.4976767474613121  1.0000
  H   H504      1.0  0.5859138342840727  0.08944448125967819  0.5236044845264263  1.0000
  H   H505      1.0  0.6023311672111803  0.059682125375138506  0.5480079166483224  1.0000
  H   H506      1.0  0.6152212130915277  0.0317464025453138  0.44887464309672664  1.0000
  H   H507      1.0  0.6311538852288683  0.04160529097749288  0.4992528042723742  1.0000
  H   H508      1.0  0.635755320782022  0.05851319614079697  0.4396225432446913  1.0000
  N   N22       1.0  0.8850629866828246  0.7663304537271622  0.80882851938934  1.0000
  C   C469      1.0  0.8887458512688806  0.7631605463354946  0.7554393276948671  1.0000
  C   C470      1.0  0.8835641617684792  0.7340936451103596  0.831276622123153  1.0000
  C   C471      1.0  0.8663855389210207  0.7839367482467192  0.8167183672290326  1.0000
  C   C472      1.0  0.9015420352149741  0.7842090013027156  0.8318939866755592  1.0000
  H   H509      1.0  0.8901084795314099  0.7871020542912427  0.7375706692218152  1.0000
  H   H510      1.0  0.8765169447510527  0.7500824060038656  0.736682461425132  1.0000
  H   H511      1.0  0.9027042751866706  0.7499431006663554  0.7480818364894969  1.0000
  H   H512      1.0  0.8803960353216854  0.7357338160039287  0.871406078535072  1.0000
  H   H513      1.0  0.8714417094642425  0.7197215900891307  0.8144185938045027  1.0000
  H   H514      1.0  0.8974978415440523  0.7201934516955579  0.8269847375736523  1.0000
  H   H515      1.0  0.8632236876826362  0.7870240527080489  0.8566237249557858  1.0000
  H   H516      1.0  0.8535900127157773  0.7710169249197871  0.8002161065677833  1.0000
  H   H517      1.0  0.8669129863399463  0.8082915196813382  0.8000475984053733  1.0000
  H   H518      1.0  0.9026457970477237  0.8090770873117424  0.8171452525869058  1.0000
  H   H519      1.0  0.9159626626366228  0.7722642409724987  0.8251229137817816  1.0000
  H   H520      1.0  0.8995979853400501  0.7860334342833009  0.8724228178973135  1.0000
  N   N23       1.0  0.9783848791616097  0.7797509776378827  0.0028862361856196728  1.0000
  C   C473      1.0  0.9689817805247654  0.8045755240529693  0.9719543857070564  1.0000
  C   C474      1.0  0.9857254455120975  0.7534776493786158  0.9713036748104827  1.0000
  C   C475      1.0  0.9637473043128909  0.7668872595164532  0.038093774973956496  1.0000
  C   C476      1.0  0.9951181952103272  0.794052079311865  0.03029578920257281  1.0000
  H   H521      1.0  0.9559607203169646  0.7948959997597353  0.951649133891081  1.0000
  H   H522      1.0  0.9794396542995345  0.8145316172959546  0.9443372274234205  1.0000
  H   H523      1.0  0.9636614877515819  0.825061362895009  0.9946442411061397  1.0000
  H   H524      1.0  0.9734187929487853  0.7411040107302058  0.9516993419640981  1.0000
  H   H525      1.0  0.9963315159338746  0.7623694643275346  0.9431906624008327  1.0000
  H   H526      1.0  0.9936142648077221  0.7350951589543463  0.993419044287607  1.0000
  H   H527      1.0  0.9703541522317967  0.7482627941184777  0.062380495238409495  1.0000
  H   H528      1.0  0.9510024629308856  0.7554257629877646  0.01882266711859093  1.0000
  H   H529      1.0  0.9577197335850337  0.786060907127005  0.06229017921077129  1.0000
  H   H530      1.0  0.0022418142085840476  0.7760956169968993  0.05489903735674195  1.0000
  H   H531      1.0  0.9901877132040683  0.8144350440670708  0.05374841203883518  1.0000
  H   H532      1.0  0.006721928687205336  0.8032310136953144  0.004889482419123903  1.0000
  N   N24       1.0  0.6234908591686065  0.5217297583450535  0.9486550117163292  1.0000
  C   C477      1.0  0.6444599130883738  0.5210449212710131  0.9335879627632341  1.0000
  C   C478      1.0  0.6110188123070484  0.5096520039850749  0.9079285592569913  1.0000
  C   C479      1.0  0.6177441092387339  0.5550034761469717  0.9610597635448068  1.0000
  C   C480      1.0  0.6207462238704441  0.5011140467583578  0.9922652030692588  1.0000
  H   H533      1.0  0.6542965894733531  0.5303038118512805  0.963272672107402  1.0000
  H   H534      1.0  0.6470335887698935  0.5358320158176899  0.900119153363435  1.0000
  H   H535      1.0  0.6493460903416202  0.49618242254029904  0.9248058224917823  1.0000
  H   H536      1.0  0.5951259493170378  0.5094526369493757  0.9183768435543935  1.0000
  H   H537      1.0  0.6126607236382455  0.5247166502837315  0.8743837893968216  1.0000
  H   H538      1.0  0.6151872817087762  0.4846752656898678  0.8975636176064391  1.0000
  H   H539      1.0  0.6020904923336085  0.5563412875563637  0.9735531441729984  1.0000
  H   H540      1.0  0.619400295865585  0.5713354944764906  0.9289584492377063  1.0000
  H   H541      1.0  0.627008298701363  0.5648445109173185  0.9914747699503174  1.0000
  H   H542      1.0  0.6242404815163677  0.4756727925948321  0.9843200964942482  1.0000
  H   H543      1.0  0.6052192829971019  0.5016998253617392  0.005617162112178774  1.0000
  H   H544      1.0  0.6305071852862603  0.5087109257573975  0.023144042675744547  1.0000
  N   N25       1.0  0.4451834291727835  0.4096119531900382  0.06021974958028142  1.0000
  C   C481      1.0  0.4276371800518017  0.4288727761019424  0.07333895843349825  1.0000
  C   C482      1.0  0.44204219116468096  0.3759502957485458  0.07542256223222177  1.0000
  C   C483      1.0  0.46282474482926417  0.42270636823039315  0.08544795641459269  1.0000
  C   C484      1.0  0.44816463994956063  0.4108549484316395  0.0064190777042032465  1.0000
  H   H545      1.0  0.4251255680359599  0.4292399841606198  0.11379338754095425  1.0000
  H   H546      1.0  0.413999777671066  0.41902917854733857  0.0558613603437228  1.0000
  H   H547      1.0  0.42918473536565216  0.4541719559619194  0.06068163423519568  1.0000
  H   H548      1.0  0.45504882894507087  0.36077135140098043  0.06617633251011368  1.0000
  H   H549      1.0  0.43952379421772825  0.3741056347207691  0.11579997127744379  1.0000
  H   H550      1.0  0.42891278792633863  0.3653248905554002  0.056639568420269626  1.0000
  H   H551      1.0  0.4764481156414971  0.4091844396329359  0.07543719927849257  1.0000
  H   H552      1.0  0.4613006757616028  0.4216171646211687  0.12616699057468606  1.0000
  H   H553      1.0  0.4654480036072951  0.4482435874907278  0.07538212992183912  1.0000
  H   H554      1.0  0.46109770424289  0.39620090678881614  0.9948390685074061  1.0000
  H   H555      1.0  0.45080969774280777  0.435863306745241  0.9935953308412521  1.0000
  H   H556      1.0  0.43495698859488835  0.4017240477760656  0.9863055826828487  1.0000
  N   N26       1.0  0.710444234455322  0.46795215693576764  0.5809951648817163  1.0000
  C   C485      1.0  0.7110719295303849  0.481523824546603  0.6312654606987741  1.0000
  C   C486      1.0  0.7037633554454268  0.49286738658001755  0.546084259456167  1.0000
  C   C487      1.0  0.6965214077319654  0.44059153118215083  0.57978726571866  1.0000
  C   C488      1.0  0.7303839789592687  0.4568380290886598  0.5669188977643345  1.0000
  H   H557      1.0  0.7157730367151921  0.4632165492599637  0.6586479102655629  1.0000
  H   H558      1.0  0.6962721741898862  0.49046588180349254  0.6427844033952208  1.0000
  H   H559      1.0  0.7216004353088278  0.5019722772307654  0.633828144171971  1.0000
  H   H560      1.0  0.6887369290710968  0.5017796303783407  0.555720841540043  1.0000
  H   H561      1.0  0.7139125604299665  0.5138961895732985  0.546170887151435  1.0000
  H   H562      1.0  0.7030580132389656  0.483414519433946  0.5078049408556248  1.0000
  H   H563      1.0  0.6957430658137252  0.4295171233298851  0.5425832867921194  1.0000
  H   H564      1.0  0.6813065955278043  0.4482130615360154  0.5899964548089836  1.0000
  H   H565      1.0  0.7009907512768758  0.4214914052651771  0.6061016258048445  1.0000
  H   H566      1.0  0.7305443027331754  0.4467432406939694  0.5289565945306712  1.0000
  H   H567      1.0  0.7357722910004104  0.43780982361418763  0.5922560988251312  1.0000
  H   H568      1.0  0.7413779023272671  0.4767244188936301  0.5680113817319782  1.0000
  N   N27       1.0  0.24575054369177846  0.1361347297116594  0.38428098579705766  1.0000
  C   C489      1.0  0.24812593933833846  0.10265177430575972  0.367250288293171  1.0000
  C   C490      1.0  0.2248524341517142  0.14588006637609677  0.37952030605380477  1.0000
  C   C491      1.0  0.2581823304917642  0.15747780361912547  0.35398824528390815  1.0000
  C   C492      1.0  0.251954144640431  0.13868377382651184  0.43634471373668465  1.0000
  H   H569      1.0  0.2637336106317325  0.09456205345261127  0.37099077082917703  1.0000
  H   H570      1.0  0.24402780676714786  0.0999885639118256  0.32770466997913605  1.0000
  H   H571      1.0  0.23877373173093064  0.08583574851269173  0.3888145732676362  1.0000
  H   H572      1.0  0.21975553603857362  0.1446222391947626  0.3405927178361366  1.0000
  H   H573      1.0  0.21497248991500972  0.13043335609820805  0.4020449898650826  1.0000
  H   H574      1.0  0.22266786252478046  0.1710210467276328  0.3922468549138341  1.0000
  H   H575      1.0  0.25646609325980474  0.182957016830187  0.36504320678307883  1.0000
  H   H576      1.0  0.2543415228144236  0.15578184939769998  0.31423115484732006  1.0000
  H   H577      1.0  0.27408735103141857  0.15150176447392033  0.35814321966557416  1.0000
  H   H578      1.0  0.26767861346049127  0.1314312616280602  0.44120153642538096  1.0000
  H   H579      1.0  0.24273907558217864  0.12326437646412489  0.46057119732972396  1.0000
  H   H580      1.0  0.2506188830139398  0.16378286490213145  0.45004506326117055  1.0000
  N   N28       1.0  0.4544222007803544  0.044682463470267386  0.8426877906297914  1.0000
  C   C493      1.0  0.45626117478430706  0.07702926174269087  0.864609471840125  1.0000
  C   C494      1.0  0.43587314561918217  0.029647381864878808  0.8596430427314637  1.0000
  C   C495      1.0  0.471346297262015  0.02470411034644382  0.8581772332135156  1.0000
  C   C496      1.0  0.454137894294917  0.047277911913912396  0.788417054267256  1.0000
  H   H581      1.0  0.46989500841211324  0.0894073955511061  0.8517960744327298  1.0000
  H   H582      1.0  0.4567945620097021  0.07583915421407839  0.9055480376177664  1.0000
  H   H583      1.0  0.44347941310576167  0.09246810468892908  0.8543976314570562  1.0000
  H   H584      1.0  0.43380126373584266  0.005541337204175045  0.8427976642210031  1.0000
  H   H585      1.0  0.43577097137339377  0.026472997299397782  0.900381190360176  1.0000
  H   H586      1.0  0.4227679598776277  0.044353005193448425  0.849469425165569  1.0000
  H   H587      1.0  0.47200909311796824  0.02233549289261405  0.8990267720323231  1.0000
  H   H588      1.0  0.48560627141449814  0.035169991737889594  0.8456695293771017  1.0000
  H   H589      1.0  0.4701922011266005  0.9999971627233514  0.8428230312002046  1.0000
  H   H590      1.0  0.45280500219617  0.023282651197472193  0.7706120065302419  1.0000
  H   H591      1.0  0.46778905432561596  0.05889870363313232  0.7740297845264111  1.0000
  H   H592      1.0  0.4414038112016655  0.06188016533961482  0.7755322565705791  1.0000
  N   N29       1.0  0.2711625833528773  0.5575181314703622  0.26351382325014533  1.0000
  C   C497      1.0  0.25097137572153366  0.5607109259608385  0.24331601899829972  1.0000
  C   C498      1.0  0.2804470050470776  0.5280529348440315  0.2439190905429533  1.0000
  C   C499      1.0  0.27025310072615255  0.55582377478274  0.31779565979668  1.0000
  C   C500      1.0  0.28303438627875216  0.5857161192504496  0.24907053966112178  1.0000
  H   H593      1.0  0.24352746374454493  0.582574866850457  0.25794388374992  1.0000
  H   H594      1.0  0.2416337068991951  0.5395706437109018  0.2527675721048847  1.0000
  H   H595      1.0  0.25121837067359865  0.5626805368768535  0.20246132051798507  1.0000
  H   H596      1.0  0.2958275502111975  0.5251622687804953  0.2578596138809588  1.0000
  H   H597      1.0  0.2719928320775208  0.5061533287226405  0.2542159813110578  1.0000
  H   H598      1.0  0.2813789000005833  0.5286074024577637  0.2029919423368533  1.0000
  H   H599      1.0  0.2852890996302582  0.553337737895377  0.33410215926883613  1.0000
  H   H600      1.0  0.26127270116631157  0.5349828612023403  0.33020745948005964  1.0000
  H   H601      1.0  0.2635631123006407  0.5780030874789462  0.33362048995160126  1.0000
  H   H602      1.0  0.2981135952209678  0.5846501655750004  0.2653170800428771  1.0000
  H   H603      1.0  0.2761647966924073  0.6084775577674341  0.261860659962337  1.0000
  H   H604      1.0  0.28472244040734174  0.5872081503519029  0.20838688315830445  1.0000
  N   N30       1.0  0.8830407495037945  0.9638146403020935  0.6634890635669156  1.0000
  C   C501      1.0  0.8882377550974887  0.9749085170071567  0.6134887024414855  1.0000
  C   C502      1.0  0.8850129031264241  0.9906970170736986  0.6986907626434203  1.0000
  C   C503      1.0  0.8963997654138979  0.9374936609442136  0.6782677552068123  1.0000
  C   C504      1.0  0.8624297588622408  0.9521423001256618  0.6635124946998796  1.0000
  H   H605      1.0  0.9037436063330009  0.983660593130378  0.6117038483208391  1.0000
  H   H606      1.0  0.8784510720721497  0.9948549089312639  0.601229863859012  1.0000
  H   H607      1.0  0.8865480478212819  0.9553242870539629  0.5857904237016743  1.0000
  H   H608      1.0  0.8810121615110871  0.9831077125522488  0.7366890761368966  1.0000
  H   H609      1.0  0.9004736070051415  0.9998235120144737  0.7002778218518646  1.0000
  H   H610      1.0  0.8752673696635807  0.011122322961769626  0.6884848497001508  1.0000
  H   H611      1.0  0.8926903132681618  0.9283244712418158  0.7156168940161721  1.0000
  H   H612      1.0  0.9120790427387864  0.9455162056931687  0.679349710025434  1.0000
  H   H613      1.0  0.8953882545217251  0.9168901014243115  0.6522771256983311  1.0000
  H   H614      1.0  0.8579576506569145  0.9430524575145756  0.7003798893490594  1.0000
  H   H615      1.0  0.8603641040731769  0.9320458402112402  0.6369524487530236  1.0000
  H   H616      1.0  0.8519167495493873  0.9714514158391817  0.6529806491328278  1.0000
  N   N31       1.0  0.7477278193723892  0.5302898395470429  0.26318059271489896  1.0000
  C   C505      1.0  0.7386164125468795  0.49806654917696513  0.26066628832720706  1.0000
  C   C506      1.0  0.7685635038559482  0.5272910028267844  0.2790189226973793  1.0000
  C   C507      1.0  0.7367619520723514  0.5502047573041918  0.2989339727849382  1.0000
  C   C508      1.0  0.746919483174649  0.545538072212181  0.21412229072229513  1.0000
  H   H617      1.0  0.7228607771712645  0.49945490198018294  0.24897478309010604  1.0000
  H   H618      1.0  0.7390293351966675  0.4859295617755415  0.29721386298100355  1.0000
  H   H619      1.0  0.7464899141282415  0.48230784987888103  0.23406231299664895  1.0000
  H   H620      1.0  0.7774775113221986  0.5135874275049215  0.25183546817613417  1.0000
  H   H621      1.0  0.7756916334717257  0.5512331421896389  0.28382259952987265  1.0000
  H   H622      1.0  0.7698036897506924  0.5144852493137256  0.3148176449152675  1.0000
  H   H623      1.0  0.7435961531474317  0.5743136984719172  0.3034127043683603  1.0000
  H   H624      1.0  0.736386179957155  0.5388565199911707  0.3359033576120357  1.0000
  H   H625      1.0  0.7211732397397568  0.5541118912549264  0.2871752331955335  1.0000
  H   H626      1.0  0.7541477430614235  0.5695249067655249  0.21455358508260697  1.0000
  H   H627      1.0  0.7313854441728744  0.5490338080148055  0.20159400432400193  1.0000
  H   H628      1.0  0.7546023111613805  0.5307808041896599  0.18587579665257747  1.0000
  N   N32       1.0  0.10740643042225662  0.38068921571853925  0.8791126559464266  1.0000
  C   C509      1.0  0.09741195261261071  0.35962952277591687  0.9150409411354061  1.0000
  C   C510      1.0  0.12815052650116954  0.38561430965114857  0.894531051889338  1.0000
  C   C511      1.0  0.097180577556506  0.4119726933605572  0.8769442028130984  1.0000
  C   C512      1.0  0.10692711420535894  0.36549513549752205  0.8298870082037072  1.0000
  H   H629      1.0  0.09788433374727301  0.36990597156142296  0.9529167734273243  1.0000
  H   H630      1.0  0.10459484571067801  0.3356400893034355  0.9168539796686648  1.0000
  H   H631      1.0  0.08164810689154955  0.35555464683876986  0.9052181748160821  1.0000
  H   H632      1.0  0.13635886858686463  0.40039776726698867  0.8673462424375847  1.0000
  H   H633      1.0  0.12912236524928256  0.39816813003778423  0.930743269782102  1.0000
  H   H634      1.0  0.13610028903366866  0.3623851740907852  0.8983262308509525  1.0000
  H   H635      1.0  0.08130494435315683  0.40909339710921677  0.8671936745795452  1.0000
  H   H636      1.0  0.10383611011143068  0.42784784245067004  0.848560298770147  1.0000
  H   H637      1.0  0.09802707586269688  0.42490678357046985  0.9128002535879287  1.0000
  H   H638      1.0  0.11449955224800701  0.380623091237707  0.8018718950911169  1.0000
  H   H639      1.0  0.09151147480605237  0.36174221484349933  0.8166816564679458  1.0000
  H   H640      1.0  0.114367399433432  0.34169627253020796  0.8300223422471544  1.0000
  N   N33       1.0  0.6032083799090526  0.782677940268881  0.6011302750172828  1.0000
  C   C513      1.0  0.5884237935218076  0.7938198766007243  0.6372655190218479  1.0000
  C   C514      1.0  0.595359639186463  0.7868582151044818  0.5507370152773279  1.0000
  C   C515      1.0  0.6076655795504822  0.7484614005667716  0.6098934279813024  1.0000
  C   C516      1.0  0.6214839708570131  0.8016704052080003  0.6066506267630039  1.0000
  H   H641      1.0  0.5849463840444996  0.8197079118393645  0.6321281136420158  1.0000
  H   H642      1.0  0.5939032154740882  0.7909835468329633  0.6756724213313463  1.0000
  H   H643      1.0  0.5743529416390469  0.7800976050567187  0.6338809465047772  1.0000
  H   H644      1.0  0.5814961511278349  0.7729422755691007  0.5451760735273667  1.0000
  H   H645      1.0  0.5919888354403817  0.812476306979654  0.5429157193052535  1.0000
  H   H646      1.0  0.6061206387258139  0.7785514949566271  0.5225823593545975  1.0000
  H   H647      1.0  0.6182948167620447  0.7389309373005556  0.5823324147679644  1.0000
  H   H648      1.0  0.5940907168796212  0.7335590984964127  0.6076338066946115  1.0000
  H   H649      1.0  0.6141834902743272  0.7446103622482733  0.6470263406189121  1.0000
  H   H650      1.0  0.6279623997483001  0.7989465572107903  0.6440916692232472  1.0000
  H   H651      1.0  0.618637237099663  0.8276361129073136  0.6008050675336706  1.0000
  H   H652      1.0  0.6328062337145174  0.7941310635528537  0.5796385594656889  1.0000
  N   N34       1.0  0.09000581472526914  0.1230458876076983  0.3584241098178384  1.0000
  C   C517      1.0  0.09541574246979523  0.0986543570138132  0.3212715573215901  1.0000
  C   C518      1.0  0.1077217069576184  0.14181416114807477  0.3722382581274167  1.0000
  C   C519      1.0  0.0820062463391995  0.1069837576529693  0.40260474375651095  1.0000
  C   C520      1.0  0.07489468741298233  0.14475945666181178  0.33766132135534305  1.0000
  H   H653      1.0  0.08234479097308012  0.08422053413944575  0.309649346592343  1.0000
  H   H654      1.0  0.10668953021946415  0.08170708061704679  0.33589469763841584  1.0000
  H   H655      1.0  0.10165676314211769  0.10999626040360311  0.28760121333353744  1.0000
  H   H656      1.0  0.10417413009321086  0.1601608015601681  0.4007083330324817  1.0000
  H   H657      1.0  0.11945928907487602  0.12619219484783795  0.38794981821335583  1.0000
  H   H658      1.0  0.11412996525492947  0.15463519045722873  0.3400244633657688  1.0000
  H   H659      1.0  0.09298350053485294  0.09019549133123683  0.4189779588611275  1.0000
  H   H660      1.0  0.0684869706254867  0.09284681248303284  0.39390496516911494  1.0000
  H   H661      1.0  0.07806321079802214  0.12473488704249758  0.43171977434424774  1.0000
  H   H662      1.0  0.07100039535049629  0.16421530798097783  0.36408389385083867  1.0000
  H   H663      1.0  0.061054721850758  0.13162448773019086  0.32831870887400116  1.0000
  H   H664      1.0  0.08019629420234642  0.1563806498908622  0.30325163229680685  1.0000
  N   N35       1.0  0.16340311980092545  0.7973734016872922  0.5638642418227087  1.0000
  C   C521      1.0  0.1548568604522687  0.8112138921216754  0.5184951466520216  1.0000
  C   C522      1.0  0.17492882767756637  0.8223170342874305  0.5899401051051816  1.0000
  C   C523      1.0  0.17645037681129397  0.7702329407217413  0.5509775121894961  1.0000
  C   C524      1.0  0.14736324294965492  0.7857908378450751  0.5961570063749019  1.0000
  H   H665      1.0  0.14538394073225802  0.8323198047070963  0.5268673636722959  1.0000
  H   H666      1.0  0.1454959183143985  0.7934979263262817  0.4985213312950387  1.0000
  H   H667      1.0  0.16655397129249178  0.8192375851668692  0.49256355900520804  1.0000
  H   H668      1.0  0.18719148440745054  0.8315393263629197  0.5666394193003456  1.0000
  H   H669      1.0  0.16543064741919966  0.8431498946786306  0.600074535444347  1.0000
  H   H670      1.0  0.18152578046350046  0.8128192247186389  0.6245198044616946  1.0000
  H   H671      1.0  0.1883160365519006  0.7775776217250326  0.5249712993689204  1.0000
  H   H672      1.0  0.1680491818917208  0.7505386005447869  0.5327883198420074  1.0000
  H   H673      1.0  0.18365748940601814  0.759749854695274  0.584061423147305  1.0000
  H   H674      1.0  0.13791114964215362  0.767737482462102  0.5770564389803831  1.0000
  H   H675      1.0  0.1375980744655226  0.8058180521922257  0.6079395359274403  1.0000
  H   H676      1.0  0.1532912098947917  0.7742865637622174  0.630010296783115  1.0000
  N   N36       1.0  0.351945497285488  0.7180934606599295  0.6846857345075569  1.0000
  C   C525      1.0  0.35071981016929954  0.6862109347462667  0.6609265144751402  1.0000
  C   C526      1.0  0.33181886822251455  0.7300030539999357  0.6949636678084644  1.0000
  C   C527      1.0  0.36211727451483644  0.7407531905136958  0.6514643201475824  1.0000
  C   C528      1.0  0.3631477179466406  0.715472920325578  0.7312745233157545  1.0000
  H   H677      1.0  0.3656719789484178  0.6767349010366291  0.651932651660409  1.0000
  H   H678      1.0  0.3422211928779799  0.6872357696893586  0.6258153587475456  1.0000
  H   H679      1.0  0.3433783984135977  0.6682937911055263  0.6850682042389794  1.0000
  H   H680      1.0  0.33225316975904134  0.7540844926942639  0.712765157653299  1.0000
  H   H681      1.0  0.3230115146830584  0.7322445949461754  0.660433976542448  1.0000
  H   H682      1.0  0.3236843025536431  0.7134867169904554  0.7199289575787572  1.0000
  H   H683      1.0  0.3771471715330376  0.7320086277470356  0.6418225431049804  1.0000
  H   H684      1.0  0.3640472487295256  0.764745766667871  0.6689209239247196  1.0000
  H   H685      1.0  0.35379141461162034  0.7441539418511589  0.6165336235414546  1.0000
  H   H686      1.0  0.37836528136390185  0.7063512323152087  0.7247375177895958  1.0000
  H   H687      1.0  0.35584505842811615  0.6988858659894002  0.7576170146519042  1.0000
  H   H688      1.0  0.3648221458894219  0.7392618731392274  0.7496104488681052  1.0000
  N   N37       1.0  0.9892671798421359  0.15708278557678912  0.01793290788377533  1.0000
  C   C529      1.0  0.9945671041956703  0.18805567164753212  0.994972302465617  1.0000
  C   C530      1.0  0.9996083105963524  0.153792585368133  0.06559331282597869  1.0000
  C   C531      1.0  0.995000902250113  0.13052664990556062  0.9848288324398438  1.0000
  C   C532      1.0  0.967754583370842  0.15599184687724876  0.02630703464610651  1.0000
  H   H689      1.0  0.9867047400625535  0.19154006497264842  0.9593784754342035  1.0000
  H   H690      1.0  0.010703757732376085  0.1895950596999536  0.9874770679098778  1.0000
  H   H691      1.0  0.9906197115862914  0.20860771000725653  0.019150180175714123  1.0000
  H   H692      1.0  0.9960022792751542  0.1306219694437174  0.08376669602737662  1.0000
  H   H693      1.0  0.015893697473916557  0.1546981733891153  0.06077673143916273  1.0000
  H   H694      1.0  0.995500501544575  0.17348729143947228  0.09139303729819903  1.0000
  H   H695      1.0  0.9907067787057374  0.10684606017450404  0.00030380586288436534  1.0000
  H   H696      1.0  0.011223207234762  0.13024073122107094  0.9784691655719309  1.0000
  H   H697      1.0  0.9877124619040409  0.1328120610061585  0.9482233290282298  1.0000
  H   H698      1.0  0.9630911539884945  0.13283710916471825  0.042981647354770836  1.0000
  H   H699      1.0  0.9595299364589983  0.15872903673845196  0.9912033625021129  1.0000
  H   H700      1.0  0.9629247360795284  0.17556234979715013  0.05134887693610524  1.0000
  N   N38       1.0  0.7269672655899999  0.7215368957541849  0.11012310108222678  1.0000
  C   C533      1.0  0.7340721093059202  0.6926725687386088  0.08392615099885226  1.0000
  C   C534      1.0  0.7077630195963773  0.7316138323044542  0.08927471393058961  1.0000
  C   C535      1.0  0.7415504310567805  0.7477077902347063  0.10444394172101101  1.0000
  C   C536      1.0  0.7245285463097679  0.7140792664058213  0.1629305796063969  1.0000
  H   H701      1.0  0.7482730180308848  0.683866441221923  0.0997809146525388  1.0000
  H   H702      1.0  0.736574561110791  0.6975851598646441  0.04418938013306328  1.0000
  H   H703      1.0  0.7231350174607993  0.6727780532908327  0.08614700224630822  1.0000
  H   H704      1.0  0.7019853766406894  0.7534250259995469  0.10798170445151922  1.0000
  H   H705      1.0  0.7089263502889452  0.7368829197158995  0.049244148444155034  1.0000
  H   H706      1.0  0.6963981996022283  0.7124639988105486  0.0934862136325958  1.0000
  H   H707      1.0  0.7368208678028114  0.7697933344763089  0.12419653244870243  1.0000
  H   H708      1.0  0.7437591505612207  0.7539937255848075  0.06504476125438763  1.0000
  H   H709      1.0  0.7562310322345019  0.7407112818559185  0.11959896049941277  1.0000
  H   H710      1.0  0.7133110962264692  0.6949363046054341  0.1686702543913705  1.0000
  H   H711      1.0  0.71968029463728  0.7354777365436883  0.1841938520536377  1.0000
  H   H712      1.0  0.7386272976373126  0.7055305292513241  0.17940630194257312  1.0000
  N   N39       1.0  0.5859675363890454  0.82725067810313  0.1023573715814543  1.0000
  C   C537      1.0  0.5900219971577144  0.8040867115094853  0.06238913209379149  1.0000
  C   C538      1.0  0.5989592547081747  0.8555527011639819  0.09683279825159374  1.0000
  C   C539      1.0  0.58984771970254  0.8117915485753675  0.15037553116891766  1.0000
  C   C540      1.0  0.5651005375319927  0.8375818667072507  0.09973931969647043  1.0000
  H   H713      1.0  0.6054313069717632  0.7948950807041777  0.06446113483602778  1.0000
  H   H714      1.0  0.5880701200050478  0.815184097594436  0.025464319935160296  1.0000
  H   H715      1.0  0.5800546242781168  0.7828680449097178  0.0643925348355614  1.0000
  H   H716      1.0  0.5963987936086896  0.8735286562235975  0.1264591354380049  1.0000
  H   H717      1.0  0.6148446417948334  0.848726377102278  0.09814526359247688  1.0000
  H   H718      1.0  0.596387419813694  0.8678558669172289  0.06104961708298018  1.0000
  H   H719      1.0  0.5866263381291564  0.8282407572665771  0.18162103137025776  1.0000
  H   H720      1.0  0.6055952037307629  0.8043230902214658  0.1538112894883943  1.0000
  H   H721      1.0  0.5807495232006504  0.7897430231478677  0.15535548564804125  1.0000
  H   H722      1.0  0.5548152796898307  0.816936422423964  0.10418894106540577  1.0000
  H   H723      1.0  0.5616802221110297  0.8491873628306069  0.06378372054198223  1.0000
  H   H724      1.0  0.5615646757517246  0.8554334106429278  0.12895553266674686  1.0000
  N   N40       1.0  0.8786009217499056  0.20429643128753927  0.1825750821543417  1.0000
  C   C541      1.0  0.8621151321965934  0.1880032065337899  0.1569881918723368  1.0000
  C   C542      1.0  0.8955465207572559  0.18211490947706283  0.18662632451075556  1.0000
  C   C543      1.0  0.8721573263018928  0.21396922021317968  0.2324232931701009  1.0000
  C   C544      1.0  0.8845679460141593  0.23296180230460578  0.15425806394102692  1.0000
  H   H725      1.0  0.849194634481525  0.20418155527169715  0.15224258170988336  1.0000
  H   H726      1.0  0.8569582260659484  0.1668617284069039  0.17817569125121757  1.0000
  H   H727      1.0  0.8665560152723065  0.17923253263533456  0.11988144339175211  1.0000
  H   H728      1.0  0.9086552777664674  0.19412211575784086  0.20323069965943596  1.0000
  H   H729      1.0  0.8918800185183742  0.16103045431482413  0.21002790660831927  1.0000
  H   H730      1.0  0.9001239058506565  0.17291936582783177  0.14986329364364726  1.0000
  H   H731      1.0  0.884111162131088  0.22672449904284295  0.2526688396678487  1.0000
  H   H732      1.0  0.8678676108327624  0.19271222518508338  0.2549203782559384  1.0000
  H   H733      1.0  0.8590670824895499  0.2301275835051591  0.23104297619081282  1.0000
  H   H734      1.0  0.8722133946673123  0.2503973552748302  0.15081746686723996  1.0000
  H   H735      1.0  0.8893495587998183  0.22635495870178066  0.11639856562363504  1.0000
  H   H736      1.0  0.8972755269612831  0.2455077465902778  0.17188735850744852  1.0000
  N   N41       1.0  0.7261013591044655  0.8545220742537658  0.5141797286572187  1.0000
  C   C545      1.0  0.7476616972046756  0.8578689927230696  0.5213461794713187  1.0000
  C   C546      1.0  0.7163620078123981  0.8505293209621285  0.5624298946084675  1.0000
  C   C547      1.0  0.7219900599563811  0.8261444355542973  0.4830498143625831  1.0000
  C   C548      1.0  0.7183349894182613  0.8836346537941293  0.4899316777289234  1.0000
  H   H737      1.0  0.7555319097730122  0.8605412902327808  0.4856290945241374  1.0000
  H   H738      1.0  0.7540184119862979  0.8366811039218012  0.5405432951198254  1.0000
  H   H739      1.0  0.7512938478886014  0.8793862405101824  0.5438475650967172  1.0000
  H   H740      1.0  0.7000723700839894  0.8480171332723567  0.5582219220852319  1.0000
  H   H741      1.0  0.7218931537137171  0.8289664486288125  0.5821756148582499  1.0000
  H   H742      1.0  0.7190634057200789  0.8716061478407681  0.5867083220040629  1.0000
  H   H743      1.0  0.7058440049836436  0.823265396067321  0.47624929641461566  1.0000
  H   H744      1.0  0.7273665628283646  0.8036903867410945  0.500672596545951  1.0000
  H   H745      1.0  0.7293994200512496  0.8280819247151193  0.4466093311181858  1.0000
  H   H746      1.0  0.7020765215048471  0.8818662345739453  0.48382212365871285  1.0000
  H   H747      1.0  0.7254405741055509  0.8876138414018517  0.45357678038133914  1.0000
  H   H748      1.0  0.721082855221791  0.9054404966925514  0.5127563949192986  1.0000
  N   N42       1.0  0.8851847770672595  0.025444282351738234  0.9705760802011837  1.0000
  C   C549      1.0  0.8708440931382045  0.9987792848684603  0.9665091297772338  1.0000
  C   C550      1.0  0.9048038923931553  0.01436935498836256  0.953933060534044  1.0000
  C   C551      1.0  0.8864485612493561  0.03616323092595275  0.02237842000130752  1.0000
  C   C552      1.0  0.8786132362835399  0.05246995862051573  0.9394085734132662  1.0000
  H   H749      1.0  0.8558534672064784  0.006368000084273184  0.9786820513753698  1.0000
  H   H750      1.0  0.8753469810995494  0.9779627557223902  0.9895909044900362  1.0000
  H   H751      1.0  0.8695456888804789  0.9901113185699627  0.9278201425833466  1.0000
  H   H752      1.0  0.9158248869942627  0.03424843311796666  0.9544607641103148  1.0000
  H   H753      1.0  0.9105465374265168  0.9946626985609436  0.9775435307642153  1.0000
  H   H754      1.0  0.9041331386691933  0.0049332982158007965  0.9156136253424935  1.0000
  H   H755      1.0  0.8965381576168162  0.05713284820009035  0.0264525687236028  1.0000
  H   H756      1.0  0.891890366194507  0.016745556989765653  0.046942664000770185  1.0000
  H   H757      1.0  0.8717378311274795  0.043787523945924  0.0364823312976994  1.0000
  H   H758      1.0  0.8638578840010203  0.0615389132370483  0.9510347266848779  1.0000
  H   H759      1.0  0.8775653970054075  0.04534154466864293  0.8999974586568179  1.0000
  H   H760      1.0  0.8890402622539835  0.07309672392032063  0.9418394287063336  1.0000
  N   N43       1.0  0.099774748296241  0.8830777706599421  0.8858536310768517  1.0000
  C   C553      1.0  0.08111618325365244  0.8979775515977854  0.9023065639296842  1.0000
  C   C554      1.0  0.11485708211901047  0.9082808813632035  0.8784020963464417  1.0000
  C   C555      1.0  0.09632953013889489  0.8658363650989794  0.8390308544961391  1.0000
  C   C556      1.0  0.10674572718645603  0.8602309048797684  0.9236442416945507  1.0000
  H   H761      1.0  0.06930199462773867  0.879690161045896  0.907580452883427  1.0000
  H   H762      1.0  0.07560239906238642  0.9158190150300899  0.8751312504446022  1.0000
  H   H763      1.0  0.08309044180724268  0.9108915330023647  0.9379250027930199  1.0000
  H   H764      1.0  0.11709420862507791  0.9228625993630215  0.9123647597750111  1.0000
  H   H765      1.0  0.12939081788112428  0.897918778821555  0.8679207664886938  1.0000
  H   H766      1.0  0.11045158103727859  0.9250719610869297  0.8485639335011977  1.0000
  H   H767      1.0  0.11013772039696912  0.8544999644322906  0.8252743023012302  1.0000
  H   H768      1.0  0.09088859007139538  0.8824068428960957  0.8098534715983213  1.0000
  H   H769      1.0  0.08510035059944632  0.8464852001552005  0.8435676732420216  1.0000
  H   H770      1.0  0.12075184684952678  0.8483765303687607  0.912495418747056  1.0000
  H   H771      1.0  0.0956640147189809  0.84092069727107  0.9303409091426968  1.0000
  H   H772      1.0  0.10949100085467078  0.8724776829295021  0.9594926498839143  1.0000
  N   N44       1.0  0.3633504031251013  0.12458881604412718  0.597897518975818  1.0000
  C   C557      1.0  0.3758212740216957  0.13991797778778572  0.5599530007001393  1.0000
  C   C558      1.0  0.3623023693981409  0.14546232458828437  0.6418433858742051  1.0000
  C   C559      1.0  0.37198596483577656  0.09334224017477841  0.6119186624651015  1.0000
  C   C560      1.0  0.3432419900526651  0.11968186246308334  0.5779172670871663  1.0000
  H   H773      1.0  0.3908161607506239  0.14581370421472106  0.5742967298118028  1.0000
  H   H774      1.0  0.36915957969644725  0.16269373510711907  0.5467301313381989  1.0000
  H   H775      1.0  0.37768855874258467  0.12420427784029259  0.5271686351044546  1.0000
  H   H776      1.0  0.3546731945539307  0.1683895519810191  0.6335981981589501  1.0000
  H   H777      1.0  0.3540981378627912  0.13370165952052698  0.6724151394000668  1.0000
  H   H778      1.0  0.3772882736899358  0.15134658321100658  0.6562030820104159  1.0000
  H   H779      1.0  0.3631503381894638  0.08135874556846577  0.6411856246835248  1.0000
  H   H780      1.0  0.3871476617296859  0.09638389234278857  0.6270439183068484  1.0000
  H   H781      1.0  0.37293120983994127  0.07675137589177307  0.5799199519554104  1.0000
  H   H782      1.0  0.33337921413454774  0.10830012610676175  0.60560067613285  1.0000
  H   H783      1.0  0.3434570592989815  0.10411326372186183  0.5445954137177803  1.0000
  H   H784      1.0  0.3363886411716668  0.14296418348345424  0.5669377058093662  1.0000
  N   N45       1.0  0.12153962785288794  0.13593533453927217  0.07142157332305832  1.0000
  C   C561      1.0  0.13143640132556658  0.16645079394896814  0.05866933251515149  1.0000
  C   C562      1.0  0.10635907062747442  0.12852528695099086  0.03392023225521967  1.0000
  C   C563      1.0  0.11205815909002544  0.13903976088387215  0.12017660351817452  1.0000
  C   C564      1.0  0.13623162193676194  0.10969832245959216  0.07290195611352512  1.0000
  H   H785      1.0  0.14299025192306467  0.1728703283426841  0.08619931883358056  1.0000
  H   H786      1.0  0.12070147600047001  0.18669857774529977  0.05727581664995518  1.0000
  H   H787      1.0  0.1387007812580445  0.16497624625508844  0.02201019996066811  1.0000
  H   H788      1.0  0.0950933371827909  0.14792387756705158  0.03134030390572562  1.0000
  H   H789      1.0  0.11295874001373438  0.12550564957697696  0.9967357878508066  1.0000
  H   H790      1.0  0.09842204168167279  0.10590085965968632  0.042817755860768296  1.0000
  H   H791      1.0  0.10493998642115576  0.11608560637298351  0.13150291728860328  1.0000
  H   H792      1.0  0.10037967780915946  0.1578690370602162  0.11996019522428425  1.0000
  H   H793      1.0  0.12296906937665261  0.1455978017875883  0.14919252153655632  1.0000
  H   H794      1.0  0.12925900718169078  0.08637343786537521  0.0829405817657991  1.0000
  H   H795      1.0  0.14808589068631856  0.11450572356931235  0.10036292899435395  1.0000
  H   H796      1.0  0.14348543320653467  0.10612689113595365  0.03653286851961801  1.0000
  N   N46       1.0  0.9236140067775523  0.28750467743736124  0.7747801292350196  1.0000
  C   C565      1.0  0.9257556567273929  0.25624869020454616  0.7495891305360824  1.0000
  C   C566      1.0  0.9369414085051774  0.31134017417410487  0.7520210486510577  1.0000
  C   C567      1.0  0.9287333798483636  0.2838322786040604  0.8273882559416545  1.0000
  C   C568      1.0  0.902958979252272  0.2985565238658701  0.770137922453786  1.0000
  H   H797      1.0  0.9157769026607662  0.2378370788205593  0.7660280401433973  1.0000
  H   H798      1.0  0.9411318873434793  0.24703221866582495  0.7524844511036527  1.0000
  H   H799      1.0  0.9219677276741542  0.2581494067734819  0.7098134265599421  1.0000
  H   H800      1.0  0.9356205169603603  0.3351370620734729  0.7703979655979158  1.0000
  H   H801      1.0  0.9526620433656559  0.30378813059094095  0.7542903303919334  1.0000
  H   H802      1.0  0.9332519664411153  0.3151870523660028  0.712489152895683  1.0000
  H   H803      1.0  0.9263059799815595  0.3065515264558439  0.8481578693252293  1.0000
  H   H804      1.0  0.9444241491035764  0.27670573213898386  0.8324333690716785  1.0000
  H   H805      1.0  0.9195030680546225  0.2649915505745389  0.8450914824867247  1.0000
  H   H806      1.0  0.900689628999335  0.32191992901260824  0.789297201399369  1.0000
  H   H807      1.0  0.8924573166162941  0.2808299503197366  0.7861769219906116  1.0000
  H   H808      1.0  0.8987273038769185  0.30235588346310016  0.7309661593999436  1.0000
  N   N47       1.0  0.6291329691194161  0.2925831992718609  0.9927365748403022  1.0000
  C   C569      1.0  0.6219201455019305  0.3156919611498243  0.02992204064310311  1.0000
  C   C570      1.0  0.6242854890373224  0.25957375879706723  0.008528934165091151  1.0000
  C   C571      1.0  0.6507703456881051  0.295944858567467  0.987780229307097  1.0000
  C   C572      1.0  0.6195967942669582  0.29913078116641245  0.9447743505027197  1.0000
  H   H809      1.0  0.6253412324096514  0.34087229637076755  0.019245335268559094  1.0000
  H   H810      1.0  0.6287082782462154  0.3113730612205608  0.06667754549133931  1.0000
  H   H811      1.0  0.6055905246592962  0.31412332009550176  0.03439942165189991  1.0000
  H   H812      1.0  0.629679887141995  0.2414330620317559  0.9816721315925242  1.0000
  H   H813      1.0  0.6310796251140237  0.2538794968628975  0.04488074799357822  1.0000
  H   H814      1.0  0.6080433527771408  0.25619050223584955  0.01225577875698125  1.0000
  H   H815      1.0  0.656732783675528  0.2790107486876416  0.9598135370175964  1.0000
  H   H816      1.0  0.6583956057054932  0.2909697353764574  0.023327409203721006  1.0000
  H   H817      1.0  0.6548949934767256  0.320704994239167  0.9762067306175626  1.0000
  H   H818      1.0  0.6242025571923089  0.2815826249701196  0.9161090934870577  1.0000
  H   H819      1.0  0.6233502694853355  0.3235593014970825  0.9311153341257172  1.0000
  H   H820      1.0  0.603188751932893  0.2980168974655296  0.9476196992972884  1.0000
  N   N48       1.0  0.6905579807355926  0.6937614876507928  0.4108182660109654  1.0000
  C   C573      1.0  0.7048442531912692  0.7031577676991876  0.3723888562256463  1.0000
  C   C574      1.0  0.6963629273444729  0.7086578956008135  0.4581082718690592  1.0000
  C   C575      1.0  0.6904870528663309  0.6584651271871765  0.4161559959978456  1.0000
  C   C576      1.0  0.6705728928980309  0.7046739546003108  0.3966186128211693  1.0000
  H   H821      1.0  0.7011328585733217  0.6919674157486887  0.3362804599435951  1.0000
  H   H822      1.0  0.7200951244784034  0.6955088974295588  0.3822584831827389  1.0000
  H   H823      1.0  0.7052599368530907  0.7296491411515486  0.36733869193447566  1.0000
  H   H824      1.0  0.6864772570194928  0.7008303281893482  0.48850579153554086  1.0000
  H   H825      1.0  0.7117429040858991  0.7020316051974576  0.4686040011872137  1.0000
  H   H826      1.0  0.6956549289141567  0.7353113702857298  0.45622991955172565  1.0000
  H   H827      1.0  0.6802614263007716  0.6506702306732939  0.445966287014641  1.0000
  H   H828      1.0  0.7054909465688319  0.6491919603307185  0.42503961823318726  1.0000
  H   H829      1.0  0.6855805139358995  0.6464714684485583  0.381589412328462  1.0000
  H   H830      1.0  0.6593159240759526  0.6967250964934207  0.4238090446951446  1.0000
  H   H831      1.0  0.6660738945427521  0.6947701527058658  0.360192589150063  1.0000
  H   H832      1.0  0.6697615258034937  0.7313097163235622  0.39433907170848737  1.0000
  N   N49       1.0  0.5881335280421267  0.590818664336276  0.24082419386898618  1.0000
  C   C577      1.0  0.5928458033272247  0.5574026143847901  0.22673240338518377  1.0000
  C   C578      1.0  0.6040860479791569  0.6038312168552524  0.2723204767605612  1.0000
  C   C579      1.0  0.569262568689276  0.5915275556406309  0.26807772265087493  1.0000
  C   C580      1.0  0.5863489538341126  0.6105840212039123  0.19597349384500895  1.0000
  H   H833      1.0  0.5812971693496449  0.54705898901814  0.20208114102554656  1.0000
  H   H834      1.0  0.5940546009024887  0.5415633089039853  0.25953321222702147  1.0000
  H   H835      1.0  0.6071028372718931  0.5559920637032574  0.20645624729236448  1.0000
  H   H836      1.0  0.6009445986090072  0.6290098624719376  0.2835597272557236  1.0000
  H   H837      1.0  0.6057897062234493  0.5896218151834125  0.3067172868430224  1.0000
  H   H838      1.0  0.6185284178470597  0.6038804790960175  0.25279366561688077  1.0000
  H   H839      1.0  0.5701613989415022  0.5773401715430546  0.3026899107391268  1.0000
  H   H840      1.0  0.5569184387282704  0.5816691660454537  0.24553696535927969  1.0000
  H   H841      1.0  0.5652041045534951  0.616477678930131  0.2787541544531102  1.0000
  H   H842      1.0  0.5744697726755897  0.6015444546333114  0.17115700466621334  1.0000
  H   H843      1.0  0.6003500095915074  0.6107737846108199  0.17477366414320447  1.0000
  H   H844      1.0  0.5828548739628634  0.6359440797313616  0.20470150768289522  1.0000
  N   N50       1.0  0.15096014794270848  0.4255170300853676  0.571205265441222  1.0000
  C   C581      1.0  0.1503238377946784  0.3981833869601583  0.6057635557241166  1.0000
  C   C582      1.0  0.1578027256730032  0.454574433288114  0.5974864630778964  1.0000
  C   C583      1.0  0.1309850347001481  0.43119627707593583  0.5510281663016933  1.0000
  C   C584      1.0  0.16466471984035252  0.4180651429215166  0.530498443200589  1.0000
  H   H845      1.0  0.14526873592740172  0.3758485967725709  0.5870115657934826  1.0000
  H   H846      1.0  0.13994531988810713  0.40283095197298624  0.6367403519909399  1.0000
  H   H847      1.0  0.16509103913617018  0.3932059507124904  0.6220191156685605  1.0000
  H   H848      1.0  0.15824338844274927  0.47580634273596767  0.572620508833423  1.0000
  H   H849      1.0  0.1476642525462368  0.4608839371674386  0.6282265333174996  1.0000
  H   H850      1.0  0.17282160457924367  0.45127414647171943  0.6133222500702112  1.0000
  H   H851      1.0  0.12558048061002752  0.41016137184189194  0.5296232475438211  1.0000
  H   H852      1.0  0.1307009646290515  0.4524875737551697  0.5263159408062313  1.0000
  H   H853      1.0  0.12014908555829791  0.4358254328767973  0.5809219090084865  1.0000
  H   H854      1.0  0.165383725765853  0.43813593840667703  0.5035529397805144  1.0000
  H   H855      1.0  0.1598947246143011  0.39611314332443825  0.5101569844240672  1.0000
  H   H856      1.0  0.17990699086731984  0.41368424016828687  0.5443649673045414  1.0000
  N   N51       1.0  0.40910803872160334  0.5445689293206686  0.8304627691671411  1.0000
  C   C585      1.0  0.4076696780019732  0.5379324516614981  0.777110171002014  1.0000
  C   C586      1.0  0.39497610649059195  0.5239668730105819  0.8573436699035482  1.0000
  C   C587      1.0  0.40452317680634525  0.5786825313318494  0.8398524304760117  1.0000
  C   C588      1.0  0.42938378478789124  0.5377004276576075  0.8475510625788337  1.0000
  H   H857      1.0  0.4177089158877579  0.5538091687975506  0.7557357803755615  1.0000
  H   H858      1.0  0.3924298397575311  0.5417271267853891  0.7629962008629434  1.0000
  H   H859      1.0  0.41188064457781554  0.5126975388394422  0.7683786265324057  1.0000
  H   H860      1.0  0.39594996354868883  0.5278676365806003  0.8978629295255859  1.0000
  H   H861      1.0  0.3794751098931503  0.5285174018386316  0.8457662845894283  1.0000
  H   H862      1.0  0.39805857191902755  0.49804787315499116  0.850972638207585  1.0000
  H   H863      1.0  0.4055254498892804  0.5844143158158182  0.8798333519671208  1.0000
  H   H864      1.0  0.38935578774588375  0.5848041042406923  0.8272041821971405  1.0000
  H   H865      1.0  0.4150571677256693  0.5947805777191707  0.8202251011515505  1.0000
  H   H866      1.0  0.440500205299781  0.5527889279576916  0.828216454171202  1.0000
  H   H867      1.0  0.43325905919519603  0.5122263531788644  0.840770164248827  1.0000
  H   H868      1.0  0.4310163828867161  0.5418682249387541  0.8878583551896232  1.0000
  N   N52       1.0  0.04938420671948718  0.5486303492826172  0.5685902478108743  1.0000
  C   C589      1.0  0.05725386561037671  0.5730070865243392  0.5342833101520039  1.0000
  C   C590      1.0  0.049934486389100474  0.5613613165774066  0.6193825370231573  1.0000
  C   C591      1.0  0.06158255350677577  0.5193236002809578  0.5656298942688938  1.0000
  C   C592      1.0  0.028765761178612737  0.5406824985283205  0.5552446651481786  1.0000
  H   H869      1.0  0.056813976833293145  0.5644095062511297  0.49550208638944204  1.0000
  H   H870      1.0  0.0729306862316419  0.5789674063194248  0.5428659228887327  1.0000
  H   H871      1.0  0.04872411759375761  0.5957825427808789  0.5362618888486523  1.0000
  H   H872      1.0  0.06525633876495451  0.5677046758286322  0.6306929713758694  1.0000
  H   H873      1.0  0.040777787223723605  0.5833700470152012  0.6230954229913849  1.0000
  H   H874      1.0  0.044217878993461524  0.5434107032612255  0.6462375118123943  1.0000
  H   H875      1.0  0.05571733737280793  0.5001520043217378  0.5900388631211886  1.0000
  H   H876      1.0  0.07708933028862375  0.5241099724250231  0.5770367602040877  1.0000
  H   H877      1.0  0.06198053278144866  0.5094712268686901  0.5275833910191429  1.0000
  H   H878      1.0  0.022457431651022874  0.5224175995226017  0.5808355518838147  1.0000
  H   H879      1.0  0.027778788249490205  0.53061445520594  0.5173641685642348  1.0000
  H   H880      1.0  0.01909348827978752  0.5622175333174625  0.556956285608706  1.0000
  N   N53       1.0  0.428591221789302  0.8776990203183053  0.6896206507843542  1.0000
  C   C593      1.0  0.4086262265107224  0.876950007986004  0.7115383834331944  1.0000
  C   C594      1.0  0.42970899768383186  0.903859128701133  0.6530329387900254  1.0000
  C   C595      1.0  0.43263445834976005  0.8466752141948862  0.6652070921490333  1.0000
  C   C596      1.0  0.44338598317463046  0.8832974545231577  0.7288007571011911  1.0000
  H   H881      1.0  0.4050071591751376  0.9001823651520575  0.7297599553038986  1.0000
  H   H882      1.0  0.40738694114388807  0.8577921755245754  0.7399151800778985  1.0000
  H   H883      1.0  0.3970695217837932  0.8723263504646267  0.6832630517618822  1.0000
  H   H884      1.0  0.418730800152516  0.9004181239927205  0.6229530767359981  1.0000
  H   H885      1.0  0.4266493424098289  0.9276094694801786  0.6702611063913009  1.0000
  H   H886      1.0  0.44462658461196286  0.9052881871769555  0.636030486285034  1.0000
  H   H887      1.0  0.4476279389677583  0.8462140877995886  0.6484882641550852  1.0000
  H   H888      1.0  0.4217057216366995  0.8414959598709951  0.6355872421925854  1.0000
  H   H889      1.0  0.43183974677633435  0.8264767695323031  0.6917848955461365  1.0000
  H   H890      1.0  0.45865564823872307  0.883803494553273  0.713835182237553  1.0000
  H   H891      1.0  0.44279361984099763  0.8641818424965584  0.7572392492304826  1.0000
  H   H892      1.0  0.4407739555714402  0.9064939485912199  0.7480180676035428  1.0000
  N   N54       1.0  0.08819110091428839  0.7784479789772101  0.24584605964341247  1.0000
  C   C597      1.0  0.10281962732420746  0.7551241172235953  0.26451275046307277  1.0000
  C   C598      1.0  0.08651410405213311  0.7753386419268532  0.19176463895766666  1.0000
  C   C599      1.0  0.09462783913870765  0.8113343034356412  0.2586169412880806  1.0000
  C   C600      1.0  0.0687948202294939  0.7719626351410529  0.2687089823934823  1.0000
  H   H893      1.0  0.11772735519576982  0.7594343929274282  0.24876541554571677  1.0000
  H   H894      1.0  0.09853201149023239  0.7301344566849549  0.2549972100594373  1.0000
  H   H895      1.0  0.10412827057592433  0.7563210804883017  0.3053319714412923  1.0000
  H   H896      1.0  0.07544668497878004  0.7923414096274531  0.17635545634842725  1.0000
  H   H897      1.0  0.10086024086660395  0.7800618189481672  0.17324764940472362  1.0000
  H   H898      1.0  0.08175640253921945  0.7507418715522902  0.18095658580310134  1.0000
  H   H899      1.0  0.09604865191664502  0.8143742742005127  0.29926196444740205  1.0000
  H   H900      1.0  0.08389475239386512  0.8295587005775487  0.24515965961045472  1.0000
  H   H901      1.0  0.10922010208499988  0.8170696163774749  0.24201753168080953  1.0000
  H   H902      1.0  0.05737725690315698  0.7891890157545797  0.25579641163374794  1.0000
  H   H903      1.0  0.0696415418464178  0.7736100267620597  0.3096238224346801  1.0000
  H   H904      1.0  0.06337053452981722  0.7474796963130116  0.2593550443319625  1.0000
  N   N55       1.0  0.2289237259272979  0.4374804133677547  0.014684590126562425  1.0000
  C   C601      1.0  0.25016135495312386  0.4375037648261683  0.027597142102236294  1.0000
  C   C602      1.0  0.22663933789387075  0.4387523421715359  0.9606107908324509  1.0000
  C   C603      1.0  0.21922988431110857  0.4657545116528997  0.036918825516741194  1.0000
  C   C604      1.0  0.21958446165298726  0.4078851174787123  0.03358757990800387  1.0000
  H   H905      1.0  0.25238502770921983  0.43614609360510453  0.06808130200467355  1.0000
  H   H906      1.0  0.2577127797933617  0.45965649381202894  0.014593794603634523  1.0000
  H   H907      1.0  0.2579869518139271  0.4165457589098836  0.01134466308937032  1.0000
  H   H908      1.0  0.23348297675276009  0.4608284551967676  0.9451277958836976  1.0000
  H   H909      1.0  0.23368033976947525  0.41769710722680975  0.9425596912286864  1.0000
  H   H910      1.0  0.21073737917260132  0.4388424224248295  0.9497596411744408  1.0000
  H   H911      1.0  0.20325261004204712  0.4667602293850568  0.027096718500925654  1.0000
  H   H912      1.0  0.22612820491812  0.48855440858491117  0.024385862428775607  1.0000
  H   H913      1.0  0.22024235783500387  0.4652154339045429  0.07774738953458192  1.0000
  H   H914      1.0  0.20361838023054885  0.406806885016947  0.02359944102506528  1.0000
  H   H915      1.0  0.22068265652208152  0.4064875396116318  0.07445716151940784  1.0000
  H   H916      1.0  0.22678059277515192  0.3860250981691091  0.018425987481468505  1.0000
  N   N56       1.0  0.974662544973063  0.37881732001922347  0.9664701009083629  1.0000
  C   C605      1.0  0.996243555413992  0.3825508446195911  0.9726948861537982  1.0000
  C   C606      1.0  0.9660248566788101  0.40988212076977526  0.9514833662982018  1.0000
  C   C607      1.0  0.9657906816181284  0.3683105064275197  0.013475373785142741  1.0000
  C   C608      1.0  0.9706214889185348  0.3544641421203284  0.9281443579760209  1.0000
  H   H917      1.0  0.9998320834524428  0.40054084695379955  0.0016618972159596623  1.0000
  H   H918      1.0  0.003380359272643574  0.390462618777988  0.9378787727729798  1.0000
  H   H919      1.0  0.0032819161063659674  0.35952558055912864  0.9838197506903165  1.0000
  H   H920      1.0  0.9688567764212348  0.4288854299662008  0.9793787829921127  1.0000
  H   H921      1.0  0.9722383432645259  0.41832991603143266  0.9158360786262358  1.0000
  H   H922      1.0  0.9497497338815669  0.4080558440378734  0.9467075566778225  1.0000
  H   H923      1.0  0.9495181934902374  0.36489810366883857  0.009905581993507218  1.0000
  H   H924      1.0  0.9683801072343925  0.38612754354188905  0.043293397187778915  1.0000
  H   H925      1.0  0.9721084322142646  0.34501207916373966  0.02589237201702521  1.0000
  H   H926      1.0  0.9544442851178654  0.3504192357122508  0.923610868274087  1.0000
  H   H927      1.0  0.9774565121579912  0.3309986873953456  0.9378295684594801  1.0000
  H   H928      1.0  0.9766126770881481  0.36197435308341813  0.8918305759556395  1.0000
  N   N57       1.0  0.2904793027410121  0.32493403632334794  0.25513616710611886  1.0000
  C   C609      1.0  0.29915961127489665  0.31849414720402325  0.20624877892995533  1.0000
  C   C610      1.0  0.2960822891037302  0.3575835232689335  0.27135886169382484  1.0000
  C   C611      1.0  0.2979712305383385  0.3011666238656474  0.2908140392893893  1.0000
  C   C612      1.0  0.2687309573747603  0.3224239362996375  0.2521934613961264  1.0000
  H   H929      1.0  0.3155794914983798  0.3205129669953517  0.20729258031909303  1.0000
  H   H930      1.0  0.29365778422951677  0.3358480582644061  0.17826236856958882  1.0000
  H   H931      1.0  0.2955002096770473  0.29389979535920285  0.19313033519192688  1.0000
  H   H932      1.0  0.2900907818283494  0.36314882291779504  0.3084691795767974  1.0000
  H   H933      1.0  0.31240338649025434  0.36037769117400753  0.2734103449793698  1.0000
  H   H934      1.0  0.29055549716507395  0.37615735930786953  0.2453747350347025  1.0000
  H   H935      1.0  0.3143080615139209  0.30216067420711323  0.29372717192962133  1.0000
  H   H936      1.0  0.29396062315842014  0.27624993609297466  0.2798632050256623  1.0000
  H   H937      1.0  0.291829604960973  0.30533717067795885  0.32825319782468165  1.0000
  H   H938      1.0  0.2617936577815347  0.3268852467621184  0.288689122385094  1.0000
  H   H939      1.0  0.2640380247426291  0.29801338742476013  0.24021885821908204  1.0000
  H   H940      1.0  0.26253185041614  0.34010673495393884  0.22563286675327404  1.0000
  N   N58       1.0  0.5122302420832517  0.22080536989030863  0.7438432655500186  1.0000
  C   C613      1.0  0.5113556510844468  0.23716439581203505  0.7921105205619747  1.0000
  C   C614      1.0  0.5061546899809476  0.18691907154917387  0.7495381690540505  1.0000
  C   C615      1.0  0.5326389134626054  0.2222222828523755  0.724681543916393  1.0000
  C   C616      1.0  0.4987245307133588  0.23689382800843253  0.708953442453949  1.0000
  H   H941      1.0  0.5213888020764229  0.22566164913703665  0.8193322788437929  1.0000
  H   H942      1.0  0.49615577361622437  0.23641408538934983  0.807737582288198  1.0000
  H   H943      1.0  0.5156888824284789  0.2628632532513204  0.7890897692775445  1.0000
  H   H944      1.0  0.5063342912502827  0.17404521282219892  0.7136086285406636  1.0000
  H   H945      1.0  0.5161758118791059  0.17376939237714084  0.7749135531346723  1.0000
  H   H946      1.0  0.4908696086307777  0.18499582571903156  0.764428300784504  1.0000
  H   H947      1.0  0.5338434129562799  0.2097447411436632  0.688582041765728  1.0000
  H   H948      1.0  0.5432875290742437  0.21059636667860615  0.7502872923388568  1.0000
  H   H949      1.0  0.5376419467800496  0.2474105203484851  0.7191462516863351  1.0000
  H   H950      1.0  0.5030352318768764  0.26235933799030137  0.702994496097023  1.0000
  H   H951      1.0  0.4832541139778848  0.23675724997799646  0.7229261500792402  1.0000
  H   H952      1.0  0.49875046308699345  0.22467566377029577  0.6724010401851845  1.0000
  N   N59       1.0  0.7069247294659169  0.0706714086005946  0.18997486984925516  1.0000
  C   C617      1.0  0.7005404635357051  0.07715660630599866  0.2410560563845041  1.0000
  C   C618      1.0  0.6984853328975196  0.03978847076799186  0.1731483079973466  1.0000
  C   C619      1.0  0.7287295532855701  0.06894708009865064  0.18807672718145851  1.0000
  C   C620      1.0  0.6999235079448572  0.09676052603446533  0.15753754366774286  1.0000
  H   H953      1.0  0.7052099926040755  0.05773669456259078  0.26653217656910133  1.0000
  H   H954      1.0  0.6841638558385035  0.07918468850457583  0.24358918754184944  1.0000
  H   H955      1.0  0.7068433039826214  0.10006342140408862  0.2551707608493612  1.0000
  H   H956      1.0  0.702827412854338  0.03430118345198774  0.13457197803604148  1.0000
  H   H957      1.0  0.7033850102805567  0.019541574969809572  0.19681474432013868  1.0000
  H   H958      1.0  0.6820507667030947  0.040148674815659646  0.17416175480246898  1.0000
  H   H959      1.0  0.7340749135335316  0.0640486135115359  0.1500988582497702  1.0000
  H   H960      1.0  0.734553445738112  0.049769088685297724  0.21253285444196623  1.0000
  H   H961      1.0  0.7356637473608357  0.09184521515581735  0.20011755877082193  1.0000
  H   H962      1.0  0.7046564432319751  0.09298280775807746  0.11878671562470755  1.0000
  H   H963      1.0  0.7056703912805241  0.1205120328813069  0.1697389139572143  1.0000
  H   H964      1.0  0.6834890271052347  0.09830096601992237  0.15749766275819055  1.0000
  N   N60       1.0  0.7814372966634038  0.01935776814842738  0.42075168388355094  1.0000
  C   C621      1.0  0.7802141697472204  0.027790259148446236  0.4735282009971364  1.0000
  C   C622      1.0  0.7705393828695198  0.04348497468481405  0.39157117030978755  1.0000
  C   C623      1.0  0.7726648742351433  0.987266557824779  0.41287547665376806  1.0000
  C   C624      1.0  0.8023416968259186  0.018970547287990414  0.4050941936523541  1.0000
  H   H965      1.0  0.7893802861264838  0.0114136003784997  0.496538112281123  1.0000
  H   H966      1.0  0.7648142793833785  0.025998655356084255  0.48755046751816783  1.0000
  H   H967      1.0  0.7853701991993521  0.05276220429608336  0.48030786593958436  1.0000
  H   H968      1.0  0.7768458634457597  0.06799280625602053  0.39719707517899905  1.0000
  H   H969      1.0  0.7713458160548173  0.03817154884304608  0.35148348130189894  1.0000
  H   H970      1.0  0.7547072042537036  0.04442278632523844  0.4023931156478788  1.0000
  H   H971      1.0  0.7730683026733377  0.9801412951663444  0.373446189529494  1.0000
  H   H972      1.0  0.7570501760750176  0.9863640738841035  0.42559684494369476  1.0000
  H   H973      1.0  0.780789384375162  0.9686615370652962  0.4340962093800231  1.0000
  H   H974      1.0  0.8114811305570168  0.0030679159639366294  0.42894261877256373  1.0000
  H   H975      1.0  0.808918587473983  0.04336218613224995  0.4068708885090024  1.0000
  H   H976      1.0  0.8039710423149181  0.010493986190685423  0.36649439217248053  1.0000
  N   N61       1.0  0.5567541163795139  0.4225860935868829  0.792408072234424  1.0000
  C   C625      1.0  0.5754122749497544  0.43335489994537196  0.7695999736917908  1.0000
  C   C626      1.0  0.5399790407895109  0.4394733316455158  0.7691147239643747  1.0000
  C   C627      1.0  0.5571639125793538  0.42989971669712285  0.845641713811806  1.0000
  C   C628      1.0  0.554412726275359  0.3876017773935459  0.7852341160438  1.0000
  H   H977      1.0  0.5751607596585548  0.4297157538553916  0.7289941206508956  1.0000
  H   H978      1.0  0.5882530721584494  0.4196643943497953  0.7841156066042775  1.0000
  H   H979      1.0  0.5782168117009121  0.45929076952666764  0.776314579108601  1.0000
  H   H980      1.0  0.52563819483563  0.43193954962404946  0.7855219178463405  1.0000
  H   H981      1.0  0.5412308309042236  0.46591915116287336  0.773782256400096  1.0000
  H   H982      1.0  0.5391551234885446  0.43426206105188453  0.7289583934429471  1.0000
  H   H983      1.0  0.5691302893372655  0.41656109535963565  0.8649158893165684  1.0000
  H   H984      1.0  0.5429971161819975  0.4230960698939781  0.863362290927215  1.0000
  H   H985      1.0  0.5594085446846272  0.4559345564227364  0.8526454068315753  1.0000
  H   H986      1.0  0.5667840720249642  0.37404529811550596  0.8024469950914356  1.0000
  H   H987      1.0  0.5542679240797589  0.38117894553268966  0.7454205873873436  1.0000
  H   H988      1.0  0.540383814098894  0.3787580575895565  0.8018872701447746  1.0000
  N   N62       1.0  0.12354636728386859  0.3194454634521525  0.3043117973898098  1.0000
  C   C629      1.0  0.13991647313026445  0.3333519447955204  0.3334390885547593  1.0000
  C   C630      1.0  0.11235429615658266  0.29662328114752173  0.33516223634582515  1.0000
  C   C631      1.0  0.13168306285343534  0.30243862205524075  0.2611074670289971  1.0000
  C   C632      1.0  0.11024299173808738  0.34532487015646945  0.28751791647550623  1.0000
  H   H989      1.0  0.15033491491155604  0.3143971823982661  0.3460508824112203  1.0000
  H   H990      1.0  0.13433071811920239  0.3458102839072481  0.36693282814206285  1.0000
  H   H991      1.0  0.14852074019608486  0.3509904630649159  0.31134524070620084  1.0000
  H   H992      1.0  0.10662786777534672  0.3082927113987838  0.36919365885744365  1.0000
  H   H993      1.0  0.09951234954144939  0.2864113360747909  0.31481151984683337  1.0000
  H   H994      1.0  0.12181444993669532  0.27622226803651734  0.34692271906729244  1.0000
  H   H995      1.0  0.1197487259368033  0.29112316738808514  0.23886997661096693  1.0000
  H   H996      1.0  0.14200894711299505  0.2829776842920125  0.27228835949440844  1.0000
  H   H997      1.0  0.13990458188560906  0.31909486207861054  0.23643605488641303  1.0000
  H   H998      1.0  0.09792530299743984  0.33564284687006646  0.2646378207360269  1.0000
  H   H999      1.0  0.11826322630645492  0.36316964300172516  0.2644682134280078  1.0000
  H   H1000     1.0  0.10363629205712943  0.358417241542089  0.3191572404292875  1.0000
  N   N63       1.0  0.416462283433856  0.3070804335341379  0.6470170824065679  1.0000
  C   C633      1.0  0.4146272255878704  0.30475847746396345  0.5928949612875802  1.0000
  C   C634      1.0  0.4261612386339642  0.277878201299723  0.6661698782041794  1.0000
  C   C635      1.0  0.3965715722691194  0.3100981078508343  0.6688976744687897  1.0000
  C   C636      1.0  0.4284485171879018  0.33554228266440533  0.6601279833925197  1.0000
  H   H1001     1.0  0.4076347795267906  0.3265850409208354  0.57705136043807  1.0000
  H   H1002     1.0  0.4053959986847848  0.2838231193400289  0.5818958044911308  1.0000
  H   H1003     1.0  0.4292839383736458  0.3015725838745221  0.5750517138562996  1.0000
  H   H1004     1.0  0.4168199309173914  0.2562621308839388  0.6602152384044727  1.0000
  H   H1005     1.0  0.44054462056018473  0.27336132662981866  0.647684705011633  1.0000
  H   H1006     1.0  0.42905251583631454  0.27975170643814795  0.7063421894629974  1.0000
  H   H1007     1.0  0.39736155500612647  0.31166197730855066  0.7097086944321016  1.0000
  H   H1008     1.0  0.3870767587359867  0.2891098042153887  0.6595072241491065  1.0000
  H   H1009     1.0  0.38891478522612244  0.3321130223404215  0.6558308639377928  1.0000
  H   H1010     1.0  0.4214711130294745  0.3581142352221421  0.646868132000539  1.0000
  H   H1011     1.0  0.4435319203039992  0.33412318604513386  0.6441170830146224  1.0000
  H   H1012     1.0  0.4301394050418825  0.3379139129032814  0.7007762612353783  1.0000
  N   N64       1.0  0.5120450397169114  0.6294138687508787  0.6075920105373852  1.0000
  C   C637      1.0  0.4968747578715334  0.6049989934582584  0.6190477891923358  1.0000
  C   C638      1.0  0.5319465513063723  0.615036445498112  0.6118321005296966  1.0000
  C   C639      1.0  0.5102849019627147  0.6564966652855503  0.6425075565082283  1.0000
  C   C640      1.0  0.5090696367945301  0.6412503617250312  0.5568860036027847  1.0000
  H   H1013     1.0  0.49789028568956384  0.5839768351035884  0.5938975773009633  1.0000
  H   H1014     1.0  0.48169860111762897  0.6150653638443262  0.6156732887017494  1.0000
  H   H1015     1.0  0.498404940291952  0.5960115759440101  0.657457941628084  1.0000
  H   H1016     1.0  0.5339505179962588  0.5947394068413577  0.5855656348402912  1.0000
  H   H1017     1.0  0.5437728019140964  0.6328673275941735  0.6035675344098662  1.0000
  H   H1018     1.0  0.5347460292736146  0.6056449335845249  0.6495001554240126  1.0000
  H   H1019     1.0  0.5217914966826788  0.6750771739721653  0.6355484510732997  1.0000
  H   H1020     1.0  0.5118991738142404  0.6483376093159173  0.6813014751909974  1.0000
  H   H1021     1.0  0.4955920249285384  0.6683584937619761  0.6394469314223734  1.0000
  H   H1022     1.0  0.5205115188643764  0.6592476094364401  0.5469791191809232  1.0000
  H   H1023     1.0  0.49440559111582805  0.653039167374158  0.552451258829181  1.0000
  H   H1024     1.0  0.5100505624931488  0.6214561454070595  0.5294789604037679  1.0000
