data_image0
_chemical_formula_structural       FeS2FeS2FeSFeS3FeS2FeS2FeSFeS3FeS2FeS2FeSFeS3FeS2FeS2FeSFeS3FeS2FeS2FeSFeS3FeS2FeS2FeSFeS3FeS2FeS2FeSFeS3FeS2FeS2FeSFeS3FeS2FeS2FeSFeS3FeS2FeS2FeSFeS3FeS2FeS2FeSFeS3FeS2FeS2FeSFeS3FeS2FeS2FeSFeS3FeS2FeS2FeSFeS3FeS2FeS2FeSFeS3FeS2FeS2FeSFeS3C6H4C6H4C6H4C6H4C6H4C6H4C6H4C6H4C6H4C6H4C6H4C6H4C6H4C6H4C6H4C6H4C6H4C6H4C6H4C6H4C6H4C6H4C6H4C6H4C6H4C6H4C6H4C6H4C6H4C6H4C6H4C6H4NC4H12NC4H12NC4H12NC4H12NC4H12NC4H12NC4H12NC4H12NC4H12NC4H12NC4H12NC4H12NC4H12NC4H12NC4H12NC4H12NC4H12NC4H12NC4H12NC4H12NC4H12NC4H12NC4H12NC4H12NC4H12NC4H12NC4H12NC4H12NC4H12NC4H12NC4H12NC4H12
_chemical_formula_sum              "Fe64 S128 C320 H512 N32"
_cell_length_a       29.47611764504418
_cell_length_b       42.61685492596478
_cell_length_c       31.406907937840828
_cell_angle_alpha    90.2693531527417
_cell_angle_beta     116.62395946899052
_cell_angle_gamma    89.73847106795655

_space_group_name_H-M_alt    "P 1"
_space_group_IT_number       1

loop_
  _space_group_symop_operation_xyz
  'x, y, z'

loop_
  _atom_site_type_symbol
  _atom_site_label
  _atom_site_symmetry_multiplicity
  _atom_site_fract_x
  _atom_site_fract_y
  _atom_site_fract_z
  _atom_site_occupancy
  Fe  Fe1       1.0  0.07409599031331719  0.10162897398462117  0.7422184038384382  1.0000
  S   S1        1.0  0.13982023132114063  0.1349156678064274  0.7659383977634288  1.0000
  S   S2        1.0  0.01614514593778043  0.1037857150725412  0.7716214930408914  1.0000
  Fe  Fe2       1.0  0.11202055722825169  0.06178662822321026  0.682286751586757  1.0000
  S   S3        1.0  0.18184188013990768  0.09149234323491984  0.7046432162115249  1.0000
  S   S4        1.0  0.11036513330486517  0.018218861289850355  0.6392702252666942  1.0000
  Fe  Fe3       1.0  0.18694873309535265  0.09138449615069062  0.7779708326423517  1.0000
  S   S5        1.0  0.2527096642754756  0.08269344424975301  0.850410357954196  1.0000
  Fe  Fe4       1.0  0.12806403790602175  0.13211718688871568  0.6903686795298082  1.0000
  S   S6        1.0  0.1398710215978494  0.17202854824180094  0.649260260258674  1.0000
  S   S7        1.0  0.12186359956802027  0.05810779336671924  0.7573059749106508  1.0000
  S   S8        1.0  0.05760010630555801  0.10245400337183001  0.664507644703902  1.0000
  Fe  Fe5       1.0  0.5017822060105858  0.14717686098284377  0.3149289299997652  1.0000
  S   S9        1.0  0.43480360974907434  0.17942709326752676  0.2823693817850687  1.0000
  S   S10       1.0  0.56427571537048  0.14187639355687667  0.292536532111448  1.0000
  Fe  Fe6       1.0  0.4602527210114227  0.11278895796741686  0.3746577150641829  1.0000
  S   S11       1.0  0.3886386158669481  0.14203585689063938  0.3460488230309544  1.0000
  S   S12       1.0  0.47044880237620884  0.06854086447957461  0.4184080729161902  1.0000
  Fe  Fe7       1.0  0.3877600580433766  0.13680163095322892  0.27462275664920444  1.0000
  S   S13       1.0  0.32302280373468883  0.13122152596749964  0.20099659616250426  1.0000
  Fe  Fe8       1.0  0.4408383234245597  0.1828067914926204  0.3559018184590036  1.0000
  S   S14       1.0  0.4212918008120056  0.22973823299353854  0.37754071783996657  1.0000
  S   S15       1.0  0.45421731697935497  0.10417670288467751  0.3016439285974053  1.0000
  S   S16       1.0  0.5127820964657819  0.15405747617666676  0.3901912073047146  1.0000
  Fe  Fe9       1.0  0.5731737851621241  0.2171264772451942  0.9732649964079954  1.0000
  S   S17       1.0  0.5935764842587381  0.1704500340589209  0.9534628198889085  1.0000
  S   S18       1.0  0.5900602537837848  0.25891910773786153  0.9389153232910815  1.0000
  Fe  Fe10      1.0  0.5400767349263048  0.18798715360587762  0.042898741384418446  1.0000
  S   S19       1.0  0.5582494779010794  0.13878537806005842  0.029331825690218194  1.0000
  S   S20       1.0  0.5023752569496533  0.2011725107456334  0.0893372920964871  1.0000
  Fe  Fe11      1.0  0.6289860315671367  0.16011572329704324  0.031235505851089584  1.0000
  S   S21       1.0  0.7061913362625645  0.13708966936865852  0.06869413879294117  1.0000
  Fe  Fe12      1.0  0.5214572100543755  0.15306788220638345  0.9524243989760076  1.0000
  S   S22       1.0  0.47504083649685075  0.12086402466568817  0.8912515038553362  1.0000
  S   S23       1.0  0.6142564716146879  0.2082490763598529  0.05188810738198007  1.0000
  S   S24       1.0  0.49750746681166547  0.20077929433746117  0.965170955385557  1.0000
  Fe  Fe13      1.0  0.0382106376343021  0.1766406266684029  0.012008232082597159  1.0000
  S   S25       1.0  0.01134619311325924  0.13475496775662063  0.037248653549197826  1.0000
  S   S26       1.0  0.08520173665088482  0.17196629959316126  0.9717807722193164  1.0000
  Fe  Fe14      1.0  0.00439782091462404  0.22313127220608203  0.0674136199860273  1.0000
  S   S27       1.0  0.9752791012621536  0.18463082731255218  0.09725609400325388  1.0000
  S   S28       1.0  0.9915510320349711  0.2736378049295168  0.08249076499883731  1.0000
  Fe  Fe15      1.0  0.046678196923043876  0.1590091107194031  0.10829954420302039  1.0000
  S   S29       1.0  0.09803991489601205  0.1339338491630998  0.1762235189324426  1.0000
  Fe  Fe16      1.0  0.9424758281243591  0.16431004444897476  0.02347223102697971  1.0000
  S   S30       1.0  0.8614138202019151  0.14786409711499185  0.9802252118306898  1.0000
  S   S31       1.0  0.07834112240564596  0.19916063384411398  0.08447747893250974  1.0000
  S   S32       1.0  0.9668506738038821  0.2045410129538561  0.9923996014071947  1.0000
  Fe  Fe17      1.0  0.9697484523274745  0.9356647512499069  0.27701639314264886  1.0000
  S   S33       1.0  0.9620520762241097  0.8840614951305119  0.283667756805683  1.0000
  S   S34       1.0  0.9572993211859284  0.9549163258846569  0.20528512131606846  1.0000
  Fe  Fe18      1.0  0.9731957351453709  0.9488384417961863  0.3748518126701519  1.0000
  S   S35       1.0  0.9646060447017031  0.8976536701781908  0.3882009276368571  1.0000
  S   S36       1.0  0.9686807554757806  0.9901827549640799  0.41929155936855117  1.0000
  Fe  Fe19      1.0  0.02103507221696721  0.8897354955106755  0.3592361837977683  1.0000
  S   S37       1.0  0.08055942275744145  0.8515252215456738  0.3836441917195934  1.0000
  Fe  Fe20      1.0  0.9064283067018905  0.8960184278888821  0.3115107985250882  1.0000
  S   S38       1.0  0.8363505864654288  0.8656381995807062  0.2807951389163517  1.0000
  S   S39       1.0  0.03403069363894986  0.9410592083859474  0.35076655239846616  1.0000
  S   S40       1.0  0.9096094904042908  0.9474591847166991  0.2998893177024497  1.0000
  Fe  Fe21      1.0  0.6078278694892353  0.9461078660053335  0.7104702406811091  1.0000
  S   S41       1.0  0.6752445062440992  0.9143231807841459  0.7428749726241026  1.0000
  S   S42       1.0  0.5443205320506919  0.9363185014557867  0.7300357318806108  1.0000
  Fe  Fe22      1.0  0.6533795523041885  0.9849265804688064  0.6575156679816496  1.0000
  S   S43       1.0  0.7251387427965285  0.9558832090925155  0.6866636802241654  1.0000
  S   S44       1.0  0.6532021220348683  0.02937711555460587  0.6173831541054305  1.0000
  Fe  Fe23      1.0  0.672803250398509  0.9145260714866047  0.6707109253220214  1.0000
  S   S45       1.0  0.6889605645296264  0.8687390033063292  0.6438010105553139  1.0000
  Fe  Fe24      1.0  0.7211109475787965  0.9581191116836374  0.7560983381632462  1.0000
  S   S46       1.0  0.7834131793868693  0.9661546195572531  0.8301376321033014  1.0000
  S   S47       1.0  0.6010700442737391  0.9430682858590748  0.6360839012753999  1.0000
  S   S48       1.0  0.6537177978263597  0.9902892606753559  0.7290426245118905  1.0000
  Fe  Fe25      1.0  0.15094574548217168  0.8843183244932361  0.9936254942540792  1.0000
  S   S49       1.0  0.1197076550291164  0.8618686047273092  0.03947234631942732  1.0000
  S   S50       1.0  0.22597173250691838  0.8638396651018712  0.0032682280176203893  1.0000
  Fe  Fe26      1.0  0.05550546064724362  0.9237514246621685  0.9418640705910882  1.0000
  S   S51       1.0  0.017296269738862335  0.9045550297562697  0.9840214828538169  1.0000
  S   S52       1.0  0.015430831421370916  0.9559958189091233  0.8791569225853397  1.0000
  Fe  Fe27      1.0  0.09371941105534445  0.9102753781436702  0.046858963720869555  1.0000
  S   S53       1.0  0.11280206249371547  0.9275301486936364  0.12131959699217973  1.0000
  Fe  Fe28      1.0  0.046816498784700476  0.858049770768  0.9727504796560262  1.0000
  S   S54       1.0  0.9976229690642162  0.8147080959078911  0.953491393260236  1.0000
  S   S55       1.0  0.1303212409220458  0.9332887751586653  0.005476777419109569  1.0000
  S   S56       1.0  0.07940306788023935  0.8768073070055168  0.9260716480731074  1.0000
  Fe  Fe29      1.0  0.5826975253825258  0.9217553312063229  0.08721001221850887  1.0000
  S   S57       1.0  0.6154177142294263  0.8976215162144674  0.04400409117738382  1.0000
  S   S58       1.0  0.633052450952176  0.9402545513671731  0.16069150946251715  1.0000
  Fe  Fe30      1.0  0.4755310418030017  0.9216088170103218  0.0055460565971894304  1.0000
  S   S59       1.0  0.49993261708177894  0.897591308021657  0.9550012026927356  1.0000
  S   S60       1.0  0.39698503783755135  0.9424787299213261  0.9815868683361645  1.0000
  Fe  Fe31      1.0  0.5462258604591022  0.8671305849921532  0.01838898208975093  1.0000
  S   S61       1.0  0.5604400710627974  0.815755196385609  0.011481000302503874  1.0000
  Fe  Fe32      1.0  0.5669500615909117  0.9299938769610229  0.9849813767412574  1.0000
  S   S62       1.0  0.6062747744416264  0.9568822306774108  0.9491798814202991  1.0000
  S   S63       1.0  0.5169974141305808  0.8887212342905473  0.06693867427671357  1.0000
  S   S64       1.0  0.5390630967640915  0.956647889923937  0.030184079067742346  1.0000
  Fe  Fe33      1.0  0.10656128285685425  0.4491111654488514  0.2617771493781638  1.0000
  S   S65       1.0  0.18015686957044547  0.42314603000572837  0.2883307963536174  1.0000
  S   S66       1.0  0.05199774543222527  0.44773043802984464  0.29440983163216117  1.0000
  Fe  Fe34      1.0  0.12266703868020039  0.4821120526316269  0.18265939652214844  1.0000
  S   S67       1.0  0.19875284167483948  0.4587177308282094  0.2039763541708603  1.0000
  S   S68       1.0  0.086748354456704  0.5239244668893651  0.13413589402920606  1.0000
  Fe  Fe35      1.0  0.15899356073164517  0.41511900820169645  0.2109833547913628  1.0000
  S   S69       1.0  0.1757741850085902  0.3658243084862932  0.19437032676432858  1.0000
  Fe  Fe36      1.0  0.21333569606786376  0.468315863510693  0.2794998435490076  1.0000
  S   S70       1.0  0.2812519696565367  0.4871870925969366  0.3438311188578522  1.0000
  S   S71       1.0  0.0819862892714136  0.4378335890975292  0.1846102509062282  1.0000
  S   S72       1.0  0.1408179418325152  0.4949112244501285  0.2580479700150242  1.0000
  Fe  Fe37      1.0  0.4796054749141825  0.42402643167534737  0.8874043642851116  1.0000
  S   S73       1.0  0.5401548730108247  0.4607805560772377  0.9072896037160699  1.0000
  S   S74       1.0  0.47950098826274995  0.3869412420698563  0.9383157140027361  1.0000
  Fe  Fe38      1.0  0.4122367479624348  0.4539071125083485  0.791320938495221  1.0000
  S   S75       1.0  0.4662210993593673  0.49399595953132625  0.8041482679875195  1.0000
  S   S76       1.0  0.3454566558797987  0.44749085517499776  0.7185573813606533  1.0000
  Fe  Fe39      1.0  0.5264378139679897  0.45672928823356806  0.83083109721737  1.0000
  S   S77       1.0  0.5885103576344017  0.45372920508422204  0.8074680914174711  1.0000
  Fe  Fe40      1.0  0.4750130124416263  0.4948599731524376  0.8792964699807828  1.0000
  S   S78       1.0  0.46825138224856144  0.5386166653291771  0.9178884663192637  1.0000
  S   S79       1.0  0.4722750104678822  0.4165329617891293  0.813999781598293  1.0000
  S   S80       1.0  0.4148013814123778  0.4582036527146827  0.8634536050712656  1.0000
  Fe  Fe41      1.0  0.5918435274380963  0.3709364657807564  0.5044154764851778  1.0000
  S   S81       1.0  0.6241148860741094  0.40547617754768284  0.47177697169389343  1.0000
  S   S82       1.0  0.6064945960090751  0.3207430717214684  0.4909665528797335  1.0000
  Fe  Fe42      1.0  0.5562601294876649  0.42276883747755456  0.5504325517375208  1.0000
  S   S83       1.0  0.5868424224365401  0.46114599957012176  0.5218281750336915  1.0000
  S   S84       1.0  0.5061212734829799  0.4367387729374792  0.5848146909043802  1.0000
  Fe  Fe43      1.0  0.5528548442276461  0.4331395817884105  0.4540091229874629  1.0000
  S   S85       1.0  0.504687160446037  0.45213312272704853  0.3802563294712978  1.0000
  Fe  Fe44      1.0  0.6551393889408863  0.42963447644422514  0.5425981905414461  1.0000
  S   S86       1.0  0.7375043825198166  0.44366681480506165  0.5849395075451983  1.0000
  S   S87       1.0  0.5180661199018868  0.3965506352531398  0.48088440025314905  1.0000
  S   S88       1.0  0.6271687559946386  0.3933435710538042  0.5769334901241895  1.0000
  Fe  Fe45      1.0  0.011072769473083222  0.3326501181378236  0.5722767620183081  1.0000
  S   S89       1.0  0.9959000387717332  0.3738807916150707  0.6087671710977641  1.0000
  S   S90       1.0  0.9848681872537699  0.28605728151725507  0.587207190967711  1.0000
  Fe  Fe46      1.0  0.058933297470659785  0.3737668104965584  0.5235593390088865  1.0000
  S   S91       1.0  0.04697733516896063  0.41821517118806084  0.5560434977287121  1.0000
  S   S92       1.0  0.10702223188101101  0.371461702948463  0.48415945780971215  1.0000
  Fe  Fe47      1.0  0.07403148116369425  0.38973365537967525  0.6229969456914188  1.0000
  S   S93       1.0  0.1305595396230887  0.404868994066718  0.6967588604329188  1.0000
  Fe  Fe48      1.0  0.9698001635797018  0.3980645753007415  0.5385544342928837  1.0000
  S   S94       1.0  0.8955846812100721  0.424717749728502  0.5011552788451719  1.0000
  S   S95       1.0  0.09119561980690077  0.3466245691385815  0.5921674254663272  1.0000
  S   S96       1.0  0.9797748045561095  0.35562806996574736  0.5005059712724289  1.0000
  Fe  Fe49      1.0  0.9152392566434188  0.6237703206659139  0.8275918909528712  1.0000
  S   S97       1.0  0.9395378419165147  0.5776532348579444  0.810454567975156  1.0000
  S   S98       1.0  0.8378520250159125  0.628859607386678  0.8246143287058268  1.0000
  Fe  Fe50      1.0  0.01471415720498026  0.6552952054357691  0.847804636474165  1.0000
  S   S99       1.0  0.04783310929731862  0.6111955433636945  0.8331963859635466  1.0000
  S   S100      1.0  0.058293985998536045  0.7005896152575559  0.859189877071311  1.0000
  Fe  Fe51      1.0  0.9717306159685025  0.6057726127256505  0.7703590160247598  1.0000
  S   S101      1.0  0.9546854727944462  0.593069389963797  0.6948014332039081  1.0000
  Fe  Fe52      1.0  0.013323681349957983  0.5868174859670479  0.8752072966094888  1.0000
  S   S102      1.0  0.048846722354200005  0.5436194926075691  0.920052424861972  1.0000
  S   S103      1.0  0.9407713599500767  0.6513984386269001  0.781854033671658  1.0000
  S   S104      1.0  0.9868326494543965  0.6315394081511141  0.8954716498735917  1.0000
  Fe  Fe53      1.0  0.5670741380988438  0.6819485500638461  0.17305320752794554  1.0000
  S   S105      1.0  0.5459031340411628  0.6317371398376419  0.17803607287845913  1.0000
  S   S106      1.0  0.5098112641283642  0.7205793568164216  0.13810682650311118  1.0000
  Fe  Fe54      1.0  0.6794857442551836  0.6714219008412259  0.23588786132120934  1.0000
  S   S107      1.0  0.6675543544517489  0.6206450677650142  0.24561189632544633  1.0000
  S   S108      1.0  0.7548093262545021  0.6970202512918857  0.26575096198363124  1.0000
  Fe  Fe55      1.0  0.614572039026073  0.6198210083008548  0.16722515708094557  1.0000
  S   S109      1.0  0.6277414486681986  0.5786980473366199  0.12752669931750737  1.0000
  Fe  Fe56      1.0  0.6004571245091942  0.6367269711645912  0.2557197520921576  1.0000
  S   S110      1.0  0.5917172824773279  0.6157067167700742  0.31769283722727454  1.0000
  S   S111      1.0  0.6317965004871352  0.6697577646735754  0.15665247160591575  1.0000
  S   S112      1.0  0.6162632016194283  0.6876887210665862  0.2516830704178558  1.0000
  Fe  Fe57      1.0  0.5392320149452806  0.7136197422299051  0.5970080633987352  1.0000
  S   S113      1.0  0.5473799095280161  0.6668164378151129  0.6326199942506804  1.0000
  S   S114      1.0  0.538070525451682  0.7600541884678242  0.6317808576284574  1.0000
  Fe  Fe58      1.0  0.5152745289222599  0.6840474675716949  0.5010280332239796  1.0000
  S   S115      1.0  0.5199895158704654  0.6349113069624742  0.5280015792276375  1.0000
  S   S116      1.0  0.4966880671991202  0.698320794931833  0.42584873996182426  1.0000
  Fe  Fe59      1.0  0.4771185513080334  0.653511016572548  0.5665999883846761  1.0000
  S   S117      1.0  0.4178361644848301  0.6261759076145714  0.5779838445222244  1.0000
  Fe  Fe60      1.0  0.5896242764464257  0.6522285707697669  0.5914424779241134  1.0000
  S   S118      1.0  0.6585790022541084  0.6208747703102282  0.61499885609276  1.0000
  S   S119      1.0  0.4659011892973132  0.7012206109502149  0.5339326174947417  1.0000
  S   S120      1.0  0.5878413970420304  0.7002975359870721  0.5614748921954826  1.0000
  Fe  Fe61      1.0  0.06993769803776782  0.6991750159178917  0.5053560121389802  1.0000
  S   S121      1.0  0.055267711650329995  0.6784840016787546  0.43463275691556574  1.0000
  S   S122      1.0  0.05889927996943341  0.7498149463759959  0.5190721335696973  1.0000
  Fe  Fe62      1.0  0.09897603318327841  0.6365199122938067  0.5564266654722215  1.0000
  S   S123      1.0  0.0878308544051826  0.6102870370547142  0.4902459997816419  1.0000
  S   S124      1.0  0.12613608640164897  0.6142829172577122  0.6289257138199462  1.0000
  Fe  Fe63      1.0  0.12729738067932453  0.651168359121285  0.4765601820440077  1.0000
  S   S125      1.0  0.1830594800431125  0.6481699704286632  0.44527476596754606  1.0000
  Fe  Fe64      1.0  0.01708517841615232  0.6397014218801352  0.4542966612549191  1.0000
  S   S126      1.0  0.9430651730655107  0.6164157730402887  0.40609734685866516  1.0000
  S   S127      1.0  0.14478843256287185  0.6750731833035104  0.545942938647857  1.0000
  S   S128      1.0  0.025464596263701678  0.6627461974863659  0.5217565979478387  1.0000
  C   C1        1.0  0.248204191227358  0.6428679210488887  0.4831853670029436  1.0000
  C   C2        1.0  0.2650311319028807  0.6306255733234108  0.5289937933694383  1.0000
  C   C3        1.0  0.31720976809192414  0.625766780893561  0.5578455237957968  1.0000
  C   C4        1.0  0.3529059348394237  0.6338793483902573  0.5416053990883511  1.0000
  C   C5        1.0  0.33608194269796476  0.6468175383677088  0.49617939112559944  1.0000
  C   C6        1.0  0.28381790780538885  0.6508708449643081  0.4668210666258466  1.0000
  H   H1        1.0  0.23786085572510043  0.6243313465880336  0.5418936665714504  1.0000
  H   H2        1.0  0.33002094698575846  0.6156877044580333  0.592936482281053  1.0000
  H   H3        1.0  0.3632815338959308  0.6529160451735749  0.4832239537305837  1.0000
  H   H4        1.0  0.2709997105007824  0.660262226198278  0.4313222830529452  1.0000
  C   C7        1.0  0.8070770268838767  0.6758713549064151  0.307925258994106  1.0000
  C   C8        1.0  0.8565203191538974  0.6865898196078397  0.3211145723934305  1.0000
  C   C9        1.0  0.8987167027928739  0.6691970563939865  0.352923931948504  1.0000
  C   C10       1.0  0.8914921241242645  0.6406416322590317  0.3708187762785784  1.0000
  C   C11       1.0  0.8420752062912993  0.6300676356490041  0.35784857527497443  1.0000
  C   C12       1.0  0.800027245942138  0.6478506246377568  0.32708226241559696  1.0000
  H   H5        1.0  0.8621791623651286  0.7079070823494926  0.3057778033123347  1.0000
  H   H6        1.0  0.9367897002815109  0.6772165163811354  0.362297453399439  1.0000
  H   H7        1.0  0.8363350074873963  0.6081006385723763  0.37189546483041447  1.0000
  H   H8        1.0  0.7622301728037494  0.6398295533121712  0.31837321450820716  1.0000
  C   C13       1.0  0.5695741005655172  0.6409988720061018  0.348902743006544  1.0000
  C   C14       1.0  0.537110870566486  0.66605702162411  0.3259653836984026  1.0000
  C   C15       1.0  0.5153946653247237  0.6837672561275928  0.350084307114391  1.0000
  C   C16       1.0  0.5262395796837395  0.676628071087877  0.39726085983003345  1.0000
  C   C17       1.0  0.5597397144119414  0.6520812984553963  0.42060368942422605  1.0000
  C   C18       1.0  0.5813016907067955  0.6343264208973106  0.3964273086423467  1.0000
  H   H9        1.0  0.5276127557385685  0.6712451565106233  0.28921342210967343  1.0000
  H   H10       1.0  0.48951657753676614  0.7027365994657371  0.33183797707806173  1.0000
  H   H11       1.0  0.5689054176154286  0.6466926343359318  0.4572020166957732  1.0000
  H   H12       1.0  0.6072288661092983  0.6153877635664441  0.4146263391636486  1.0000
  C   C19       1.0  0.7883103454054459  0.6276527460202128  0.7660976922377164  1.0000
  C   C20       1.0  0.7398296013675172  0.6388028189831431  0.7566056655961525  1.0000
  C   C21       1.0  0.6999264718914516  0.6376898669841593  0.7100613374960281  1.0000
  C   C22       1.0  0.7081749362859358  0.6247079573258671  0.673115056555481  1.0000
  C   C23       1.0  0.7565028952608363  0.6132739706902481  0.6827600482481074  1.0000
  C   C24       1.0  0.79664553085075  0.6151099815886647  0.7289541225654728  1.0000
  H   H13       1.0  0.7332430125140649  0.648569443253442  0.7852182270858435  1.0000
  H   H14       1.0  0.6627346678359757  0.6464701291192533  0.7029617100928905  1.0000
  H   H15       1.0  0.7629856766327261  0.6032718382884565  0.6542675906396258  1.0000
  H   H16       1.0  0.8338954609905018  0.6065329290837759  0.7359093399148163  1.0000
  C   C25       1.0  0.0030327322625041306  0.5979648793210657  0.6771790395270295  1.0000
  C   C26       1.0  0.9901512078052419  0.5993683268053099  0.628501050241515  1.0000
  C   C27       1.0  0.02766072299550593  0.6047056840499053  0.6133968163708972  1.0000
  C   C28       1.0  0.07834991847257561  0.6081891687939603  0.6469376820750142  1.0000
  C   C29       1.0  0.09139507666234759  0.6061093470446711  0.6956011248495163  1.0000
  C   C30       1.0  0.0537831541839217  0.6011768661694614  0.7107271840275424  1.0000
  H   H17       1.0  0.9509608655707902  0.596845943671442  0.6023221218407135  1.0000
  H   H18       1.0  0.01735332998152454  0.605784894958557  0.5757468281241253  1.0000
  H   H19       1.0  0.13065438066746493  0.6085469467543547  0.7216926041009022  1.0000
  H   H20       1.0  0.06415088131146374  0.5996877134226863  0.748299058212929  1.0000
  C   C31       1.0  0.7804015700036538  0.43602725143449167  0.56109029392128  1.0000
  C   C32       1.0  0.7649124393746998  0.4376840109260009  0.5121129393757308  1.0000
  C   C33       1.0  0.8006269774386274  0.433853332478793  0.4942513021684126  1.0000
  C   C34       1.0  0.8518077457173405  0.42768405284505073  0.5250421923141998  1.0000
  C   C35       1.0  0.8671430112051731  0.4253958215365102  0.574013174136257  1.0000
  C   C36       1.0  0.8315741723629142  0.4298213478915083  0.5919899308655366  1.0000
  H   H21       1.0  0.7257310701725922  0.4428799150818289  0.4880702751345194  1.0000
  H   H22       1.0  0.788673869796508  0.435930926030445  0.45637450550175923  1.0000
  H   H23       1.0  0.90657711215282  0.4208901607840891  0.5980472637950531  1.0000
  H   H24       1.0  0.8438285429978195  0.42852426233945506  0.6299788961201941  1.0000
  C   C37       1.0  0.5143492253792308  0.5505880358179623  0.9750801774729805  1.0000
  C   C38       1.0  0.5614418564060549  0.5355659325808587  0.9982356217962394  1.0000
  C   C39       1.0  0.5957862306273791  0.5444595654120915  0.04488727786676745  1.0000
  C   C40       1.0  0.5837046514356433  0.568710235136626  0.06858862504375775  1.0000
  C   C41       1.0  0.5369180102448083  0.5840158275391413  0.04524150475717768  1.0000
  C   C42       1.0  0.5024335614282964  0.5749600712658869  0.9987058269100841  1.0000
  H   H25       1.0  0.5714396749898396  0.5171167117505179  0.9801992078106315  1.0000
  H   H26       1.0  0.6320082258197415  0.5326074434087305  0.06256774093883967  1.0000
  H   H27       1.0  0.5271962216013748  0.6027834083714102  0.06303320625926208  1.0000
  H   H28       1.0  0.46617964122765776  0.586816723530398  0.9810081121675891  1.0000
  C   C43       1.0  0.28730147936463213  0.43356026602976083  0.7139834413544812  1.0000
  C   C44       1.0  0.2775875848917231  0.43235324385045154  0.7536253066336379  1.0000
  C   C45       1.0  0.2295491081212269  0.4230523802555055  0.7481503567524337  1.0000
  C   C46       1.0  0.19129493925935334  0.4145926362818637  0.7031814850666508  1.0000
  C   C47       1.0  0.20135800381230828  0.41515165437094803  0.6637179589076763  1.0000
  C   C48       1.0  0.24918393972408856  0.4247461273120784  0.6691122716264323  1.0000
  H   H29       1.0  0.30671070264648864  0.43918143608887567  0.7883132924773164  1.0000
  H   H30       1.0  0.22191109922654112  0.4227195028543427  0.7787897360546265  1.0000
  H   H31       1.0  0.17209307504698076  0.40861718229204913  0.6288769408500644  1.0000
  H   H32       1.0  0.25644633261859323  0.42564569925300716  0.638280212898845  1.0000
  C   C49       1.0  0.5665365330549516  0.4501944990637448  0.745529867684815  1.0000
  C   C50       1.0  0.5164528759722194  0.4579660643744283  0.7142555570123983  1.0000
  C   C51       1.0  0.49908109438139536  0.45460613056284166  0.6649732699349278  1.0000
  C   C52       1.0  0.5311739234159178  0.44272229319643513  0.646636466279291  1.0000
  C   C53       1.0  0.581607632094984  0.4355614828887489  0.6777040499889286  1.0000
  C   C54       1.0  0.5993246262914695  0.43949080451455147  0.7271194666714659  1.0000
  H   H33       1.0  0.4910946860264879  0.4666235571137373  0.7280636169257177  1.0000
  H   H34       1.0  0.46047481497392345  0.46108830361859376  0.6409769089887594  1.0000
  H   H35       1.0  0.6067287589894158  0.42657120099702744  0.6638113849885858  1.0000
  H   H36       1.0  0.6381990468977164  0.4335739467377383  0.7512261340568935  1.0000
  C   C55       1.0  0.062150677804483384  0.5391301812370096  0.9805157462822254  1.0000
  C   C56       1.0  0.0788824290123814  0.5098194276285883  0.0024583128355351036  1.0000
  C   C57       1.0  0.0874301486462198  0.5048376086230844  0.049785533510687964  1.0000
  C   C58       1.0  0.07894954875228326  0.5291539474567694  0.07540705741579255  1.0000
  C   C59       1.0  0.06232996539222668  0.5584839765623093  0.05346380067642529  1.0000
  C   C60       1.0  0.05438589868523236  0.5635655204778433  0.006381196676886081  1.0000
  H   H37       1.0  0.08505865477423923  0.49079893395617896  0.9826887019692314  1.0000
  H   H38       1.0  0.10015722782639784  0.4821581599336924  0.06628469271888554  1.0000
  H   H39       1.0  0.05602599705668343  0.5774545921185786  0.07322696520084619  1.0000
  H   H40       1.0  0.04243590048462731  0.5863862537289692  0.990225973958582  1.0000
  C   C61       1.0  0.34213460986102495  0.4751512667550581  0.35292554037744817  1.0000
  C   C62       1.0  0.38079857253013905  0.47237880224126716  0.39961647758625385  1.0000
  C   C63       1.0  0.43034847470389526  0.4642958005355656  0.40810917637008653  1.0000
  C   C64       1.0  0.4419255213848317  0.46007926901621443  0.3699021114529007  1.0000
  C   C65       1.0  0.40343992442882143  0.4631159840002665  0.3231280508372908  1.0000
  C   C66       1.0  0.35340562152477933  0.4701337393259139  0.3146166897528036  1.0000
  H   H41       1.0  0.3723428937179588  0.4763514416947195  0.4293828723487908  1.0000
  H   H42       1.0  0.4598011314378433  0.4621445045245209  0.4443394847469629  1.0000
  H   H43       1.0  0.41219485260290195  0.46013016577432486  0.2933917607140365  1.0000
  H   H44       1.0  0.32381533513734434  0.47258625151082095  0.2784983746121433  1.0000
  C   C67       1.0  0.06953243317960664  0.4287993420504551  0.34943695487812954  1.0000
  C   C68       1.0  0.11598717089371124  0.4131334326587815  0.3726443658824829  1.0000
  C   C69       1.0  0.12708338372018502  0.3958722625350437  0.4141490840772713  1.0000
  C   C70       1.0  0.09226261945474956  0.3945681784016861  0.4332460278853172  1.0000
  C   C71       1.0  0.04631191170227195  0.4108810257434735  0.410778473397542  1.0000
  C   C72       1.0  0.034916958069589644  0.4278386510926406  0.3688314107829503  1.0000
  H   H45       1.0  0.14319302520598187  0.4139107014699087  0.35846114950096986  1.0000
  H   H46       1.0  0.1627761382184727  0.38338587874865476  0.43155335111693194  1.0000
  H   H47       1.0  0.019228506498495862  0.4099730637149148  0.42526401691769594  1.0000
  H   H48       1.0  0.9988527012055647  0.4398881843132858  0.3510548357222196  1.0000
  C   C73       1.0  0.5422824937554621  0.788766232426743  0.04316685627280844  1.0000
  C   C74       1.0  0.5100371459675054  0.7974982471694013  0.06301714141348684  1.0000
  C   C75       1.0  0.4988891467664676  0.7760064495454101  0.09078734285681433  1.0000
  C   C76       1.0  0.5204580725792354  0.7458824455465215  0.09935489794865951  1.0000
  C   C77       1.0  0.5519066307823016  0.7369878694588822  0.0787506207406985  1.0000
  C   C78       1.0  0.5623398030791323  0.7582725583473022  0.0503104387990267  1.0000
  H   H49       1.0  0.4936511299349168  0.8207587947548028  0.05697044673111397  1.0000
  H   H50       1.0  0.4741797165600069  0.7829296836203653  0.10632594249364319  1.0000
  H   H51       1.0  0.5677253013084235  0.7136126634810472  0.08421129707269771  1.0000
  H   H52       1.0  0.5868165656980839  0.7512876309991499  0.03454965015616196  1.0000
  C   C79       1.0  0.273145454956934  0.8864182619247136  0.9977800907482512  1.0000
  C   C80       1.0  0.32006574556029743  0.8723354053276319  0.008011262609050052  1.0000
  C   C81       1.0  0.35847898930065847  0.8893774746429152  0.003609760510743687  1.0000
  C   C82       1.0  0.35005260103272695  0.9206065318665967  0.9886005755226109  1.0000
  C   C83       1.0  0.30306288921085955  0.9347161974379189  0.9782227326886613  1.0000
  C   C84       1.0  0.26472624636504183  0.9177156722611436  0.9829586091021122  1.0000
  H   H53       1.0  0.3268284525748367  0.8481339218755239  0.019443156587435784  1.0000
  H   H54       1.0  0.39445326934202446  0.878271810681892  0.011542621743718229  1.0000
  H   H55       1.0  0.296362198058166  0.9588827201265478  0.9667026111953416  1.0000
  H   H56       1.0  0.22869356049732198  0.9287209380053955  0.974997327695348  1.0000
  C   C85       1.0  0.013176352626218293  0.7834736739134645  0.9254211658721151  1.0000
  C   C86       1.0  0.9906230511345917  0.7540565882799914  0.9219705231280954  1.0000
  C   C87       1.0  0.0035184443106477587  0.728522907978439  0.9009758142425908  1.0000
  C   C88       1.0  0.03886861232220264  0.7323894678943837  0.8831089552819749  1.0000
  C   C89       1.0  0.06027164977794145  0.7620182805759256  0.8852768032052111  1.0000
  C   C90       1.0  0.04765696658698288  0.7874720586908445  0.9065558023066298  1.0000
  H   H57       1.0  0.9636975813963724  0.7508273042576991  0.9362712210093269  1.0000
  H   H58       1.0  0.9865609482449463  0.7057894024498939  0.8991896615720367  1.0000
  H   H59       1.0  0.08692456853492392  0.7652404668212096  0.8706908310590842  1.0000
  H   H60       1.0  0.06470957149989987  0.810101468987063  0.9083942394496868  1.0000
  C   C91       1.0  0.6469232992267692  0.8385168347703009  0.6399423885304  1.0000
  C   C92       1.0  0.6579982758088263  0.8073851802870461  0.6330855121034042  1.0000
  C   C93       1.0  0.6247046247334712  0.7830169601475785  0.6301944878782476  1.0000
  C   C94       1.0  0.5801409705077982  0.7898100368456489  0.633886672807944  1.0000
  C   C95       1.0  0.5687411410315345  0.8209776217685415  0.6399087499513656  1.0000
  C   C96       1.0  0.602151257647547  0.8452660114920271  0.643233396151789  1.0000
  H   H61       1.0  0.6926990550777701  0.8020803074358773  0.6306405459526662  1.0000
  H   H62       1.0  0.6340130540184287  0.7589701037235208  0.6260753694796526  1.0000
  H   H63       1.0  0.5338293135538524  0.8263674735141701  0.6418339257609248  1.0000
  H   H64       1.0  0.5930727489299862  0.8692643953513776  0.6479509478635824  1.0000
  C   C97       1.0  0.8475400860471132  0.9648583124087836  0.8421648841347321  1.0000
  C   C98       1.0  0.8845145245245827  0.9663559721474856  0.8896619098427597  1.0000
  C   C99       1.0  0.9361334081274055  0.9641683136494483  0.9010369968019153  1.0000
  C   C100      1.0  0.9510622325453058  0.9609142656314184  0.8648650480135969  1.0000
  C   C101      1.0  0.9141851218799346  0.9603931436001968  0.8171240429419538  1.0000
  C   C102      1.0  0.8623377814173335  0.961929768353067  0.8057740972773366  1.0000
  H   H65       1.0  0.8731934645669525  0.9687837909718371  0.9178963614313663  1.0000
  H   H66       1.0  0.9643927366067191  0.9650318125126234  0.9378866018050437  1.0000
  H   H67       1.0  0.9256993864399985  0.9578345560312728  0.7890464797963556  1.0000
  H   H68       1.0  0.8339391088134033  0.9606207079705672  0.7690450944093611  1.0000
  C   C103      1.0  0.5612916312299668  0.9421052821275443  0.7908578014471271  1.0000
  C   C104      1.0  0.6093591510516398  0.9534651815197958  0.8217805326508694  1.0000
  C   C105      1.0  0.6227919026958244  0.9575798007996551  0.8703249688242076  1.0000
  C   C106      1.0  0.5886817184140138  0.9498098066937366  0.8884992934748988  1.0000
  C   C107      1.0  0.5408849122909153  0.937853770481559  0.857812916520254  1.0000
  C   C108      1.0  0.5270617048731212  0.9342738950593138  0.8089575275116249  1.0000
  H   H69       1.0  0.6361930911400401  0.9592909553430796  0.8082973550289009  1.0000
  H   H70       1.0  0.6599316383369543  0.9666635248631058  0.8938773087162653  1.0000
  H   H71       1.0  0.5142823444791428  0.9319443557542347  0.8715335312188769  1.0000
  H   H72       1.0  0.4898535617194633  0.9254101963432793  0.7851652668053477  1.0000
  C   C109      1.0  0.07590480725987278  0.8236278515760486  0.42239896438355823  1.0000
  C   C110      1.0  0.05808804466101558  0.8320440937721992  0.4552840174180358  1.0000
  C   C111      1.0  0.05406530315213384  0.8092935739770676  0.4855642118608352  1.0000
  C   C112      1.0  0.06673717951590967  0.7779571586590173  0.4823313531950919  1.0000
  C   C113      1.0  0.08405886032046175  0.7694310919950628  0.4490907838826518  1.0000
  C   C114      1.0  0.0892948521200781  0.792335951982729  0.4196108149623386  1.0000
  H   H73       1.0  0.048310398862405624  0.8562163818589688  0.4580090644761802  1.0000
  H   H74       1.0  0.040689704692844574  0.8159900512248526  0.5112873078023273  1.0000
  H   H75       1.0  0.09313207244610439  0.7452209439598374  0.4459648934763169  1.0000
  H   H76       1.0  0.10255640096619865  0.7857638571684368  0.39376867190645226  1.0000
  C   C115      1.0  0.7798545060078557  0.8864095868707617  0.2478877950496742  1.0000
  C   C116      1.0  0.7732663971186019  0.9168005452045226  0.2610610511654057  1.0000
  C   C117      1.0  0.7275346417472848  0.9328803295174929  0.23462603715095065  1.0000
  C   C118      1.0  0.6886983966686157  0.9188857358816213  0.19443110596335264  1.0000
  C   C119      1.0  0.695618888296786  0.888648608280409  0.18077391234908483  1.0000
  C   C120      1.0  0.7410777945543906  0.8723659740837462  0.2076957448053171  1.0000
  H   H77       1.0  0.8030500116684667  0.9277432317181842  0.292122476808815  1.0000
  H   H78       1.0  0.7223831146010312  0.9563395509638996  0.24513802333022627  1.0000
  H   H79       1.0  0.6659026737097816  0.8779257775547633  0.14948791215148943  1.0000
  H   H80       1.0  0.7466593230463797  0.8491142956129172  0.19694299145824798  1.0000
  C   C121      1.0  0.998987987486828  0.9431728895611506  0.1817380965828608  1.0000
  C   C122      1.0  0.9825810498830215  0.9444171682975034  0.13229464324492882  1.0000
  C   C123      1.0  0.016438947360944756  0.9378782537496476  0.11294689738331723  1.0000
  C   C124      1.0  0.06723405964278034  0.9308397342596881  0.14312478483799  1.0000
  C   C125      1.0  0.08347688325516195  0.9294920793735134  0.19248242502909144  1.0000
  C   C126      1.0  0.04931166548293916  0.9350986697406782  0.2117042578356612  1.0000
  H   H81       1.0  0.943777299538202  0.9508372621352741  0.10890941142896456  1.0000
  H   H82       1.0  0.003732449578716988  0.9393322343521173  0.07491757731606528  1.0000
  H   H83       1.0  0.12281033923453144  0.9242743642011324  0.2160432214992626  1.0000
  H   H84       1.0  0.0624005678874795  0.9342625540411044  0.24985754706489674  1.0000
  C   C127      1.0  0.043684263937324094  0.2990176637597724  0.11106273946881523  1.0000
  C   C128      1.0  0.03467058505899301  0.33128076113572835  0.11240560807488342  1.0000
  C   C129      1.0  0.07502831885597389  0.3520332762599559  0.1370907073886748  1.0000
  C   C130      1.0  0.12468141782720343  0.34064014249393937  0.1608142373191741  1.0000
  C   C131      1.0  0.1338580434590908  0.3084417850363179  0.1588555184726911  1.0000
  C   C132      1.0  0.09347383354373706  0.28763940946072364  0.13414853996986892  1.0000
  H   H85       1.0  0.9962956470135544  0.34023871216624507  0.0941411345424753  1.0000
  H   H86       1.0  0.06773618407857084  0.37686197232553054  0.13731534439694434  1.0000
  H   H87       1.0  0.17226580918754708  0.29959651021758654  0.17657772063857205  1.0000
  H   H88       1.0  0.10073190325211545  0.2628300401745381  0.13322179915309038  1.0000
  C   C133      1.0  0.749201524036607  0.14082814211314407  0.044071573258529284  1.0000
  C   C134      1.0  0.8016140801838818  0.1395506629115603  0.07398810431841762  1.0000
  C   C135      1.0  0.8366149819547111  0.14236225822061674  0.05506656255674747  1.0000
  C   C136      1.0  0.8192456936867301  0.14545700499403258  0.005897586718891734  1.0000
  C   C137      1.0  0.7668414022268347  0.14606480217754295  0.9759624199261471  1.0000
  C   C138      1.0  0.731946842426647  0.14430563825021037  0.9950042801885594  1.0000
  H   H89       1.0  0.8152351915179715  0.13667002470364129  0.11197912849774627  1.0000
  H   H90       1.0  0.8769537286741889  0.1415604967812081  0.07838039857192225  1.0000
  H   H91       1.0  0.7532368901026757  0.14818030134580193  0.9378607989472626  1.0000
  H   H92       1.0  0.6917619631917212  0.14489237551224401  0.9715305828181037  1.0000
  C   C139      1.0  0.5585362992012921  0.2941849792312932  0.9385322253728008  1.0000
  C   C140      1.0  0.5294788993555406  0.2969409510074035  0.9634029554314341  1.0000
  C   C141      1.0  0.5053989629023005  0.3255327297281652  0.9631947315620968  1.0000
  C   C142      1.0  0.5098904553028358  0.3513521326939586  0.9378040011142111  1.0000
  C   C143      1.0  0.5388596428095138  0.34856138468587605  0.9128385618003386  1.0000
  C   C144      1.0  0.563315013776622  0.32006603038139236  0.9134069172053929  1.0000
  H   H93       1.0  0.5256946990549861  0.27710018231186684  0.9829390657969461  1.0000
  H   H94       1.0  0.4830357214101601  0.3275609896804861  0.9825558358148094  1.0000
  H   H95       1.0  0.5428010317201609  0.3684135898717806  0.8934443002033637  1.0000
  H   H96       1.0  0.5858310170901783  0.318050886447728  0.8941910277041283  1.0000
  C   C145      1.0  0.4732369498508335  0.2542822084152584  0.4108589138452347  1.0000
  C   C146      1.0  0.5218444092991873  0.24687089012675587  0.41648701026218876  1.0000
  C   C147      1.0  0.5625335051305262  0.26724272196927845  0.4417720369449943  1.0000
  C   C148      1.0  0.5548341460492361  0.2952347092388102  0.46127042445066235  1.0000
  C   C149      1.0  0.5062561431086677  0.3026610421881906  0.45584238210527567  1.0000
  C   C150      1.0  0.4655337372954763  0.2821827090945926  0.43071238829336833  1.0000
  H   H97       1.0  0.5281065626376731  0.2255070235499644  0.4011433916782706  1.0000
  H   H98       1.0  0.6000280087199326  0.2613411843554554  0.44590233033998267  1.0000
  H   H99       1.0  0.5002348907926878  0.3239353393304891  0.47152811310062553  1.0000
  H   H100      1.0  0.4280482857517146  0.28788372540456253  0.42677328707363693  1.0000
  C   C151      1.0  0.5206637123693824  0.058985144533148334  0.47484534838389775  1.0000
  C   C152      1.0  0.561292018329899  0.0793387043271081  0.4995203557266546  1.0000
  C   C153      1.0  0.6016184294342352  0.06995644982096673  0.543110595828762  1.0000
  C   C154      1.0  0.601365359749431  0.04039315266348642  0.5627863702523517  1.0000
  C   C155      1.0  0.5605592702435356  0.020189542703757057  0.5382705903334543  1.0000
  C   C156      1.0  0.5205761740335229  0.029419071738890495  0.4944609969660301  1.0000
  H   H101      1.0  0.5614903055912954  0.10235561541800267  0.4852745595081112  1.0000
  H   H102      1.0  0.6328699022529224  0.08582707842239462  0.5619836142418748  1.0000
  H   H103      1.0  0.5598397843041187  0.9973968865632546  0.5529617820790582  1.0000
  H   H104      1.0  0.4892981517636193  0.013527588484432584  0.475674531370889  1.0000
  C   C157      1.0  0.2606991648696226  0.12928089476297858  0.19455330733268583  1.0000
  C   C158      1.0  0.2202051920978196  0.1344559690016757  0.14950568965022415  1.0000
  C   C159      1.0  0.17020242996958668  0.13556450516844257  0.1436956301895638  1.0000
  C   C160      1.0  0.1603599579123262  0.131145848681425  0.18283694500243666  1.0000
  C   C161      1.0  0.20066575806654977  0.12483072112698403  0.22765278361260663  1.0000
  C   C162      1.0  0.2508521540399286  0.12397604410692727  0.2335566094759936  1.0000
  H   H105      1.0  0.22748274171849509  0.13837749702508714  0.11909602383212517  1.0000
  H   H106      1.0  0.13929176404556654  0.13990717296684027  0.10880023015501275  1.0000
  H   H107      1.0  0.1931591222482297  0.12110751872341534  0.2579664442221337  1.0000
  H   H108      1.0  0.2818874942542884  0.11943942838046254  0.2682944626327967  1.0000
  C   C163      1.0  0.5507054527360852  0.15979039983438617  0.23760308746456676  1.0000
  C   C164      1.0  0.5718485911717811  0.14782829781493273  0.2086923332011647  1.0000
  C   C165      1.0  0.558521363935483  0.16080882054782017  0.1634287291947577  1.0000
  C   C166      1.0  0.5244359169718278  0.1860117076009008  0.14729527018546862  1.0000
  C   C167      1.0  0.5046928731661416  0.19851588311726667  0.1768788595412797  1.0000
  C   C168      1.0  0.5176234581144551  0.18542377160873535  0.22174121199524705  1.0000
  H   H109      1.0  0.5978150592157268  0.12814755520327217  0.22089667921527903  1.0000
  H   H110      1.0  0.5741179867217665  0.15111383601176936  0.1408839345598688  1.0000
  H   H111      1.0  0.4790166462024133  0.21834931934062463  0.16489440898832208  1.0000
  H   H112      1.0  0.5025102137866758  0.19549055443794994  0.2442960685335741  1.0000
  C   C169      1.0  0.09677774234954399  0.20365086621155698  0.6328046628714574  1.0000
  C   C170      1.0  0.05345270404187219  0.20272704444488154  0.6402356985476524  1.0000
  C   C171      1.0  0.01912717858520674  0.22805087466854546  0.6257640114511852  1.0000
  C   C172      1.0  0.028233587612217063  0.25451521141701405  0.6043305592127848  1.0000
  C   C173      1.0  0.07191169274672848  0.2555889965961084  0.5974678111798418  1.0000
  C   C174      1.0  0.10596291678324513  0.23014722483079336  0.6114840419980758  1.0000
  H   H113      1.0  0.04610395998307526  0.1823927218205684  0.6566946085519898  1.0000
  H   H114      1.0  0.9854204743700379  0.2271162992135624  0.6312205699947756  1.0000
  H   H115      1.0  0.07890828686419786  0.27571089440838187  0.5804352955225026  1.0000
  H   H116      1.0  0.13935105171655623  0.23090899915420215  0.6055052272488413  1.0000
  C   C175      1.0  0.069049469752523  0.009964964458746062  0.5786631141506364  1.0000
  C   C176      1.0  0.0809170177334159  0.9849551329327447  0.5559842831352735  1.0000
  C   C177      1.0  0.05033410457374181  0.9783191932905272  0.5073680098550072  1.0000
  C   C178      1.0  0.007525861192274853  0.996723610230352  0.48090922849220213  1.0000
  C   C179      1.0  0.9954948410824406  0.021630368383012796  0.5036690098899682  1.0000
  C   C180      1.0  0.02582376879975407  0.028091691099375673  0.552364558132582  1.0000
  H   H117      1.0  0.11416861031600184  0.9707081359119084  0.5760488262925796  1.0000
  H   H118      1.0  0.06003862731435974  0.9590965362271145  0.4903126319707946  1.0000
  H   H119      1.0  0.9621713728815474  0.035804273812264545  0.4835475179790222  1.0000
  H   H120      1.0  0.01546118410994213  0.046889476606396495  0.5695798760192211  1.0000
  C   C181      1.0  0.3121599181136164  0.09790441011668588  0.8606788839586945  1.0000
  C   C182      1.0  0.34893151428338226  0.10331548220290769  0.9076398343289412  1.0000
  C   C183      1.0  0.39833413710340243  0.11242982191763597  0.9171219314531429  1.0000
  C   C184      1.0  0.4114980640818186  0.11525294199960595  0.8797023867071004  1.0000
  C   C185      1.0  0.374593742918221  0.11012131134586817  0.8327248383350434  1.0000
  C   C186      1.0  0.32479781058013385  0.10192432792278862  0.8231407567469221  1.0000
  H   H121      1.0  0.33931080021557625  0.1001188212601187  0.9367633888132536  1.0000
  H   H122      1.0  0.42675741312715254  0.11609550335066923  0.9534435223900868  1.0000
  H   H123      1.0  0.38473779435696415  0.11212720358740158  0.8037246341182384  1.0000
  H   H124      1.0  0.2967435980647129  0.09763564725175604  0.7868697542155315  1.0000
  C   C187      1.0  0.03423972669257511  0.12366680147082344  0.8265845604440287  1.0000
  C   C188      1.0  0.08272624737320439  0.13649392716627734  0.8512118211074954  1.0000
  C   C189      1.0  0.09742837273524316  0.15114744459078316  0.8954852660529532  1.0000
  C   C190      1.0  0.06392378957857137  0.1531809859343521  0.9159218090201876  1.0000
  C   C191      1.0  0.015348545588654172  0.140173658580635  0.8917243672923403  1.0000
  C   C192      1.0  0.0005542903576840619  0.12547744857042006  0.8470924937448749  1.0000
  H   H125      1.0  0.10935036801443336  0.13500957570962221  0.8365485056333967  1.0000
  H   H126      1.0  0.1350439737920234  0.16109838040759322  0.9139851434931109  1.0000
  H   H127      1.0  0.9892241022797477  0.1416602794931506  0.9072591640874148  1.0000
  H   H128      1.0  0.9629898394525138  0.11555034022506894  0.8284687665125795  1.0000
  N   N1        1.0  0.1541580670591857  0.5139018046675738  0.6583508898058754  1.0000
  C   C193      1.0  0.20778718977389907  0.5044656668748365  0.6752056008609134  1.0000
  C   C194      1.0  0.12282942515830542  0.48572776410208984  0.6526135812266175  1.0000
  C   C195      1.0  0.13610763161260955  0.5301791071964317  0.6121134123457649  1.0000
  C   C196      1.0  0.14987477746941974  0.5352832137985251  0.6935627905691331  1.0000
  H   H129      1.0  0.23275228132310966  0.5251786749294576  0.6808178939952068  1.0000
  H   H130      1.0  0.2126076367089122  0.48866312548278645  0.6491946744343309  1.0000
  H   H131      1.0  0.22235655628750145  0.4915969600289271  0.709620457318423  1.0000
  H   H132      1.0  0.08188478879478472  0.4917862319407455  0.638531585047154  1.0000
  H   H133      1.0  0.1265091675409895  0.46846860520033046  0.6276003025832401  1.0000
  H   H134      1.0  0.13438303011204272  0.47347775272214265  0.6871981122925489  1.0000
  H   H135      1.0  0.09636029228780026  0.5387367496007875  0.5992630824329339  1.0000
  H   H136      1.0  0.13724090415409634  0.5144560732200611  0.584213140396526  1.0000
  H   H137      1.0  0.15978189610138308  0.5511443002466626  0.6149692277488489  1.0000
  H   H138      1.0  0.10966274077434056  0.5421024734015039  0.6825559155998725  1.0000
  H   H139      1.0  0.17162283222205574  0.5573383306999214  0.697515742778759  1.0000
  H   H140      1.0  0.1645372211340165  0.5241559627362313  0.7292941588498334  1.0000
  N   N2        1.0  0.2379545297933876  0.7414686709974688  0.5152924394896466  1.0000
  C   C197      1.0  0.273547822422084  0.7637234216115807  0.5102365062242663  1.0000
  C   C198      1.0  0.2027500118861958  0.7291412130912048  0.467850678332388  1.0000
  C   C199      1.0  0.20865313867433333  0.7578395880283705  0.5366085065738487  1.0000
  C   C200      1.0  0.2669021094088315  0.7151925880769763  0.5463185383146001  1.0000
  H   H141      1.0  0.30086121433507373  0.7733912064066919  0.5454057023733967  1.0000
  H   H142      1.0  0.25296370571309246  0.7839080666798831  0.48708450966141126  1.0000
  H   H143      1.0  0.2960284082870652  0.752122936806319  0.4939893279233273  1.0000
  H   H144      1.0  0.1744472414938012  0.7129084146740613  0.4701532359219815  1.0000
  H   H145      1.0  0.18131696335499337  0.7483523996833983  0.4429879001579372  1.0000
  H   H146      1.0  0.22327514040104823  0.7156440190387795  0.4513327101459109  1.0000
  H   H147      1.0  0.2337618554466514  0.7667798491600584  0.5729612803483723  1.0000
  H   H148      1.0  0.18020147595958758  0.7420427875879557  0.5396122932914311  1.0000
  H   H149      1.0  0.18741586013768274  0.7783122705929035  0.5146825323682391  1.0000
  H   H150      1.0  0.24122309222500538  0.6973126969939929  0.5495062412633355  1.0000
  H   H151      1.0  0.29287724159061534  0.7233957708163116  0.5828861893016258  1.0000
  H   H152      1.0  0.2905444723414621  0.7028990915156684  0.5319326222349227  1.0000
  N   N3        1.0  0.8011404552021407  0.9470078647933784  0.13749913992087087  1.0000
  C   C201      1.0  0.8247831554350624  0.9162282221786407  0.15640674940676874  1.0000
  C   C202      1.0  0.8204202178014889  0.959045357335539  0.10463230060467195  1.0000
  C   C203      1.0  0.8140756872621145  0.9693083664423502  0.17745424605223564  1.0000
  C   C204      1.0  0.7454003048202359  0.9434579516660068  0.111575047579287  1.0000
  H   H153      1.0  0.8115642203814515  0.9066370337734989  0.18175382391902495  1.0000
  H   H154      1.0  0.8668791783560057  0.9180693960951917  0.17612545034118066  1.0000
  H   H155      1.0  0.8157638802527819  0.8986769339585561  0.127438383982119  1.0000
  H   H156      1.0  0.8036561329934205  0.9823387391100992  0.08995955977670415  1.0000
  H   H157      1.0  0.8623961515270016  0.9619595353221274  0.12309082137401416  1.0000
  H   H158      1.0  0.8114936765349868  0.9427325201462298  0.07415101792469503  1.0000
  H   H159      1.0  0.8008756572914445  0.9606729082179211  0.2034226907109655  1.0000
  H   H160      1.0  0.7964133220058812  0.9927113533111581  0.16480049555724688  1.0000
  H   H161      1.0  0.8558952465568578  0.9728219732630905  0.19734305696384002  1.0000
  H   H162      1.0  0.7341227201721913  0.9266246734517578  0.08133915908357499  1.0000
  H   H163      1.0  0.7262081269932705  0.9662129608587472  0.09690864507517037  1.0000
  H   H164      1.0  0.7295895758620369  0.9346032277856553  0.13534554112874725  1.0000
  N   N4        1.0  0.8983684321676159  0.5443639762748316  0.9244968626909766  1.0000
  C   C205      1.0  0.8598473297243018  0.5487115740591673  0.9420182685622931  1.0000
  C   C206      1.0  0.8729847093834597  0.5365259929046666  0.8731713771404569  1.0000
  C   C207      1.0  0.9335093279751762  0.518708068553421  0.9511112269465601  1.0000
  C   C208      1.0  0.9272876831892536  0.573719731713843  0.9315640054061568  1.0000
  H   H165      1.0  0.8778858933835468  0.5546813581042662  0.9806619423854845  1.0000
  H   H166      1.0  0.8370199314352202  0.5270530963622152  0.9370455523950123  1.0000
  H   H167      1.0  0.8330655617548447  0.568094529829943  0.922658403272948  1.0000
  H   H168      1.0  0.9012583245919337  0.5322973755820661  0.8592909916159563  1.0000
  H   H169      1.0  0.8495295255302251  0.514971730370277  0.8661615354044931  1.0000
  H   H170      1.0  0.8477009400417337  0.5560148548203767  0.8518370526629124  1.0000
  H   H171      1.0  0.9622579632047605  0.5144022964700646  0.937774208944263  1.0000
  H   H172      1.0  0.9130099370735224  0.4962774126339964  0.9477190504314544  1.0000
  H   H173      1.0  0.9549620039935173  0.5243832284188755  0.9897782662817266  1.0000
  H   H174      1.0  0.9568150787004008  0.5710425387052797  0.9189397583688255  1.0000
  H   H175      1.0  0.9469321164465171  0.5805480875099701  0.9698271613677111  1.0000
  H   H176      1.0  0.9022111033263476  0.5936124740923819  0.911619673704349  1.0000
  N   N5        1.0  0.5440769345091006  0.7880687046469274  0.47991540062258947  1.0000
  C   C209      1.0  0.5594074156703555  0.8198860005692868  0.5001751367882277  1.0000
  C   C210      1.0  0.5171675348877508  0.7898691711496333  0.4273693410869754  1.0000
  C   C211      1.0  0.5100058871638249  0.7743364766842386  0.4978552575686751  1.0000
  C   C212      1.0  0.589655782858044  0.7680561321461985  0.49425852909846285  1.0000
  H   H177      1.0  0.5860610812594012  0.8307915636503372  0.4883244836263231  1.0000
  H   H178      1.0  0.5789044855199057  0.8193228705060929  0.5398016070330911  1.0000
  H   H179      1.0  0.5260401489519403  0.8357625407980283  0.4896051766893487  1.0000
  H   H180      1.0  0.505446905928104  0.7660997106268841  0.41115074229251203  1.0000
  H   H181      1.0  0.48218592131572635  0.8044499675968318  0.41517510798423446  1.0000
  H   H182      1.0  0.5416415147858717  0.8001867498525191  0.41251278812591347  1.0000
  H   H183      1.0  0.4965021013939295  0.7507243314446562  0.48220478062354727  1.0000
  H   H184      1.0  0.4759328536863888  0.7892519812322902  0.48909222363738547  1.0000
  H   H185      1.0  0.5295686110748956  0.7714740228042773  0.5371721118215771  1.0000
  H   H186      1.0  0.5793313930319705  0.7438120430668098  0.47965855705248167  1.0000
  H   H187      1.0  0.6109228163243938  0.7661375238496798  0.5337136960739963  1.0000
  H   H188      1.0  0.6161719009687411  0.7775998827275713  0.48118083160608427  1.0000
  N   N6        1.0  0.8413583321766893  0.5301695931213768  0.6162170202430666  1.0000
  C   C213      1.0  0.8236215119018723  0.5205621525162264  0.5659800497919375  1.0000
  C   C214      1.0  0.812705832088648  0.5129436383032836  0.6370389805279957  1.0000
  C   C215      1.0  0.8331674755702493  0.5642647292068478  0.6185951277570015  1.0000
  C   C216      1.0  0.8960182661470972  0.5228742355358152  0.6433509635803538  1.0000
  H   H189      1.0  0.843911013669187  0.5335289817817438  0.5489824299775806  1.0000
  H   H190      1.0  0.7822223145091398  0.5249279964710707  0.5445927084868901  1.0000
  H   H191      1.0  0.8302351500398889  0.4950913208125577  0.5629847675922789  1.0000
  H   H192      1.0  0.7710360319826187  0.5166890611633373  0.6162391240203139  1.0000
  H   H193      1.0  0.8195464148524753  0.48723321164024813  0.6375477269357293  1.0000
  H   H194      1.0  0.8238529647466512  0.5204730809167027  0.6743864552376528  1.0000
  H   H195      1.0  0.8461971909544347  0.572301412800262  0.6560742499174139  1.0000
  H   H196      1.0  0.7923369843054966  0.5706470045064529  0.5983305524223578  1.0000
  H   H197      1.0  0.8548548705736891  0.5780833583067356  0.6038576394135492  1.0000
  H   H198      1.0  0.9036586866591451  0.4973937485171439  0.6416938588235521  1.0000
  H   H199      1.0  0.9106183296314473  0.5295090693848049  0.681576562890078  1.0000
  H   H200      1.0  0.9189687202077714  0.5360181355515222  0.6292614827580617  1.0000
  N   N7        1.0  0.3849861060525575  0.13274736944652793  0.10201672877499274  1.0000
  C   C217      1.0  0.4058430835395454  0.13132005370112812  0.06708418433004637  1.0000
  C   C218      1.0  0.3389265506465943  0.11311669351855434  0.08526085952461086  1.0000
  C   C219      1.0  0.3718116654074549  0.16557641500577103  0.10722723269909691  1.0000
  C   C220      1.0  0.42334827970345934  0.12105110650547107  0.14860319747158743  1.0000
  H   H201      1.0  0.44083894867186735  0.145778587346593  0.07888990798592872  1.0000
  H   H202      1.0  0.37822782517439  0.14040711208127074  0.03164705001749191  1.0000
  H   H203      1.0  0.41609261209731646  0.10689799877322873  0.06207011419516912  1.0000
  H   H204      1.0  0.32227056718607505  0.11381284888467644  0.11087711003033192  1.0000
  H   H205      1.0  0.30910743969006615  0.12131670512297994  0.05021396547479989  1.0000
  H   H206      1.0  0.3474548570018503  0.08813287073578527  0.0811910379758208  1.0000
  H   H207      1.0  0.35723075759628964  0.16760235864564227  0.13431628336196552  1.0000
  H   H208      1.0  0.34215281152778665  0.17497618655980132  0.0730007754861995  1.0000
  H   H209      1.0  0.4054294014153671  0.1811683540732384  0.11856507819600473  1.0000
  H   H210      1.0  0.409301465186833  0.12239647738527863  0.17613143082436516  1.0000
  H   H211      1.0  0.45880730496421374  0.13505869286897892  0.16190067851615658  1.0000
  H   H212      1.0  0.43376503193896887  0.0962025124846029  0.14631592227960571  1.0000
  N   N8        1.0  0.03618297949874005  0.6992468895478388  0.7175194655866682  1.0000
  C   C221      1.0  0.9991325802641876  0.6793457119512059  0.6791110368418958  1.0000
  C   C222      1.0  0.0638977598222552  0.7187781851715485  0.6981538150242315  1.0000
  C   C223      1.0  0.07259775373201993  0.6791162826662437  0.7559446912649128  1.0000
  C   C224      1.0  0.009167138351865445  0.7196676398528487  0.7369171661868128  1.0000
  H   H213      1.0  0.978368817432807  0.6636497334647676  0.6926654525814521  1.0000
  H   H214      1.0  0.018224553401280597  0.6641470119343685  0.6630367762966897  1.0000
  H   H215      1.0  0.9703888069586398  0.6936918333049852  0.6498850843938085  1.0000
  H   H216      1.0  0.09235613753475835  0.7340094530563375  0.7262439855827875  1.0000
  H   H217      1.0  0.08458839318592881  0.703973420011303  0.6831353624282805  1.0000
  H   H218      1.0  0.03759665272531976  0.7342617116134947  0.6689799795949485  1.0000
  H   H219      1.0  0.10003787646580986  0.6933245375975859  0.7863824620568243  1.0000
  H   H220      1.0  0.09479967413149448  0.6640131386329706  0.7430807531256937  1.0000
  H   H221      1.0  0.052778063515364515  0.6634597429714566  0.7704530651967275  1.0000
  H   H222      1.0  0.9881371085460414  0.7055510665494765  0.7520258082620452  1.0000
  H   H223      1.0  0.9813039890574741  0.7352392403750989  0.7090574369754037  1.0000
  H   H224      1.0  0.03607496947628208  0.7347632618369342  0.7664124682291763  1.0000
  N   N9        1.0  0.4857993481917272  0.5562098235923497  0.3516693348519326  1.0000
  C   C225      1.0  0.5408896216657118  0.5562713426263842  0.3837159957317685  1.0000
  C   C226      1.0  0.4580944370678913  0.5461679763224121  0.37853946277038064  1.0000
  C   C227      1.0  0.4751807067986848  0.5341893207304936  0.31182994510425016  1.0000
  C   C228      1.0  0.46923120634555604  0.5881351147743723  0.3326172736572802  1.0000
  H   H225      1.0  0.5629425373063789  0.5643814456899225  0.36482354414571777  1.0000
  H   H226      1.0  0.5548565460347269  0.5323606081537952  0.397864955191237  1.0000
  H   H227      1.0  0.5502244387295269  0.5721960408321489  0.41470103607418657  1.0000
  H   H228      1.0  0.41655880004240303  0.5441713745434109  0.3550303810398937  1.0000
  H   H229      1.0  0.47159803051083754  0.5228225507127238  0.39527189804594454  1.0000
  H   H230      1.0  0.4635184249157655  0.563049095262623  0.40758868964268585  1.0000
  H   H231      1.0  0.4338970120427025  0.5332663537027766  0.28706646948774256  1.0000
  H   H232      1.0  0.4875886949245194  0.5099165062453174  0.3250165572230783  1.0000
  H   H233      1.0  0.4955536586796473  0.5412243210939505  0.29086098822217477  1.0000
  H   H234      1.0  0.4277038639857746  0.5890872097765271  0.3088761812526603  1.0000
  H   H235      1.0  0.4889377054762413  0.5962104263726475  0.31153501516085336  1.0000
  H   H236      1.0  0.477781240023581  0.6055943213655525  0.36172131814318553  1.0000
  N   N10       1.0  0.10072468922736516  0.03311985852215366  0.8778574939508407  1.0000
  C   C229      1.0  0.08312103961744657  0.0148216237753942  0.833194866275421  1.0000
  C   C230      1.0  0.13206704582324205  0.059699401880543304  0.8763938902566737  1.0000
  C   C231      1.0  0.1313124730927368  0.012765789549219475  0.9188403359210963  1.0000
  C   C232      1.0  0.056216724323972955  0.04520466574297321  0.8828128568885666  1.0000
  H   H237      1.0  0.059026619808203284  0.02942543735101288  0.8016847935768753  1.0000
  H   H238      1.0  0.05993884078601097  0.9943118959340176  0.833296236930916  1.0000
  H   H239      1.0  0.11557330553876026  0.005770124106893482  0.8276821637925557  1.0000
  H   H240      1.0  0.11057811629384831  0.07482085097639249  0.8449287176829007  1.0000
  H   H241      1.0  0.14432987197115166  0.0749127637571951  0.908536728207033  1.0000
  H   H242      1.0  0.16674017120322202  0.05155993694000226  0.8738388964268774  1.0000
  H   H243      1.0  0.16504734839522248  0.0031019303600574592  0.91607887175401  1.0000
  H   H244      1.0  0.10877413796393383  0.9924368493026309  0.9209451217789675  1.0000
  H   H245      1.0  0.14502307647731838  0.0258707241034655  0.9530732605980197  1.0000
  H   H246      1.0  0.032641692508680535  0.025695024126240845  0.8855518498613961  1.0000
  H   H247      1.0  0.031370977245997606  0.05963501796340999  0.8514898058339121  1.0000
  H   H248      1.0  0.06777015149980935  0.060327872474537046  0.9149859267126212  1.0000
  N   N11       1.0  0.5521520750039365  0.5459970305217383  0.6436545978812167  1.0000
  C   C233      1.0  0.6000674118955718  0.55884462326736  0.6467962256693646  1.0000
  C   C234      1.0  0.5338663873353984  0.5206927899316788  0.607524437325959  1.0000
  C   C235      1.0  0.5136641737731253  0.5712663491232193  0.6297264943506331  1.0000
  C   C236      1.0  0.5609915498895763  0.5332135648911713  0.6904445124936219  1.0000
  H   H249      1.0  0.6303700619302984  0.5406412671384893  0.6579583879685517  1.0000
  H   H250      1.0  0.6145361423238742  0.5785571617169557  0.6728772233197017  1.0000
  H   H251      1.0  0.5948536409979489  0.5682389009140649  0.6118531674561052  1.0000
  H   H252      1.0  0.4979667949391527  0.5102081139421395  0.6044254413853993  1.0000
  H   H253      1.0  0.526394582706914  0.529485996130245  0.5716703700273853  1.0000
  H   H254      1.0  0.5621143533051292  0.5012845252256318  0.6166974555677913  1.0000
  H   H255      1.0  0.5260243333611823  0.5908445346397321  0.6560944623297038  1.0000
  H   H256      1.0  0.47675380851152527  0.5625773745032536  0.626700675487726  1.0000
  H   H257      1.0  0.5060923621266669  0.5815570632391293  0.5946369889770471  1.0000
  H   H258      1.0  0.5253268567752386  0.5239218185675921  0.6895562653001692  1.0000
  H   H259      1.0  0.5758124508164247  0.5515000295984207  0.7188077379653126  1.0000
  H   H260      1.0  0.5888941573321151  0.5135143613398687  0.7015639538034704  1.0000
  N   N12       1.0  0.6035057839644006  0.05860218342121393  0.38848995047357004  1.0000
  C   C237      1.0  0.6544765816264849  0.05946991609283024  0.39033982820337393  1.0000
  C   C238      1.0  0.6014692920976717  0.033512208086376165  0.4199733971290704  1.0000
  C   C239      1.0  0.5650408479627602  0.052487566127324074  0.3390444398476812  1.0000
  C   C240      1.0  0.5927703168359789  0.08914054133806616  0.40450595244231163  1.0000
  H   H261      1.0  0.6568850366969187  0.0782936460202966  0.36686660412638666  1.0000
  H   H262      1.0  0.6639406435530495  0.03682575290111351  0.37835117430414067  1.0000
  H   H263      1.0  0.6843573611093423  0.06418610233335323  0.4271546181668545  1.0000
  H   H264      1.0  0.6105111712965796  0.010156543470500212  0.40972100390936683  1.0000
  H   H265      1.0  0.6286092839174654  0.037944307321672206  0.4579371885340509  1.0000
  H   H266      1.0  0.5629531484293796  0.03190110201886469  0.4182913766853767  1.0000
  H   H267      1.0  0.5727267964638038  0.030083398034584114  0.32510399441897836  1.0000
  H   H268      1.0  0.5641531308973742  0.07168081000815044  0.3146382311982845  1.0000
  H   H269      1.0  0.5263122174392727  0.05079746521396765  0.33679419838737856  1.0000
  H   H270      1.0  0.5542159272620888  0.08939820520109974  0.4026148860884015  1.0000
  H   H271      1.0  0.5945208858249884  0.10873650032272929  0.38195373358905266  1.0000
  H   H272      1.0  0.6203062684773902  0.09437826220623768  0.4420062995757671  1.0000
  N   N13       1.0  0.18843038001875  0.5386008155475646  0.39267165478088384  1.0000
  C   C241      1.0  0.24119169792566833  0.538404613090986  0.4309022416321358  1.0000
  C   C242      1.0  0.1697263328125017  0.5059717744062001  0.3812991393937091  1.0000
  C   C243      1.0  0.1872031529847062  0.5535650815711034  0.34979096152756783  1.0000
  C   C244      1.0  0.15576691654179856  0.556558193582624  0.40865269958965134  1.0000
  H   H273      1.0  0.2437710873567405  0.5270974053177587  0.4637724218579543  1.0000
  H   H274      1.0  0.2563949947633676  0.5626890770640464  0.44052732278689927  1.0000
  H   H275      1.0  0.2668556673944458  0.5252275024769062  0.41968393375377055  1.0000
  H   H276      1.0  0.13009095632140413  0.5051174650902245  0.352256160684283  1.0000
  H   H277      1.0  0.19375997814177864  0.4917518961985314  0.36933635517569124  1.0000
  H   H278      1.0  0.16986529518533705  0.4939389215836507  0.41272629000848665  1.0000
  H   H279      1.0  0.14808729097744472  0.5538745299561684  0.3199282898519536  1.0000
  H   H280      1.0  0.21188287304329376  0.5407692157446632  0.3370193269329656  1.0000
  H   H281      1.0  0.20073308461356942  0.5782805920441273  0.35705815585448003  1.0000
  H   H282      1.0  0.16880895302761767  0.5813139289926762  0.41746620094765924  1.0000
  H   H283      1.0  0.1558366845880857  0.5460446049341121  0.4410446468295773  1.0000
  H   H284      1.0  0.1156940142926094  0.5572485534947148  0.3805588052985835  1.0000
  N   N14       1.0  0.19226257159391713  0.7729010574812553  0.020848726780975827  1.0000
  C   C245      1.0  0.18466508773267243  0.7877268656288497  0.9756775027380608  1.0000
  C   C246      1.0  0.1423468993670534  0.7663190023353867  0.01938418289045285  1.0000
  C   C247      1.0  0.22136105249474472  0.794341442167963  0.060977679023973407  1.0000
  C   C248      1.0  0.22075308349609787  0.7432345425864305  0.027255376362087528  1.0000
  H   H285      1.0  0.2214233470972772  0.7948299006718161  0.9765739435713494  1.0000
  H   H286      1.0  0.16109002278195209  0.8093768255386677  0.9684933000063249  1.0000
  H   H287      1.0  0.1654189600392726  0.7715808241033673  0.9449313184601492  1.0000
  H   H288      1.0  0.11954013008229965  0.7882012227488729  0.013942163343154013  1.0000
  H   H289      1.0  0.11952846277140376  0.7499984686116016  0.9897051206688867  1.0000
  H   H290      1.0  0.14650842937587552  0.7554601980463687  0.0530898949600136  1.0000
  H   H291      1.0  0.20088995741378352  0.8169194585455644  0.05730670811220576  1.0000
  H   H292      1.0  0.25878755644349527  0.8004201147510526  0.062464495464414585  1.0000
  H   H293      1.0  0.2283263293435317  0.7839462387173806  0.0957897912383962  1.0000
  H   H294      1.0  0.19972054599765043  0.7264415168673463  0.9976500182419527  1.0000
  H   H295      1.0  0.2274875991098879  0.7314656046919005  0.061156037355252484  1.0000
  H   H296      1.0  0.2584523344939726  0.7474279027310275  0.028129254993338963  1.0000
  N   N15       1.0  0.5775973514345539  0.8401638869756733  0.7765355941048083  1.0000
  C   C249      1.0  0.6079002025362888  0.864921374296744  0.8103503442169216  1.0000
  C   C250      1.0  0.6105349235914656  0.8215733168529291  0.761617633617509  1.0000
  C   C251      1.0  0.5363737635119672  0.8548063149060172  0.7342214845806023  1.0000
  C   C252      1.0  0.5554812057362135  0.8193898002981551  0.7998836746465687  1.0000
  H   H297      1.0  0.5847870154953814  0.8783191785198161  0.8241951819050444  1.0000
  H   H298      1.0  0.6224308989507079  0.8822379293756545  0.7930200404355222  1.0000
  H   H299      1.0  0.6409725583559527  0.8549728689461925  0.8416237229862537  1.0000
  H   H300      1.0  0.5886618190903099  0.8029099642271644  0.7355414139862066  1.0000
  H   H301      1.0  0.6282100413119456  0.8366552641784902  0.7442735692414132  1.0000
  H   H302      1.0  0.641743961495709  0.8098190690884816  0.7924602238687439  1.0000
  H   H303      1.0  0.5517850972328575  0.8696647813439765  0.7146338824155544  1.0000
  H   H304      1.0  0.5122466001482326  0.8703865016058484  0.7442852834360076  1.0000
  H   H305      1.0  0.5113878343473444  0.8368587307838057  0.7087736849331198  1.0000
  H   H306      1.0  0.5329024187445693  0.8001595593392402  0.775571185261657  1.0000
  H   H307      1.0  0.5298158486430017  0.8326473653937825  0.810948080702643  1.0000
  H   H308      1.0  0.5855047421461169  0.8083174815594455  0.8324191223174335  1.0000
  N   N16       1.0  0.03590736518023531  0.3508477267555095  0.24903151844384191  1.0000
  C   C253      1.0  0.0008449736792442108  0.37072050481902447  0.2093387797654526  1.0000
  C   C254      1.0  0.08804333667881595  0.3631036934261239  0.26679294189801095  1.0000
  C   C255      1.0  0.03423571888347145  0.31822855603027883  0.23215040047818433  1.0000
  C   C256      1.0  0.020622677416071638  0.35152870401210423  0.28791604382650965  1.0000
  H   H309      1.0  0.9610279483655837  0.3623282695692056  0.1950454844473949  1.0000
  H   H310      1.0  0.011246331124606258  0.370820999447153  0.17939594669912845  1.0000
  H   H311      1.0  0.001662297406139552  0.39557928443250445  0.22098208263255234  1.0000
  H   H312      1.0  0.1156691143522609  0.3491734520663349  0.2973567934313067  1.0000
  H   H313      1.0  0.10107893622919295  0.3627923882628199  0.23854021938275027  1.0000
  H   H314      1.0  0.09020618647797402  0.3877817617965065  0.27903475513780746  1.0000
  H   H315      1.0  0.9951073916516807  0.30849826041289846  0.21688488374708972  1.0000
  H   H316      1.0  0.059362045355062606  0.3025195422515134  0.2615580582860557  1.0000
  H   H317      1.0  0.04704992848684465  0.3167808423848389  0.20381827985307363  1.0000
  H   H318      1.0  0.047624749445382954  0.3381324456594261  0.3195899440249445  1.0000
  H   H319      1.0  0.9821355914455095  0.3414323684709587  0.2763307067782332  1.0000
  H   H320      1.0  0.019545183376965782  0.37597344703709074  0.3000688749834481  1.0000
  N   N17       1.0  0.804365772903322  0.05564972603872609  0.7502202331029483  1.0000
  C   C257      1.0  0.7750483653650618  0.05936376669991983  0.6980641299133046  1.0000
  C   C258      1.0  0.7750901553174251  0.036244835781307216  0.7680176239558796  1.0000
  C   C259      1.0  0.8138565585562576  0.08681909064648208  0.7734506279114097  1.0000
  C   C260      1.0  0.8533658361401494  0.0401132281128147  0.7613466755352792  1.0000
  H   H321      1.0  0.7376524182795519  0.07087282350762791  0.6882942355722025  1.0000
  H   H322      1.0  0.7666991663088508  0.036226316952799875  0.679433866059283  1.0000
  H   H323      1.0  0.7958673303000617  0.07377725728775708  0.6831276071526365  1.0000
  H   H324      1.0  0.7956101351211221  0.03309592708994358  0.8073567327395966  1.0000
  H   H325      1.0  0.7374164361936121  0.04689219211727469  0.7594516414723291  1.0000
  H   H326      1.0  0.7679295176096318  0.012422587318570155  0.7517644771915023  1.0000
  H   H327      1.0  0.8358539545195915  0.08482047405060089  0.8128817376552978  1.0000
  H   H328      1.0  0.7776493082776581  0.09916991719617685  0.7658387445639495  1.0000
  H   H329      1.0  0.8359203317421012  0.1021295724342286  0.7608689749860321  1.0000
  H   H330      1.0  0.8756945384690037  0.03594128058047663  0.8003220270779458  1.0000
  H   H331      1.0  0.8771416456944284  0.05455185295946574  0.7496347585619556  1.0000
  H   H332      1.0  0.8475617908100588  0.016908860143188154  0.7432514831991783  1.0000
  N   N18       1.0  0.745127268101328  0.2439897478049761  0.009104410826292765  1.0000
  C   C261      1.0  0.7839801933655831  0.25977183790111347  0.999242595581226  1.0000
  C   C262      1.0  0.7161128512658705  0.2676294442454331  0.02152804520816587  1.0000
  C   C263      1.0  0.7702024521102782  0.22200183607794194  0.04925611882943289  1.0000
  C   C264      1.0  0.7101579517426783  0.22643473138008408  0.966313275057309  1.0000
  H   H333      1.0  0.8112893750068607  0.27312963001070933  0.030826263622056652  1.0000
  H   H334      1.0  0.766320315567759  0.2765098467829989  0.9690483337013271  1.0000
  H   H335      1.0  0.8064834287226013  0.24246188369595612  0.9897171163177427  1.0000
  H   H336      1.0  0.6865123427687846  0.2563449835735889  0.029172875826338766  1.0000
  H   H337      1.0  0.7411317961605453  0.2815330086614404  0.05344892602560128  1.0000
  H   H338      1.0  0.6958579396939059  0.2843035330917696  0.9916426954605042  1.0000
  H   H339      1.0  0.7419354531311757  0.20892848367786285  0.056819426337058596  1.0000
  H   H340      1.0  0.7960658968445343  0.23443847088865166  0.08248582309892882  1.0000
  H   H341      1.0  0.7933940890203541  0.2043618602372859  0.041416030136793125  1.0000
  H   H342      1.0  0.6810494682575509  0.21367182300627766  0.9728786056904631  1.0000
  H   H343      1.0  0.7308018019050653  0.20889517136120547  0.9551380242576042  1.0000
  H   H344      1.0  0.6892036011160658  0.24241507430242704  0.9356677806187059  1.0000
  N   N19       1.0  0.08526133610637698  0.03443221762260826  0.1618726795950436  1.0000
  C   C265      1.0  0.056683938636773235  0.057854101808882966  0.12476508543421065  1.0000
  C   C266      1.0  0.10615168104570616  0.010088175024473456  0.1418439895239458  1.0000
  C   C267      1.0  0.05095939505669578  0.019633116432843815  0.17868173995212172  1.0000
  C   C268      1.0  0.12729452192774748  0.05016455148703582  0.20227569033935036  1.0000
  H   H345      1.0  0.03937387377773316  0.07614790647159617  0.13843315681860055  1.0000
  H   H346      1.0  0.025472996236940215  0.04676128365432911  0.09311098654531019  1.0000
  H   H347      1.0  0.0818182418758231  0.07036339665268121  0.11252015564993402  1.0000
  H   H348      1.0  0.12801130302691788  0.9920022150187183  0.1689141835433565  1.0000
  H   H349      1.0  0.07552715971079826  0.9974432306333825  0.11154582387414508  1.0000
  H   H350      1.0  0.13211710860779768  0.020326685582225116  0.1286323059190378  1.0000
  H   H351      1.0  0.07108671982267789  0.001508267713873135  0.2062680189735395  1.0000
  H   H352      1.0  0.018549203353795063  0.007773697589734008  0.1490271434614325  1.0000
  H   H353      1.0  0.03489848139138285  0.03720702817742867  0.19457588051216299  1.0000
  H   H354      1.0  0.15404510872859833  0.06145732857093029  0.1908593115010336  1.0000
  H   H355      1.0  0.14944736219812005  0.03327860528016579  0.2311801423759425  1.0000
  H   H356      1.0  0.11289280282528957  0.06901841761850748  0.21779766664834838  1.0000
  N   N20       1.0  0.415972645388988  0.3771061273261416  0.6696598115792095  1.0000
  C   C269      1.0  0.47147192463622245  0.3795911657697771  0.6991865160592985  1.0000
  C   C270      1.0  0.40507140767454475  0.3519441147386263  0.6338734515241452  1.0000
  C   C271      1.0  0.39597544274263263  0.4072377614878942  0.6451415516022856  1.0000
  C   C272      1.0  0.39132214858390135  0.3696949602069598  0.7003176423241014  1.0000
  H   H357      1.0  0.48111638684044866  0.3983822310895762  0.7265779976590675  1.0000
  H   H358      1.0  0.49125510887315027  0.38540606464131333  0.6772023322266364  1.0000
  H   H359      1.0  0.48800694410751594  0.3573361982238575  0.718384983631684  1.0000
  H   H360      1.0  0.41935195362992816  0.3288165472214482  0.6511703899539338  1.0000
  H   H361      1.0  0.36353580460776536  0.3496666454899726  0.6106513950714451  1.0000
  H   H362      1.0  0.42348573382490934  0.3567660436523313  0.6103794596504176  1.0000
  H   H363      1.0  0.40575498909768  0.4269996907559367  0.671101610181513  1.0000
  H   H364      1.0  0.3538598175527751  0.40689202726564877  0.6246840531166599  1.0000
  H   H365      1.0  0.4118124751566827  0.41280881124725777  0.6198463589259865  1.0000
  H   H366      1.0  0.3494234319255525  0.3675396818969562  0.6791952754678314  1.0000
  H   H367      1.0  0.3979289546363219  0.3885579016924519  0.727010466635866  1.0000
  H   H368      1.0  0.4060995806111981  0.34742918805969686  0.7202237708016035  1.0000
  N   N21       1.0  0.7623853015634352  0.33399977544885867  0.5349358013755565  1.0000
  C   C273      1.0  0.747462826839385  0.3488172321884054  0.5694718173867983  1.0000
  C   C274      1.0  0.7519295478483035  0.29996294039087196  0.5323478293278552  1.0000
  C   C275      1.0  0.8171485402778736  0.33908586972078864  0.5503582545785207  1.0000
  C   C276      1.0  0.732815913810372  0.3481356334341207  0.48745634850911446  1.0000
  H   H369      1.0  0.7691295100904595  0.33888492148684346  0.6057939766336767  1.0000
  H   H370      1.0  0.7063605350184889  0.3453170201231485  0.5589178750450433  1.0000
  H   H371      1.0  0.7543064795663409  0.3745524212365105  0.5720902448280949  1.0000
  H   H372      1.0  0.7735828704188258  0.28852817987068935  0.5675930666468549  1.0000
  H   H373      1.0  0.7108466629646129  0.2953632814090012  0.5208203642972871  1.0000
  H   H374      1.0  0.7625478976858139  0.28800048159890085  0.5064956769608976  1.0000
  H   H375      1.0  0.8261760761802694  0.3645199350293983  0.5521644537338588  1.0000
  H   H376      1.0  0.8298605418744753  0.3280815627070857  0.5252540316199669  1.0000
  H   H377      1.0  0.8407817603636437  0.3289766175314678  0.5862462007770272  1.0000
  H   H378      1.0  0.7433750896472175  0.3377211532039311  0.46055537953969394  1.0000
  H   H379      1.0  0.7393977696851981  0.3738671711194712  0.4882500624214933  1.0000
  H   H380      1.0  0.691331329010358  0.3445166395459807  0.47460875138050274  1.0000
  N   N22       1.0  0.4694632368341888  0.4672892326985994  0.02065284886587415  1.0000
  C   C277      1.0  0.46383401311037464  0.4999222824935551  0.033873183911455884  1.0000
  C   C278      1.0  0.48617446956911  0.4467705212895209  0.06280708235066546  1.0000
  C   C279      1.0  0.5077133594285126  0.46632807235320695  0.0024319545694955202  1.0000
  C   C280      1.0  0.42027233826080673  0.456093597760405  0.9832044849303304  1.0000
  H   H381      1.0  0.4362899125581639  0.5015510346547147  0.04903218945522059  1.0000
  H   H382      1.0  0.44983886027856035  0.5156768049415591  0.0022629132235554295  1.0000
  H   H383      1.0  0.5007198909428309  0.5097237102959883  0.06052581100009258  1.0000
  H   H384      1.0  0.49074223383483695  0.4220275586880319  0.05354595087091707  1.0000
  H   H385      1.0  0.5233715758773043  0.4545294523556094  0.09155087673010831  1.0000
  H   H386      1.0  0.4582126270374153  0.44680520424894676  0.07758289981023925  1.0000
  H   H387      1.0  0.5138771282601022  0.44203587018043494  0.9929628735807472  1.0000
  H   H388      1.0  0.5450647771125331  0.47536377512230316  0.029144754813051454  1.0000
  H   H389      1.0  0.49550161419149447  0.480826184640389  0.969835299675792  1.0000
  H   H390      1.0  0.42366937272521343  0.4319900392750942  0.9708932652576356  1.0000
  H   H391      1.0  0.4060315852706883  0.47168090205915175  0.9514489772165627  1.0000
  H   H392      1.0  0.3907372884703431  0.45552632894615075  0.9960522255589529  1.0000
  N   N23       1.0  0.4584645303965707  0.3591728318660558  0.3348930966952078  1.0000
  C   C281      1.0  0.4431421754499439  0.38036246624984144  0.29357638218536236  1.0000
  C   C282      1.0  0.446241233864461  0.32641138008834236  0.31801779196107377  1.0000
  C   C283      1.0  0.4308081706711428  0.3679876136592294  0.36252286207738627  1.0000
  C   C284      1.0  0.5136970108747015  0.36201020004490536  0.36544331912057226  1.0000
  H   H393      1.0  0.45259585461938345  0.4051989949378494  0.3052785044852035  1.0000
  H   H394      1.0  0.4015003349768605  0.3792952151706511  0.27017034033847587  1.0000
  H   H395      1.0  0.46288311693032586  0.3742948837665362  0.2716108729207295  1.0000
  H   H396      1.0  0.4582515809601125  0.30976476842497247  0.3483583988547901  1.0000
  H   H397      1.0  0.4047591350944996  0.323220934680039  0.29559405884065776  1.0000
  H   H398      1.0  0.4660207619507183  0.3190981662460817  0.29656578424608665  1.0000
  H   H399      1.0  0.43936720382212696  0.3925721058860805  0.37588058285613996  1.0000
  H   H400      1.0  0.441328991373104  0.3525059968431617  0.39399945535675973  1.0000
  H   H401      1.0  0.3889738281929612  0.36636384203766204  0.34054029730543417  1.0000
  H   H402      1.0  0.5265301287399377  0.346746148884772  0.3973805736153945  1.0000
  H   H403      1.0  0.5243833768128209  0.38647689159063814  0.3784369488113748  1.0000
  H   H404      1.0  0.535855450121428  0.35521383697865294  0.3460027228278841  1.0000
  N   N24       1.0  0.6275783700231904  0.05673341549713018  0.9603928398030855  1.0000
  C   C285      1.0  0.677939631539839  0.06765604617158627  0.9672197718051853  1.0000
  C   C286      1.0  0.6339155267347235  0.03553338020236518  0.9998189830191919  1.0000
  C   C287      1.0  0.6020841729992673  0.03975576909117917  0.9145617435947522  1.0000
  C   C288      1.0  0.596474586821932  0.08407369921210317  0.960147637215871  1.0000
  H   H405      1.0  0.6745585849665475  0.08429947163481444  0.938712807546002  1.0000
  H   H406      1.0  0.7022727205075477  0.04772869507486033  0.9668146470800933  1.0000
  H   H407      1.0  0.6984676498450082  0.08012258415461138  0.0019355810378616223  1.0000
  H   H408      1.0  0.5967184719008399  0.02632996505779217  0.9953495854478436  1.0000
  H   H409      1.0  0.6576889906468026  0.014788023111478088  0.0013404050270651169  1.0000
  H   H410      1.0  0.6522320421728943  0.0478020146896001  0.03487813304474452  1.0000
  H   H411      1.0  0.6248897187822564  0.01917908941146096  0.9133815631954071  1.0000
  H   H412      1.0  0.5959028100932139  0.05517771299173169  0.8839113810446736  1.0000
  H   H413      1.0  0.564400085282256  0.03065133905613915  0.9087764401018252  1.0000
  H   H414      1.0  0.5586735897583989  0.07682351633789541  0.9565701118564972  1.0000
  H   H415      1.0  0.5893594350016275  0.10010617139936939  0.9298768616301679  1.0000
  H   H416      1.0  0.6156318630374293  0.09799427406497485  0.9935967283057056  1.0000
  N   N25       1.0  0.12096314076111514  0.09802698437973993  0.5462087789874905  1.0000
  C   C289      1.0  0.1734244598111514  0.10084737677011292  0.5845140643260256  1.0000
  C   C290      1.0  0.08516789800115587  0.0989683966020693  0.5672891779554571  1.0000
  C   C291      1.0  0.11535787444914236  0.06790675479709421  0.5207375766357364  1.0000
  C   C292      1.0  0.10982179659079905  0.12442839521081832  0.5126236580037887  1.0000
  H   H417      1.0  0.20158845465997288  0.10085643640053098  0.5699867645643995  1.0000
  H   H418      1.0  0.18315306081048388  0.08096553130788087  0.6100616102706438  1.0000
  H   H419      1.0  0.1785554261467328  0.12295040707285936  0.6053309274795465  1.0000
  H   H420      1.0  0.045236674700986246  0.09585125972347254  0.5397731853477928  1.0000
  H   H421      1.0  0.093764451952973  0.08006495347541281  0.5941038125871052  1.0000
  H   H422      1.0  0.08723364584901172  0.12171871156552848  0.5856118712609898  1.0000
  H   H423      1.0  0.12461914232717408  0.04762534443747987  0.5455378161633242  1.0000
  H   H424      1.0  0.14098059281935904  0.06654804002845824  0.5034252189526094  1.0000
  H   H425      1.0  0.07573037111978631  0.06438019246848001  0.4926200722103116  1.0000
  H   H426      1.0  0.07038456201026744  0.12302388594832948  0.48343562021932784  1.0000
  H   H427      1.0  0.13619073234796697  0.1246083991294032  0.49604884083802236  1.0000
  H   H428      1.0  0.11364958924601076  0.14741402649453758  0.5310981231450262  1.0000
  N   N26       1.0  0.6553279567073702  0.7904207028392523  0.20696036477608776  1.0000
  C   C293      1.0  0.6547396158125505  0.8176110198401555  0.2361144877785478  1.0000
  C   C294      1.0  0.7066914827265763  0.7763963327030381  0.22744951039618852  1.0000
  C   C295      1.0  0.6410504002668089  0.8008436087960278  0.15775778214606778  1.0000
  C   C296      1.0  0.618638153058388  0.7667241990589002  0.20641210219128253  1.0000
  H   H429      1.0  0.6823370353484676  0.8358777339414044  0.23779419559102835  1.0000
  H   H430      1.0  0.6646480871731105  0.8105177390811634  0.27330801447664127  1.0000
  H   H431      1.0  0.6165719287177029  0.8289270779101424  0.2210263553222999  1.0000
  H   H432      1.0  0.7355603667627278  0.7937002066437454  0.2290090589575722  1.0000
  H   H433      1.0  0.7182166516712866  0.7675474939816728  0.2641887652485405  1.0000
  H   H434      1.0  0.7082867348616071  0.755946285880888  0.2058765467602356  1.0000
  H   H435      1.0  0.6680308997287047  0.8184559216270854  0.15643629008631046  1.0000
  H   H436      1.0  0.6026572694574657  0.8118074636681135  0.14131487899835146  1.0000
  H   H437      1.0  0.6403391687339546  0.7808404269921283  0.13457039094155587  1.0000
  H   H438      1.0  0.6181350202088043  0.7457912286355909  0.18482749433162468  1.0000
  H   H439      1.0  0.5792605034742174  0.7762763849349126  0.19075779021242342  1.0000
  H   H440      1.0  0.627938444456929  0.7583163373870635  0.24287788619719236  1.0000
  N   N27       1.0  0.3691629921644017  0.003582649966780816  0.872574293855147  1.0000
  C   C297      1.0  0.3868596765382377  0.9708007954778127  0.8752072905093903  1.0000
  C   C298      1.0  0.40891513223233017  0.025075324256068707  0.8737596848354152  1.0000
  C   C299      1.0  0.35873208709173554  0.010330271917704525  0.9135775351818126  1.0000
  C   C300      1.0  0.32217654573547433  0.008193539083821701  0.8278439956890808  1.0000
  H   H441      1.0  0.3583780582900203  0.953894694190875  0.8757321760804672  1.0000
  H   H442      1.0  0.42259765038591834  0.9666687743352308  0.9083616736560035  1.0000
  H   H443      1.0  0.3943821110219925  0.9647067000449138  0.8444698942390082  1.0000
  H   H444      1.0  0.3970332654608411  0.04995214537698013  0.8724736613954501  1.0000
  H   H445      1.0  0.44493731506311013  0.02210985771476833  0.9069790677522451  1.0000
  H   H446      1.0  0.4173073841543245  0.02107070805189137  0.8429611156838831  1.0000
  H   H447      1.0  0.3935524340326057  0.007655778942229352  0.9479964185359215  1.0000
  H   H448      1.0  0.32996807688733565  0.9939121751766994  0.9146253604318333  1.0000
  H   H449      1.0  0.3440637511562785  0.03463887593080281  0.9120402092503588  1.0000
  H   H450      1.0  0.30786330857261  0.03273170469264724  0.8247677402816304  1.0000
  H   H451      1.0  0.2913033606819984  0.992464110335148  0.8260309686420392  1.0000
  H   H452      1.0  0.32844338811912727  0.003396118331745913  0.7960232293130302  1.0000
  N   N28       1.0  0.2650669800120104  0.22356603657220445  0.24863222818262903  1.0000
  C   C301      1.0  0.2884528491980302  0.1964512226751193  0.28015218442895745  1.0000
  C   C302      1.0  0.23971334091819124  0.24387785819240773  0.26981242976606423  1.0000
  C   C303      1.0  0.22729626617526003  0.21234015792724079  0.2013649685276553  1.0000
  C   C304      1.0  0.3050648362173465  0.2415198758893601  0.24340263696230355  1.0000
  H   H453      1.0  0.30827966532890355  0.18081679877750015  0.26534449551103595  1.0000
  H   H454      1.0  0.25956504054908114  0.18210491615678662  0.284849108826236  1.0000
  H   H455      1.0  0.31715562596486757  0.204040706826113  0.31620267722911716  1.0000
  H   H456      1.0  0.20911288789919089  0.2309742358749195  0.27389156219057587  1.0000
  H   H457      1.0  0.26713482993395254  0.25246212316656874  0.30574051824737136  1.0000
  H   H458      1.0  0.22200806484265995  0.26477956792868046  0.2471831061680782  1.0000
  H   H459      1.0  0.2080338983327805  0.23217989671431064  0.17683281390135772  1.0000
  H   H460      1.0  0.1972239061590468  0.19794422488261235  0.20409433504085778  1.0000
  H   H461      1.0  0.24535120100152683  0.19738986419740523  0.18401352915347252  1.0000
  H   H462      1.0  0.3345279876057274  0.2499096736506054  0.27863142602200003  1.0000
  H   H463      1.0  0.2889915767101177  0.26231595984501505  0.22002719953051744  1.0000
  H   H464      1.0  0.3248718940742147  0.22671868417377172  0.22751834657909645  1.0000
  N   N29       1.0  0.14118247691529617  0.3052956812185136  0.7309424485309631  1.0000
  C   C305      1.0  0.08925893370789485  0.318000572287314  0.7044595122597541  1.0000
  C   C306      1.0  0.13852579228885936  0.2712751549043796  0.7386936772638316  1.0000
  C   C307      1.0  0.16702156285718509  0.321629267083978  0.7772883490013289  1.0000
  C   C308      1.0  0.1698069246103542  0.31041048357406853  0.7031434419235957  1.0000
  H   H465      1.0  0.08964761208292932  0.34373900837021254  0.6988556328920379  1.0000
  H   H466      1.0  0.06590222847718989  0.3137621808697092  0.7235364076376899  1.0000
  H   H467      1.0  0.0692813481536711  0.3069418196695577  0.6687537087231055  1.0000
  H   H468      1.0  0.17700852831428676  0.2607022953235854  0.7580749212591611  1.0000
  H   H469      1.0  0.11729754931752912  0.2664834186187588  0.7596743020156228  1.0000
  H   H470      1.0  0.1187109204004498  0.25841557529354614  0.7042725916470908  1.0000
  H   H471      1.0  0.14624539067517173  0.31847931795404416  0.7990895964133161  1.0000
  H   H472      1.0  0.16956797221253656  0.3473704334192099  0.7723090472205384  1.0000
  H   H473      1.0  0.20636023494776942  0.31265449622314756  0.7983534082096118  1.0000
  H   H474      1.0  0.20934374281870316  0.30136998845347546  0.7222389944360034  1.0000
  H   H475      1.0  0.17193632074426043  0.3358672813618903  0.6961447468181514  1.0000
  H   H476      1.0  0.1515353692018965  0.29818640139774616  0.6680554195295857  1.0000
  N   N30       1.0  0.9137648569735829  0.7861189940151928  0.35126160058562944  1.0000
  C   C309      1.0  0.8616622695720219  0.778442816594965  0.3153528611268484  1.0000
  C   C310      1.0  0.911565521485952  0.8077787048144757  0.387215095222422  1.0000
  C   C311      1.0  0.9414216471242403  0.8013550190040906  0.3276505134501681  1.0000
  C   C312      1.0  0.9404161552243908  0.7569739862903994  0.37483356973428916  1.0000
  H   H477      1.0  0.8399820615533921  0.8000264944935837  0.29805877687403803  1.0000
  H   H478      1.0  0.840222605534581  0.7659337037921531  0.33164670055250556  1.0000
  H   H479      1.0  0.8619667535812661  0.7631626398074294  0.2866635523477621  1.0000
  H   H480      1.0  0.8918129699111661  0.8300948302782488  0.3706272831748987  1.0000
  H   H481      1.0  0.8911650449725493  0.7971171481956993  0.4059668810564825  1.0000
  H   H482      1.0  0.9502862583637839  0.8141801341343929  0.4146778871208875  1.0000
  H   H483      1.0  0.9446486620427983  0.7856948299867224  0.30071310608795365  1.0000
  H   H484      1.0  0.9805532231680686  0.8080208278549196  0.3537507407358691  1.0000
  H   H485      1.0  0.9220393721842701  0.823264130571167  0.3091542149863251  1.0000
  H   H486      1.0  0.9793802218785661  0.7619868347547729  0.40277870106818126  1.0000
  H   H487      1.0  0.943916821350086  0.7403643972251968  0.3490246646399509  1.0000
  H   H488      1.0  0.9202851039752022  0.744583696013898  0.39253035901632266  1.0000
  N   N31       1.0  0.8787534245666258  0.8606724640408828  0.8399242502040307  1.0000
  C   C313      1.0  0.861743315652298  0.8479679171498605  0.8740889783506551  1.0000
  C   C314      1.0  0.9228050134711716  0.8814243962227223  0.8654500509516424  1.0000
  C   C315      1.0  0.8369643035282217  0.8787976380208745  0.8027081027351491  1.0000
  C   C316      1.0  0.8937735947210442  0.8345231895968399  0.8177822019070562  1.0000
  H   H489      1.0  0.8925540176791511  0.834315215799649  0.9028198003207626  1.0000
  H   H490      1.0  0.8286978460276391  0.8320380834246969  0.8561946582226857  1.0000
  H   H491      1.0  0.8504320834941238  0.8671212411187362  0.8916753071422465  1.0000
  H   H492      1.0  0.9554630932639657  0.8683121303505604  0.8928343347079662  1.0000
  H   H493      1.0  0.9360829313789123  0.8922583982848302  0.8408439899724559  1.0000
  H   H494      1.0  0.9134093777776658  0.9007294213935568  0.884093013564821  1.0000
  H   H495      1.0  0.8488788983780825  0.8894299840910685  0.7769910780248819  1.0000
  H   H496      1.0  0.8241886995966656  0.8983560467057994  0.818490084844285  1.0000
  H   H497      1.0  0.8033227304823956  0.8637827161203483  0.7819395707940893  1.0000
  H   H498      1.0  0.9073283860877132  0.8433272245257277  0.7921804055049685  1.0000
  H   H499      1.0  0.8614969461161668  0.8183161899089232  0.7981231802800302  1.0000
  H   H500      1.0  0.9251653717200622  0.820393459543355  0.8451926202833887  1.0000
  N   N32       1.0  0.784309243978915  0.59218114128551  0.20987139476350722  1.0000
  C   C317      1.0  0.7766536721469999  0.5730002419251516  0.1678485124960935  1.0000
  C   C318      1.0  0.8390183065161855  0.5984874460856259  0.23889364300659555  1.0000
  C   C319      1.0  0.7646545234325115  0.5750145476837527  0.23890079009114673  1.0000
  C   C320      1.0  0.7567014925660874  0.6222237513760113  0.19377737822979937  1.0000
  H   H501      1.0  0.7906493208769518  0.5852976318222293  0.14486779977216  1.0000
  H   H502      1.0  0.7355745876402431  0.5678895867684304  0.1454128322038613  1.0000
  H   H503      1.0  0.7968613109732514  0.5500992877122765  0.1785277430756299  1.0000
  H   H504      1.0  0.8610239427709622  0.5763793867552136  0.252388609675236  1.0000
  H   H505      1.0  0.855329290302745  0.6111760046696426  0.21808778479567345  1.0000
  H   H506      1.0  0.8458310018767101  0.6132618475265614  0.2705512016769502  1.0000
  H   H507      1.0  0.7698474035170639  0.5887608957105479  0.27099495546292307  1.0000
  H   H508      1.0  0.7844930210956692  0.5521649243488803  0.2515059583353414  1.0000
  H   H509      1.0  0.7233389461035729  0.570002640549538  0.21812236243272068  1.0000
  H   H510      1.0  0.7605008612879944  0.6369883419110687  0.22442794713869638  1.0000
  H   H511      1.0  0.7154266690936677  0.6183505985392953  0.1710978860586494  1.0000
  H   H512      1.0  0.7711195823965981  0.6361410498463713  0.1725530196795573  1.0000
