data_image0
_chemical_formula_structural       FeS2FeS2FeSFeS3FeS2FeS2FeSFeS3FeS2FeS2FeSFeS3FeS2FeS2FeSFeS3FeS2FeS2FeSFeS3FeS2FeS2FeSFeS3FeS2FeS2FeSFeS3FeS2FeS2FeSFeS3FeS2FeS2FeSFeS3FeS2FeS2FeSFeS3FeS2FeS2FeSFeS3FeS2FeS2FeSFeS3FeS2FeS2FeSFeS3FeS2FeS2FeSFeS3FeS2FeS2FeSFeS3FeS2FeS2FeSFeS3FeS2FeS2FeSFeS3FeS2FeS2FeSFeS3FeS2FeS2FeSFeS3FeS2FeS2FeSFeS3FeS2FeS2FeSFeS3FeS2FeS2FeSFeS3FeS2FeS2FeSFeS3FeS2FeS2FeSFeS3FeS2FeS2FeSFeS3FeS2FeS2FeSFeS3FeS2FeS2FeSFeS3FeS2FeS2FeSFeS3FeS2FeS2FeSFeS3FeS2FeS2FeSFeS3FeS2FeS2FeSFeS3FeS2FeS2FeSFeS3C6H4C6H4C6H4C6H4C6H4C6H4C6H4C6H4C6H4C6H4C6H4C6H4C6H4C6H4C6H4C6H4C6H4C6H4C6H4C6H4C6H4C6H4C6H4C6H4C6H4C6H4C6H4C6H4C6H4C6H4C6H4C6H4C6H4C6H4C6H4C6H4C6H4C6H4C6H4C6H4C6H4C6H4C6H4C6H4C6H4C6H4C6H4C6H4C6H4C6H4C6H4C6H4C6H4C6H4C6H4C6H4C6H4C6H4C6H4C6H4C6H4C6H4C6H4C6H4NC4H12NC4H12NC4H12NC4H12NC4H12NC4H12NC4H12NC4H12NC4H12NC4H12NC4H12NC4H12NC4H12NC4H12NC4H12NC4H12NC4H12NC4H12NC4H12NC4H12NC4H12NC4H12NC4H12NC4H12NC4H12NC4H12NC4H12NC4H12NC4H12NC4H12NC4H12NC4H12NC4H12NC4H12NC4H12NC4H12NC4H12NC4H12NC4H12NC4H12NC4H12NC4H12NC4H12NC4H12NC4H12NC4H12NC4H12NC4H12NC4H12NC4H12NC4H12NC4H12NC4H12NC4H12NC4H12NC4H12NC4H12NC4H12NC4H12NC4H12NC4H12NC4H12NC4H12NC4H12
_chemical_formula_sum              "Fe128 S256 C640 H1024 N64"
_cell_length_a       40.270617185233576
_cell_length_b       37.27367846665489
_cell_length_c       24.85801893140704
_cell_angle_alpha    90.4735046495375
_cell_angle_beta     90.60828721225074
_cell_angle_gamma    88.56140347352644

_space_group_name_H-M_alt    "P 1"
_space_group_IT_number       1

loop_
  _space_group_symop_operation_xyz
  'x, y, z'

loop_
  _atom_site_type_symbol
  _atom_site_label
  _atom_site_symmetry_multiplicity
  _atom_site_fract_x
  _atom_site_fract_y
  _atom_site_fract_z
  _atom_site_occupancy
  Fe  Fe1       1.0  0.8949561998127101  0.38423419835893846  0.08414745870447526  1.0000
  S   S1        1.0  0.8652763144688103  0.3502418239823747  0.027842302987481693  1.0000
  S   S2        1.0  0.9484231704371631  0.3935489627696212  0.06840192785010601  1.0000
  Fe  Fe2       1.0  0.8375615120637561  0.4003572387085657  0.1573292476846719  1.0000
  S   S3        1.0  0.8018777678320833  0.3683988995367607  0.10829980758272466  1.0000
  S   S4        1.0  0.8247339783242844  0.43070475105955097  0.23244748536265467  1.0000
  Fe  Fe3       1.0  0.8439798802094602  0.32810357176382815  0.10326607318858483  1.0000
  S   S5        1.0  0.8354094372521707  0.27030422033885465  0.12017878160352002  1.0000
  Fe  Fe4       1.0  0.8257813459146476  0.39307786699014746  0.03680243467960764  1.0000
  S   S6        1.0  0.7992205531464698  0.4156850674420995  0.9640010100485974  1.0000
  S   S7        1.0  0.8777900564391125  0.3580137819089088  0.15898430497744845  1.0000
  S   S8        1.0  0.8575575813524072  0.42931232683541143  0.08669233148118094  1.0000
  Fe  Fe5       1.0  0.9641884892881869  0.08530731498847932  0.635525051592714  1.0000
  S   S9        1.0  0.951954811364031  0.07342552942343872  0.5494672695828192  1.0000
  S   S10       1.0  0.9893602062486553  0.04557842661896938  0.6906632529527291  1.0000
  Fe  Fe6       1.0  0.9352963154313961  0.16115412730777234  0.630697207855042  1.0000
  S   S11       1.0  0.9193813911081391  0.15596030480687495  0.544315171939621  1.0000
  S   S12       1.0  0.9304330091958002  0.21083358114574846  0.6816310183967106  1.0000
  Fe  Fe7       1.0  0.9032028378787379  0.10126062421387605  0.5676247038536965  1.0000
  S   S13       1.0  0.8571948141482474  0.07271603370117918  0.543192595945945  1.0000
  Fe  Fe8       1.0  0.9692228823482272  0.12902287446788052  0.5341755181241737  1.0000
  S   S14       1.0  0.0005341554744542343  0.1451948365943203  0.4653669187077577  1.0000
  S   S15       1.0  0.914054101195906  0.10913008878769626  0.6553499941565951  1.0000
  S   S16       1.0  0.9865764419670832  0.13825320476025382  0.6188208869902339  1.0000
  Fe  Fe9       1.0  0.7812987056226947  0.30031513265470644  0.5843869612601962  1.0000
  S   S17       1.0  0.8136901088274009  0.3417084204196093  0.6215715971909667  1.0000
  S   S18       1.0  0.7637114419554799  0.25314963508844696  0.63036475555715  1.0000
  Fe  Fe10      1.0  0.7723430173710158  0.3412878233553151  0.48045504959695157  1.0000
  S   S19       1.0  0.8034796208447493  0.3870324036393676  0.5083677190740757  1.0000
  S   S20       1.0  0.7495647887509446  0.3354075862902278  0.39831123461504025  1.0000
  Fe  Fe11      1.0  0.837336878481376  0.34361197708466645  0.5406825210560506  1.0000
  S   S21       1.0  0.8927532471801294  0.34552631481182683  0.5394314678670139  1.0000
  Fe  Fe12      1.0  0.7768386076894012  0.38117849609385884  0.5868943388583915  1.0000
  S   S22       1.0  0.7578365371268501  0.4246194058586017  0.6423499882234627  1.0000
  S   S23       1.0  0.8085017438441368  0.2979613516012329  0.5063839136276109  1.0000
  S   S24       1.0  0.7423567120998176  0.33970847973707474  0.555588841525579  1.0000
  Fe  Fe13      1.0  0.5525167921460461  0.47428037114692995  0.8908127921884385  1.0000
  S   S25       1.0  0.5671776323655707  0.46692863104497506  0.9770995206263076  1.0000
  S   S26       1.0  0.49982542320424656  0.4634404662722897  0.8662563319824776  1.0000
  Fe  Fe14      1.0  0.6182604678839309  0.5060510924282878  0.8618866268136465  1.0000
  S   S27       1.0  0.6383920688820467  0.5023122245011732  0.9464946595660766  1.0000
  S   S28       1.0  0.6485212958075124  0.5233796325060954  0.7913998739501477  1.0000
  Fe  Fe15      1.0  0.6163406306234853  0.4478690222899783  0.9449952048547182  1.0000
  S   S29       1.0  0.6439149756092007  0.4006944346543622  0.9810164508284477  1.0000
  Fe  Fe16      1.0  0.5877348958912146  0.5220176349956993  0.9711837294173038  1.0000
  S   S30       1.0  0.5783821830934749  0.5618806711867571  0.038563399307498525  1.0000
  S   S31       1.0  0.5998972840878526  0.4498249110767704  0.8586814305319513  1.0000
  S   S32       1.0  0.5694614978172455  0.5310696709282067  0.886616081407705  1.0000
  Fe  Fe17      1.0  0.5723838526132087  0.13945818070557192  0.979661121648652  1.0000
  S   S33       1.0  0.536638477723943  0.11189549873878613  0.032697727280023514  1.0000
  S   S34       1.0  0.6116859863022689  0.1003301601718356  0.9512943623346196  1.0000
  Fe  Fe18      1.0  0.5358170219935343  0.21049852335437147  0.9906923557493434  1.0000
  S   S35       1.0  0.49650857390138575  0.18903733690800983  0.04414460517773128  1.0000
  S   S36       1.0  0.5373196976939677  0.268669455252756  0.967364743517646  1.0000
  Fe  Fe19      1.0  0.5392859559749051  0.16047270690930415  0.0848319336767765  1.0000
  S   S37       1.0  0.5387604948427  0.15211323285234735  0.17369357884526013  1.0000
  Fe  Fe20      1.0  0.4970429695864619  0.14207794474213964  0.9876480388026676  1.0000
  S   S38       1.0  0.4517821647232344  0.11002707473879725  0.9703929389497625  1.0000
  S   S39       1.0  0.5789487484315536  0.18583471829911513  0.03649398121482296  1.0000
  S   S40       1.0  0.5323826901579493  0.16577655586305373  0.9292019636671235  1.0000
  Fe  Fe21      1.0  0.6008077883887932  0.29961974397941443  0.7124415834544572  1.0000
  S   S41       1.0  0.5618888827479666  0.27035599442646097  0.757123264178349  1.0000
  S   S42       1.0  0.6442374384625553  0.32462447908893155  0.7538941622287197  1.0000
  Fe  Fe22      1.0  0.5691115292282568  0.2866980528809579  0.6034024056328923  1.0000
  S   S43       1.0  0.5277660316049677  0.2560609701968669  0.6382009651280334  1.0000
  S   S44       1.0  0.5705089531605967  0.2907793228742317  0.5138675408878941  1.0000
  Fe  Fe23      1.0  0.5265666009638839  0.2993539010988395  0.7010629573994122  1.0000
  S   S45       1.0  0.4776703897173911  0.32462083762611155  0.7242915866735722  1.0000
  Fe  Fe24      1.0  0.5670695593354318  0.23013104244411234  0.689915271760634  1.0000
  S   S46       1.0  0.5680069117797781  0.17040324882213942  0.6987800984604258  1.0000
  S   S47       1.0  0.5651297708426974  0.3324545192343814  0.6619656574654882  1.0000
  S   S48       1.0  0.6088497530884814  0.25704942624830873  0.6493380846563279  1.0000
  Fe  Fe25      1.0  0.6684342297657702  0.08882783471438316  0.3541223234413743  1.0000
  S   S49       1.0  0.6312272920910855  0.05323732240635648  0.3915093720827403  1.0000
  S   S50       1.0  0.675098678964396  0.09024672345841811  0.26487922027062805  1.0000
  Fe  Fe26      1.0  0.68961904618409  0.1214147022477785  0.4594085387484731  1.0000
  S   S51       1.0  0.6537096587868866  0.09021200486461889  0.5064189380655658  1.0000
  S   S52       1.0  0.7231823379824887  0.1596224283016099  0.5021685044483344  1.0000
  Fe  Fe27      1.0  0.6697880763209088  0.043680937723999946  0.4551621591056616  1.0000
  S   S53       1.0  0.6754542811069453  0.9902461734197177  0.4954915809428495  1.0000
  Fe  Fe28      1.0  0.6176015219936486  0.1020216871124795  0.43983094650094595  1.0000
  S   S54       1.0  0.564242593534304  0.11007820120959821  0.4615096255714752  1.0000
  S   S55       1.0  0.7091614478122087  0.07383482967391397  0.4124485936381515  1.0000
  S   S56       1.0  0.6516803240260947  0.13900032934266804  0.3978579697773985  1.0000
  Fe  Fe29      1.0  0.8311942652045934  0.04392731998601551  0.8384481387589097  1.0000
  S   S57       1.0  0.7874296547874642  0.06318815989562121  0.8864581272856947  1.0000
  S   S58       1.0  0.8829470340179517  0.04918341780466107  0.8718393177449071  1.0000
  Fe  Fe30      1.0  0.7888154445492248  0.011154233194293095  0.7512208867355379  1.0000
  S   S59       1.0  0.7410692475157483  0.028479522512831146  0.7895345768171991  1.0000
  S   S60       1.0  0.7889351221524324  0.973348498118999  0.6806654803925313  1.0000
  Fe  Fe31      1.0  0.7657707449400261  0.08048902389620771  0.8071519725056715  1.0000
  S   S61       1.0  0.734594444396982  0.13167143241480783  0.8045490437094517  1.0000
  Fe  Fe32      1.0  0.7657465000548976  0.010164689076033628  0.8655038904883773  1.0000
  S   S62       1.0  0.735166452315604  0.9808855630706231  0.9243131219353449  1.0000
  S   S63       1.0  0.8115091838058951  0.06558622381301715  0.7596422600729758  1.0000
  S   S64       1.0  0.8118874879259189  0.9887835451804559  0.826151551997966  1.0000
  Fe  Fe33      1.0  0.041544049926614424  0.37953241952646377  0.28789731796693535  1.0000
  S   S65       1.0  0.03628529348324849  0.434245210678445  0.3253098053957176  1.0000
  S   S66       1.0  0.0006969635062856749  0.33964548085623925  0.29152293472500035  1.0000
  Fe  Fe34      1.0  0.11023467537208331  0.3923835123165509  0.24579772976371142  1.0000
  S   S67       1.0  0.11142215091152452  0.447932650649799  0.27995718188075697  1.0000
  S   S68       1.0  0.15376949954475072  0.3727714522272156  0.19732057821489857  1.0000
  Fe  Fe35      1.0  0.08885182858891016  0.42430340379482484  0.35266614686704945  1.0000
  S   S69       1.0  0.10462868298782246  0.44136095909649825  0.43531939194846275  1.0000
  Fe  Fe36      1.0  0.059328875866245134  0.453246010502864  0.249586583419163  1.0000
  S   S70       1.0  0.04298432754317916  0.5051130154058877  0.21202913852677488  1.0000
  S   S71       1.0  0.09262371167101668  0.3676821858930685  0.3218817327539113  1.0000
  S   S72       1.0  0.059446701634743304  0.39954228664135977  0.20865806875037204  1.0000
  Fe  Fe37      1.0  0.30840021671714496  0.45375272699589597  0.7875486995927645  1.0000
  S   S73       1.0  0.3071360690072422  0.4660653374749129  0.8761016419580158  1.0000
  S   S74       1.0  0.31309446379316386  0.49694377121519523  0.7262324450246597  1.0000
  Fe  Fe38      1.0  0.29960848521563194  0.37424722666027804  0.8026970817203319  1.0000
  S   S75       1.0  0.2980514270136658  0.37877357104018783  0.8924483925316149  1.0000
  S   S76       1.0  0.28710149295820403  0.3226064883324339  0.7615238638644037  1.0000
  Fe  Fe39      1.0  0.2655937306704737  0.427287565428463  0.877325767050307  1.0000
  S   S77       1.0  0.21846445831436684  0.4341401455378352  0.9235645277921052  1.0000
  Fe  Fe40      1.0  0.3398991815004728  0.41677902574879516  0.8835174245438225  1.0000
  S   S78       1.0  0.38516412484795054  0.41642797878192545  0.9372539764744031  1.0000
  S   S79       1.0  0.26362945084765843  0.4196626955419225  0.7880031456515434  1.0000
  S   S80       1.0  0.3448661787674436  0.40772147182471175  0.7943420237895169  1.0000
  Fe  Fe41      1.0  0.030742734459495935  0.3673363454994763  0.6786104144535556  1.0000
  S   S81       1.0  0.01938186562887889  0.42271494600273124  0.7097244374756126  1.0000
  S   S82       1.0  0.0185939403055273  0.3523643217264154  0.5937922045785329  1.0000
  Fe  Fe42      1.0  0.058786423990685455  0.34122171090747094  0.784046326229938  1.0000
  S   S83       1.0  0.04940402689603984  0.3940213013126239  0.8253182513134736  1.0000
  S   S84       1.0  0.08556509483995045  0.29692905759401067  0.8280943898116525  1.0000
  Fe  Fe43      1.0  0.0004319434954462853  0.3938967073670852  0.7815657694230117  1.0000
  S   S85       1.0  0.9514120346387818  0.4112543567360519  0.8166775855787085  1.0000
  Fe  Fe44      1.0  0.06933620319397549  0.4176494340708343  0.7500642097359496  1.0000
  S   S86       1.0  0.10707852024088416  0.4611401499562998  0.7476460138663097  1.0000
  S   S87       1.0  0.007822302935313274  0.3386987288454412  0.7471229354320396  1.0000
  S   S88       1.0  0.08257130918686051  0.36466580237595936  0.7119603934741442  1.0000
  Fe  Fe45      1.0  0.009366294107707951  0.08809375733348745  0.10783504444971959  1.0000
  S   S89       1.0  0.011963064041938143  0.11082215874930568  0.19103050146870654  1.0000
  S   S90       1.0  0.036985832271652974  0.035949757678102934  0.09620978869989529  1.0000
  Fe  Fe46      1.0  0.9658745578008348  0.14871870440402923  0.06647666356690671  1.0000
  S   S91       1.0  0.9647079077632202  0.17740563183012403  0.1461440191393053  1.0000
  S   S92       1.0  0.940179799505344  0.17522191478102855  0.9963737734665117  1.0000
  Fe  Fe47      1.0  0.0187987393951059  0.16316158384250423  0.15021535542386383  1.0000
  S   S93       1.0  0.05826592886527471  0.20109771024768763  0.17484464753869539  1.0000
  Fe  Fe48      1.0  0.9576595626146084  0.12281762156633991  0.18007866448850593  1.0000
  S   S94       1.0  0.9233673353017369  0.11318631514355393  0.24853159526288304  1.0000
  S   S95       1.0  0.021022466303957765  0.13963561100912036  0.06738042016207094  1.0000
  S   S96       1.0  0.9539961863049549  0.09483342500916137  0.10003110697854323  1.0000
  Fe  Fe49      1.0  0.27270782802234306  0.15077660462510845  0.2411537087117715  1.0000
  S   S97       1.0  0.29520807067452204  0.09725483847182548  0.21806155748069495  1.0000
  S   S98       1.0  0.28719375551247256  0.20009579092128416  0.19733450116998158  1.0000
  Fe  Fe50      1.0  0.2305946576180201  0.12060256100246391  0.3292085675884078  1.0000
  S   S99       1.0  0.24979821539322639  0.06471607235542476  0.31463616543110084  1.0000
  S   S100      1.0  0.192416846939907  0.13382707925782267  0.39189317907376114  1.0000
  Fe  Fe51      1.0  0.29956359777165614  0.08937179069881251  0.3070148946718883  1.0000
  S   S101      1.0  0.34368165107059556  0.0604100758265691  0.34335169220027306  1.0000
  Fe  Fe52      1.0  0.24347489826718086  0.07791726417245148  0.2273721839122601  1.0000
  S   S102      1.0  0.21871271145490906  0.037545214709764574  0.17449644005230852  1.0000
  S   S103      1.0  0.28101148679471705  0.14457033702852629  0.3301063464021658  1.0000
  S   S104      1.0  0.22028593636411017  0.13215603628150752  0.24223166578920408  1.0000
  Fe  Fe53      1.0  0.16048192295451358  0.08188942235934871  0.8125496169381673  1.0000
  S   S105      1.0  0.15510428992315473  0.09771109626674912  0.7261427927603661  1.0000
  S   S106      1.0  0.2074099843809376  0.09777134749048955  0.8550234415275006  1.0000
  Fe  Fe54      1.0  0.09854046481279433  0.03789635496446864  0.8093533107540322  1.0000
  S   S107      1.0  0.08860261002661818  0.048728554932514934  0.7220478021527537  1.0000
  S   S108      1.0  0.0679129395041902  0.9987796531712465  0.8536218486841556  1.0000
  Fe  Fe55      1.0  0.14353560416729794  0.040113562884048326  0.7125389151631252  1.0000
  S   S109      1.0  0.17096531837216578  0.01121142422518595  0.6467321917144082  1.0000
  Fe  Fe56      1.0  0.10118101210930219  0.10519700687723055  0.7440204299085653  1.0000
  S   S110      1.0  0.07149910884966282  0.14961097265601264  0.7045697549770681  1.0000
  S   S111      1.0  0.15224525636443276  0.023519502762020972  0.7975223492830643  1.0000
  S   S112      1.0  0.10719722346801897  0.09515990012467945  0.8328233126310128  1.0000
  Fe  Fe57      1.0  0.42926758741835563  0.09257339266254361  0.6906618225759356  1.0000
  S   S113      1.0  0.44704533004780156  0.14558323414627927  0.6623882936488015  1.0000
  S   S114      1.0  0.4597346785421936  0.05043377237006075  0.7331890183197811  1.0000
  Fe  Fe58      1.0  0.35751520932803527  0.11040073278183438  0.66674292122253  1.0000
  S   S115      1.0  0.36783305938587235  0.16551322962457427  0.6368991301180991  1.0000
  S   S116      1.0  0.3090141213374565  0.08285043130278269  0.6643080374562843  1.0000
  Fe  Fe59      1.0  0.4106067585734169  0.13867351831226138  0.5944994582270161  1.0000
  S   S117      1.0  0.41900022776663104  0.1584258598186723  0.5107177343899691  1.0000
  Fe  Fe60      1.0  0.4031757381933115  0.16816156206553168  0.707116757640254  1.0000
  S   S118      1.0  0.411781822476168  0.2172401790574665  0.7573432867511656  1.0000
  S   S119      1.0  0.39729094221346567  0.08292437386457707  0.618187511190174  1.0000
  S   S120      1.0  0.3882218491964818  0.11576354257932175  0.7412129720801167  1.0000
  Fe  Fe61      1.0  0.4375972090779546  0.29534463398252037  0.2545990655472989  1.0000
  S   S121      1.0  0.43453555233605207  0.3262585978203408  0.17765791421665705  1.0000
  S   S122      1.0  0.43375264067517283  0.2360045774157775  0.26475151475639336  1.0000
  Fe  Fe62      1.0  0.44500415508046903  0.36065661280122047  0.3248522264979118  1.0000
  S   S123      1.0  0.4426717706369247  0.398765186513818  0.25509040735718946  1.0000
  S   S124      1.0  0.4506007511863984  0.378001478494755  0.4117933594768679  1.0000
  Fe  Fe63      1.0  0.40163730927023344  0.3646490047398826  0.2236563637325806  1.0000
  S   S125      1.0  0.3562612840004865  0.3885794629366363  0.18278351855326844  1.0000
  Fe  Fe64      1.0  0.47565791832127285  0.3580977736726146  0.21366051265130834  1.0000
  S   S126      1.0  0.516809160536468  0.37699541448885526  0.16229444762091094  1.0000
  S   S127      1.0  0.4003968830634644  0.33052654140196014  0.2975700544554778  1.0000
  S   S128      1.0  0.48238755581566517  0.3233297317512842  0.28582883571518386  1.0000
  Fe  Fe65      1.0  0.0797870532691265  0.5703132513367335  0.5262179441214117  1.0000
  S   S129      1.0  0.033992132832189936  0.5440681129158875  0.5556066490405269  1.0000
  S   S130      1.0  0.12961536964764653  0.5443226807072661  0.5433606164889396  1.0000
  Fe  Fe66      1.0  0.04151675029155144  0.6331334200994888  0.4788008518117373  1.0000
  S   S131      1.0  0.9925194610299937  0.6133861935383832  0.5060438432667204  1.0000
  S   S132      1.0  0.04878556131644274  0.6798268548899391  0.4238134280460002  1.0000
  Fe  Fe67      1.0  0.01876279485955723  0.5993395245673134  0.5826386210420531  1.0000
  S   S133      1.0  0.9914935573059084  0.6015580576444622  0.6606988334606035  1.0000
  Fe  Fe68      1.0  0.01136420954354378  0.5599213243327789  0.4765352550684305  1.0000
  S   S134      1.0  0.9750021969659218  0.5256703239760299  0.4321033577787431  1.0000
  S   S135      1.0  0.0665190022033968  0.6247942803405964  0.5594145577427017  1.0000
  S   S136      1.0  0.05875207127110693  0.5803416471828255  0.44372114327475126  1.0000
  Fe  Fe69      1.0  0.007504483101911763  0.835691379275248  0.9281301331263012  1.0000
  S   S137      1.0  0.9963298686114218  0.8346096408038053  0.01601310467115358  1.0000
  S   S138      1.0  0.05518220449824707  0.810463913402514  0.899027750454527  1.0000
  Fe  Fe70      1.0  0.9399561258047576  0.8671282193862844  0.8983586072251643  1.0000
  S   S139      1.0  0.9222135303822374  0.868585531583096  0.9835110348724991  1.0000
  S   S140      1.0  0.9074029155844945  0.8873744120102173  0.8307445849791032  1.0000
  Fe  Fe71      1.0  0.9728847528474487  0.8887204328718283  0.002430274645458308  1.0000
  S   S141      1.0  0.9823720803652076  0.9333049089888503  0.06033529542773007  1.0000
  Fe  Fe72      1.0  0.9468967966746804  0.8142727627727864  0.9895300860198476  1.0000
  S   S142      1.0  0.9233271208024103  0.7688810301165386  0.03190137763845339  1.0000
  S   S143      1.0  0.9887730199134567  0.8922147293682481  0.91677881893592  1.0000
  S   S144      1.0  0.959845363731328  0.8105507414809106  0.9024748409336445  1.0000
  Fe  Fe73      1.0  0.10776762394927619  0.5856017658094069  0.9772857581093132  1.0000
  S   S145      1.0  0.13940308065529128  0.620282757172688  0.9263855537087949  1.0000
  S   S146      1.0  0.11023933894946292  0.5257970832608415  0.986621032074091  1.0000
  Fe  Fe74      1.0  0.07110937483074409  0.6473660600481526  0.02941311628156229  1.0000
  S   S147      1.0  0.09815892305042473  0.6888393974598347  0.9834928317873841  1.0000
  S   S148      1.0  0.03347350334012544  0.6536279021535664  0.09474383766921585  1.0000
  Fe  Fe75      1.0  0.09195782805883068  0.6519732679079175  0.9124903491483881  1.0000
  S   S149      1.0  0.08323120348761237  0.676729880210679  0.8315844337042798  1.0000
  Fe  Fe76      1.0  0.14356749737404173  0.6548786150892238  0.00027948153400902953  1.0000
  S   S150      1.0  0.18869302327869875  0.6823662828095616  0.03143397167809923  1.0000
  S   S151      1.0  0.05974570434066151  0.6140690057254751  0.956301536573017  1.0000
  S   S152      1.0  0.11729881596865499  0.6168505922558598  0.05278340649646702  1.0000
  Fe  Fe77      1.0  0.3426957225980444  0.5209823269023498  0.3689299674803963  1.0000
  S   S153      1.0  0.3144290810154257  0.5336624211914176  0.4439649579157176  1.0000
  S   S154      1.0  0.3985239323797098  0.5191626239099753  0.36931116385515067  1.0000
  Fe  Fe78      1.0  0.2814862619264472  0.5000079266583545  0.305859549822307  1.0000
  S   S155      1.0  0.2473718386912426  0.5092733116729402  0.3754108607677443  1.0000
  S   S156      1.0  0.26721546336319785  0.48521890132865086  0.22101063133779614  1.0000
  Fe  Fe79      1.0  0.2762913197649743  0.559227917901588  0.38920605240990663  1.0000
  S   S157      1.0  0.24618987705969747  0.6087552620740354  0.4109988555101837  1.0000
  Fe  Fe80      1.0  0.28760589029057015  0.48303506297693616  0.4256266440359979  1.0000
  S   S158      1.0  0.27816820170415363  0.4430244644906115  0.49096898960635715  1.0000
  S   S159      1.0  0.3074282615859938  0.5521930291303023  0.31538053764752577  1.0000
  S   S160      1.0  0.3188553685863417  0.46815660582257407  0.3542230840133871  1.0000
  Fe  Fe81      1.0  0.37851805275020606  0.9194095273274036  0.6241566739456723  1.0000
  S   S161      1.0  0.3280733798759434  0.9021265418930902  0.59866718963427  1.0000
  S   S162      1.0  0.38868373344371004  0.9349301785674632  0.7096874667884918  1.0000
  Fe  Fe82      1.0  0.4060443191662119  0.911704687822276  0.5131501133818349  1.0000
  S   S163      1.0  0.358057260997599  0.8936410366216652  0.475983111497735  1.0000
  S   S164      1.0  0.45368544593529153  0.9196379878833075  0.4697029937251681  1.0000
  Fe  Fe83      1.0  0.3347746813512261  0.9370622089408414  0.5275453177252647  1.0000
  S   S165      1.0  0.2915406313855389  0.9737074207065195  0.5068725792271495  1.0000
  Fe  Fe84      1.0  0.3548978662489808  0.8600098362173018  0.5501721217233765  1.0000
  S   S166      1.0  0.3330169188216187  0.805501090969913  0.5556281608529329  1.0000
  S   S167      1.0  0.38312931621636376  0.9585562873360096  0.5574278287195495  1.0000
  S   S168      1.0  0.40518435148645165  0.8738512663761258  0.5826366671175501  1.0000
  Fe  Fe85      1.0  0.3602732151839326  0.6283010169730316  0.053255142901792014  1.0000
  S   S169      1.0  0.3663700752272025  0.6346758488592774  0.14180870877461707  1.0000
  S   S170      1.0  0.3221071788441683  0.5912781633384022  0.020699114118933482  1.0000
  Fe  Fe86      1.0  0.4140634247449446  0.6801118980318782  0.028837181503264617  1.0000
  S   S171      1.0  0.4254061610074403  0.6914323543567423  0.11586064579959482  1.0000
  S   S172      1.0  0.44322757990941886  0.7022076989477426  0.9608067404695688  1.0000
  Fe  Fe87      1.0  0.42092275833260645  0.6320675875048253  0.12560053810159982  1.0000
  S   S173      1.0  0.4588044953815285  0.5989510211839896  0.17155280316311391  1.0000
  Fe  Fe88      1.0  0.3699455761261268  0.6932752461540974  0.12476382929856208  1.0000
  S   S174      1.0  0.3420367911452055  0.7301282272077638  0.18077898062455194  1.0000
  S   S175      1.0  0.4145032648764027  0.620394234799404  0.03778889513858344  1.0000
  S   S176      1.0  0.35883668488822135  0.6873338054551661  0.036884258378332424  1.0000
  Fe  Fe89      1.0  0.2757173808081746  0.9230893492382359  0.9569564396229054  1.0000
  S   S177      1.0  0.2686608487269355  0.9083026850814645  0.8703199291415735  1.0000
  S   S178      1.0  0.29898755987828823  0.9757670577430303  0.9776369509282581  1.0000
  Fe  Fe90      1.0  0.2440489113243604  0.8553681926862269  0.9963275725387277  1.0000
  S   S179      1.0  0.2330235192089243  0.834990325413986  0.9132095506662771  1.0000
  S   S180      1.0  0.22857228521699222  0.8249958258450419  0.06904495026766161  1.0000
  Fe  Fe91      1.0  0.28448767618979043  0.8530180520050179  0.896668817680968  1.0000
  S   S181      1.0  0.3187712896321459  0.8188869234553371  0.8470071377730221  1.0000
  Fe  Fe92      1.0  0.2180577730352172  0.8918532348111652  0.8945423627507413  1.0000
  S   S182      1.0  0.17354990760016964  0.9122605927199844  0.8485816976322716  1.0000
  S   S183      1.0  0.2969198975261278  0.8693571466310912  0.9810905028855984  1.0000
  S   S184      1.0  0.22344075848509964  0.9106131516817421  0.97948349763158  1.0000
  Fe  Fe93      1.0  0.1387811864849786  0.9200131133641243  0.3561605143268488  1.0000
  S   S185      1.0  0.10367246746869685  0.9418644353696768  0.29310901187114896  1.0000
  S   S186      1.0  0.1920011317905919  0.9037904752168432  0.3424366776653249  1.0000
  Fe  Fe94      1.0  0.08645210659443192  0.9175117376633375  0.44181428285360813  1.0000
  S   S187      1.0  0.046078009970275335  0.9387329801448648  0.3874251897119423  1.0000
  S   S188      1.0  0.0769181718694989  0.9051510996161923  0.5282196538097282  1.0000
  Fe  Fe95      1.0  0.06842712973863652  0.9017098572236489  0.3255274295598738  1.0000
  S   S189      1.0  0.034456685453090996  0.8661563999598842  0.27828340255287265  1.0000
  Fe  Fe96      1.0  0.08413298680382697  0.9770705453356779  0.35992089518452625  1.0000
  S   S190      1.0  0.06942307689335481  0.035250870948598134  0.354069897231895  1.0000
  S   S191      1.0  0.10534660188611422  0.8766535368711811  0.38282905629182773  1.0000
  S   S192      1.0  0.12261817557911336  0.9593264594446622  0.4199015294224916  1.0000
  Fe  Fe97      1.0  0.6434665815840931  0.8722769261978887  0.7591352178230918  1.0000
  S   S193      1.0  0.6424595770482218  0.9265571853186828  0.7987483113550998  1.0000
  S   S194      1.0  0.6916473842161656  0.8474458878021787  0.7297482006634581  1.0000
  Fe  Fe98      1.0  0.5690019391993153  0.8638245195145725  0.7706850268532429  1.0000
  S   S195      1.0  0.5622841305383132  0.9173363976985458  0.8113562983183762  1.0000
  S   S196      1.0  0.5216502805310127  0.8343614226127255  0.75683548861774  1.0000
  Fe  Fe99      1.0  0.5968501820156462  0.9365747954136949  0.7485327234722665  1.0000
  S   S197      1.0  0.5860315616301  0.9873866918186073  0.7031152284921671  1.0000
  Fe  Fe100     1.0  0.60821430738633  0.9015230191265695  0.8576247287058785  1.0000
  S   S198      1.0  0.6136441963124836  0.9123612041660263  0.9465903834863139  1.0000
  S   S199      1.0  0.6000767750483937  0.8842170424955563  0.7038701544554299  1.0000
  S   S200      1.0  0.6126668393569075  0.8461617447498287  0.821776410029331  1.0000
  Fe  Fe101     1.0  0.8005319163919272  0.8840131205971427  0.26335512357106494  1.0000
  S   S201      1.0  0.7941175749151863  0.9409520365844689  0.2911408133750182  1.0000
  S   S202      1.0  0.7927477538176697  0.8365128457901686  0.31689029712255135  1.0000
  Fe  Fe102     1.0  0.8182326917528921  0.9057614881747875  0.15121762215439571  1.0000
  S   S203      1.0  0.8132305459203101  0.9649075060925235  0.1677823517144634  1.0000
  S   S204      1.0  0.8305011767036284  0.885975856909205  0.06874979688196411  1.0000
  Fe  Fe103     1.0  0.8399369759109057  0.9514324204271343  0.24395480522190613  1.0000
  S   S205      1.0  0.8756565137064873  0.9878295317358449  0.2840282670614527  1.0000
  Fe  Fe104     1.0  0.7678956692100093  0.9499302443114548  0.2127597985684031  1.0000
  S   S206      1.0  0.7236945519194597  0.9870858267665837  0.20963157161214604  1.0000
  S   S207      1.0  0.8494659675473406  0.8934358014558008  0.224018959400422  1.0000
  S   S208      1.0  0.769973883169261  0.89207675290968  0.18853487282924383  1.0000
  Fe  Fe105     1.0  0.538211804146783  0.7979277733974618  0.2824742733020186  1.0000
  S   S209      1.0  0.5694303464738589  0.7554243852441026  0.24188091308420295  1.0000
  S   S210      1.0  0.4916117274748131  0.7847194888225938  0.3261347157686093  1.0000
  Fe  Fe106     1.0  0.5871061524146514  0.8562861620839471  0.2606238852482585  1.0000
  S   S211      1.0  0.6237739729119476  0.8186047252907027  0.22013793417751004  1.0000
  S   S212      1.0  0.589688907852693  0.9158405060376158  0.27362628996127714  1.0000
  Fe  Fe107     1.0  0.5783272023833659  0.7968010202333459  0.17933233745064406  1.0000
  S   S213      1.0  0.5754055746827481  0.7813612774339713  0.09175809487897008  1.0000
  Fe  Fe108     1.0  0.6115755812586842  0.7807907290688119  0.2866869002336447  1.0000
  S   S214      1.0  0.6456705946651147  0.7441429210593433  0.33428700367558306  1.0000
  S   S215      1.0  0.5424540678539328  0.8370245989176601  0.21518645783027132  1.0000
  S   S216      1.0  0.5797173268044901  0.8207272605314356  0.3312702473534612  1.0000
  Fe  Fe109     1.0  0.4384087954672321  0.6471533286040116  0.5638660530152926  1.0000
  S   S217      1.0  0.44353909715139495  0.682546706751305  0.6364559042681988  1.0000
  S   S218      1.0  0.42643091977317216  0.6756317262526803  0.48675935610945026  1.0000
  Fe  Fe110     1.0  0.45781515823458696  0.5797347318743367  0.6246398704532993  1.0000
  S   S219      1.0  0.46604711053575554  0.609502659698862  0.7019163965934789  1.0000
  S   S220      1.0  0.4623129716067157  0.5196498433075685  0.630417850595981  1.0000
  Fe  Fe111     1.0  0.4186868817838956  0.6384586670896212  0.6798973680772015  1.0000
  S   S221      1.0  0.38061121281857024  0.6442089169320783  0.7441816126801625  1.0000
  Fe  Fe112     1.0  0.49048788802309246  0.6506478801034056  0.6518384695784735  1.0000
  S   S222      1.0  0.5396534176965057  0.6748995097780488  0.6727295504390615  1.0000
  S   S223      1.0  0.4084728436657194  0.6059430901729225  0.6056711809966769  1.0000
  S   S224      1.0  0.4872401528719959  0.6181131812131337  0.5760102285990871  1.0000
  Fe  Fe113     1.0  0.9007087515441272  0.5805584539113248  0.8561040781612739  1.0000
  S   S225      1.0  0.8635710203247088  0.622769034264138  0.8811077258220587  1.0000
  S   S226      1.0  0.9478120384064266  0.5694477557642317  0.9021848216631266  1.0000
  Fe  Fe114     1.0  0.8657073463643654  0.5659869574011587  0.7505908938093487  1.0000
  S   S227      1.0  0.8252341779583261  0.6073704741079425  0.7649164168575748  1.0000
  S   S228      1.0  0.8730313902384198  0.5338963242564265  0.6749473815666621  1.0000
  Fe  Fe115     1.0  0.8663385167247675  0.6414806323374195  0.7965707509041875  1.0000
  S   S229      1.0  0.8738703514596387  0.6999580228847568  0.7835608892551279  1.0000
  Fe  Fe116     1.0  0.8256439330704468  0.5850998818177852  0.8483903643945567  1.0000
  S   S230      1.0  0.7800615277149227  0.5801406085892705  0.898299741942867  1.0000
  S   S231      1.0  0.9067323339021575  0.6022794347736204  0.7735491539215201  1.0000
  S   S232      1.0  0.8627337464047241  0.5404099239944242  0.8318245478651123  1.0000
  Fe  Fe117     1.0  0.6070975504059564  0.516644251909879  0.33298289469595005  1.0000
  S   S233      1.0  0.644439163310191  0.49827204143556075  0.3948665732733525  1.0000
  S   S234      1.0  0.6076949758755789  0.48271079408160056  0.25794301795467  1.0000
  Fe  Fe118     1.0  0.5808028978012215  0.5768707305936006  0.40558406880537196  1.0000
  S   S235      1.0  0.6157166566247938  0.5627936196740969  0.47333411932291425  1.0000
  S   S236      1.0  0.5491251072373436  0.6266906824760307  0.4135058216605316  1.0000
  Fe  Fe119     1.0  0.6529739229285266  0.5567327398616135  0.40768153628700304  1.0000
  S   S237      1.0  0.7043736434036618  0.5774467939607572  0.41291449188749213  1.0000
  Fe  Fe120     1.0  0.602993321239701  0.5061046805291697  0.45299987275858944  1.0000
  S   S238      1.0  0.5928038110459495  0.46495767394231585  0.5156919445503754  1.0000
  S   S239      1.0  0.6190289229512721  0.5747690288039671  0.3406788387525969  1.0000
  S   S240      1.0  0.5644925914215893  0.5205662926889207  0.39016846845678166  1.0000
  Fe  Fe121     1.0  0.8805462303037872  0.6066045198061505  0.18035295742390792  1.0000
  S   S241      1.0  0.8598316888005284  0.5722524116337457  0.24452917370902189  1.0000
  S   S242      1.0  0.9311630624846239  0.5890524483268655  0.1527329922975162  1.0000
  Fe  Fe122     1.0  0.8233171798329534  0.6601031175030051  0.1840725613145526  1.0000
  S   S243      1.0  0.7976700388057191  0.6308446754228092  0.2483667516821698  1.0000
  S   S244      1.0  0.7946015923977524  0.707566044918493  0.15329913648923124  1.0000
  Fe  Fe123     1.0  0.8478748597978532  0.6244370295864442  0.28584559070686644  1.0000
  S   S245      1.0  0.8551338700978547  0.6304058095644096  0.3745504726130003  1.0000
  Fe  Fe124     1.0  0.8115318076893125  0.5815774216248599  0.20108413876343792  1.0000
  S   S246      1.0  0.7715754310946997  0.5414804294502691  0.19271571903923898  1.0000
  S   S247      1.0  0.8730609193849987  0.6585311852249349  0.22568178651428358  1.0000
  S   S248      1.0  0.8328369183050621  0.6114313422497513  0.13271721619747867  1.0000
  Fe  Fe125     1.0  0.9008471718245658  0.7975866945498529  0.43308792223855574  1.0000
  S   S249      1.0  0.908333216941079  0.7662781787635717  0.508765429644016  1.0000
  S   S250      1.0  0.9264834580366731  0.779275804667839  0.35714733212398064  1.0000
  Fe  Fe126     1.0  0.8573119575359873  0.8543233085290445  0.4881364112553654  1.0000
  S   S251      1.0  0.860786469583203  0.827574567589612  0.5680753141991433  1.0000
  S   S252      1.0  0.8288622241254001  0.9067475857837675  0.48549705439923047  1.0000
  Fe  Fe127     1.0  0.914684594275923  0.819584545677495  0.5490540517689264  1.0000
  S   S253      1.0  0.9569764018260597  0.8275769533271251  0.6069001231030523  1.0000
  Fe  Fe128     1.0  0.854006536586676  0.7771512808667901  0.5201638444656378  1.0000
  S   S254      1.0  0.8215315707527339  0.7342676250500298  0.5503833414166193  1.0000
  S   S255      1.0  0.912072775439524  0.85041911904964  0.47258423168385705  1.0000
  S   S256      1.0  0.8455152905234987  0.8044493793981141  0.44119512712701553  1.0000
  C   C1        1.0  0.7240232347524621  0.5619878369776076  0.3545887916838099  1.0000
  C   C2        1.0  0.7051561424907133  0.5481960654126178  0.31191188804830655  1.0000
  C   C3        1.0  0.7199545909223138  0.540240819269104  0.2625376571831515  1.0000
  C   C4        1.0  0.7539732287267783  0.5444512412153357  0.2565195342140347  1.0000
  C   C5        1.0  0.7732602064073951  0.5557138575663806  0.3003982543259971  1.0000
  C   C6        1.0  0.7582284287787533  0.5652423173580035  0.3491118860668785  1.0000
  H   H1        1.0  0.6789376782840012  0.5447619842549132  0.316010210239523  1.0000
  H   H2        1.0  0.7047421109706494  0.5325405459940415  0.2286309356861124  1.0000
  H   H3        1.0  0.7997430718058435  0.5580762762938328  0.296601657969821  1.0000
  H   H4        1.0  0.7730855342181835  0.5752910309567347  0.3822410663917459  1.0000
  C   C7        1.0  0.9426615782824136  0.5751597892509381  0.9716173198060664  1.0000
  C   C8        1.0  0.9706134868559639  0.5754929663644679  0.005452347859806084  1.0000
  C   C9        1.0  0.966902361806729  0.5799487631602144  0.06100649760099563  1.0000
  C   C10       1.0  0.9352832444567526  0.5847271390273926  0.08287521333874882  1.0000
  C   C11       1.0  0.907389462526962  0.5849642010462307  0.04900025596080404  1.0000
  C   C12       1.0  0.9109840618275363  0.5797545715685228  0.9934387534972868  1.0000
  H   H5        1.0  0.9952077626102677  0.5729370421771771  0.9889210813147851  1.0000
  H   H6        1.0  0.9886238352739961  0.5804580079399337  0.08680968323155462  1.0000
  H   H7        1.0  0.8831029801383555  0.5891257582914872  0.0655406383864533  1.0000
  H   H8        1.0  0.8892547941314854  0.5792319758600768  0.9676714960522106  1.0000
  C   C13       1.0  0.8579608389653626  0.710945520355951  0.7202825791246061  1.0000
  C   C14       1.0  0.8752795593678124  0.7342999972090997  0.6879320903427741  1.0000
  C   C15       1.0  0.863972773307985  0.7413806716273635  0.6357079560653751  1.0000
  C   C16       1.0  0.8350762682233752  0.725607956649488  0.6160261184347874  1.0000
  C   C17       1.0  0.817386466788464  0.7027121726246573  0.6487289451827327  1.0000
  C   C18       1.0  0.828840653696658  0.6954232796344597  0.7010090736432543  1.0000
  H   H9        1.0  0.8979439486239059  0.7461771513080999  0.7026705402161588  1.0000
  H   H10       1.0  0.8780329772161348  0.7587555135939067  0.6107559817279281  1.0000
  H   H11       1.0  0.7948823674832455  0.6906708980606472  0.6337912520791946  1.0000
  H   H12       1.0  0.8149275656168361  0.6781368507569745  0.7265619587447495  1.0000
  C   C19       1.0  0.4976887151264255  0.5031654596180455  0.5973805051385395  1.0000
  C   C20       1.0  0.5122229121867189  0.4699801670836567  0.6114900462469308  1.0000
  C   C21       1.0  0.5413614379672462  0.45768834765308253  0.5859551774455523  1.0000
  C   C22       1.0  0.5557223096577913  0.47864624627126534  0.5463949344232165  1.0000
  C   C23       1.0  0.5407167813812872  0.5113687997495808  0.531852367996533  1.0000
  C   C24       1.0  0.5116422714208205  0.5234203457091289  0.5569316388229583  1.0000
  H   H13       1.0  0.5012668122398641  0.4540341366984575  0.642575825505317  1.0000
  H   H14       1.0  0.552748280121435  0.43215246788869793  0.5970180230571375  1.0000
  H   H15       1.0  0.5515810518201875  0.5278091689074376  0.5015780560699322  1.0000
  H   H16       1.0  0.4997849213632984  0.548182664660237  0.5441603132795656  1.0000
  C   C25       1.0  0.6193169368254937  0.7143825319498217  0.3663540262200462  1.0000
  C   C26       1.0  0.5849487109294195  0.7212537820858639  0.36686070003748195  1.0000
  C   C27       1.0  0.5633031280490114  0.6948859996772483  0.38375448651930216  1.0000
  C   C28       1.0  0.5760412557511823  0.6617491465464383  0.40098489375183505  1.0000
  C   C29       1.0  0.6104794822468372  0.6560563759288432  0.4050740042816465  1.0000
  C   C30       1.0  0.6321194364463095  0.6823275101267867  0.38775502769231074  1.0000
  H   H17       1.0  0.5747989649414912  0.7465548618094724  0.3531031633317652  1.0000
  H   H18       1.0  0.53675080457288  0.6997398345236674  0.38174016484755097  1.0000
  H   H19       1.0  0.6206033025567788  0.631156127496941  0.42066492894204416  1.0000
  H   H20       1.0  0.6585886222073221  0.6772528597454411  0.38971668286963396  1.0000
  C   C31       1.0  0.8712190266121098  0.9695917562078533  0.3475057799344024  1.0000
  C   C32       1.0  0.878937975169927  0.9330742002384054  0.35323574294498167  1.0000
  C   C33       1.0  0.865961607936792  0.9139890497658151  0.3958737858882057  1.0000
  C   C34       1.0  0.8452648291880186  0.9313307071592533  0.43303160399017704  1.0000
  C   C35       1.0  0.8374992772842549  0.9679352953391999  0.42759676458410123  1.0000
  C   C36       1.0  0.8507484568359323  0.9871971356400971  0.3849974225391192  1.0000
  H   H21       1.0  0.8931762634717757  0.9188981672026427  0.3227011755412393  1.0000
  H   H22       1.0  0.8703736021851995  0.8853562128332856  0.39784671847669706  1.0000
  H   H23       1.0  0.8202913307832992  0.9811169079489893  0.45485766064794503  1.0000
  H   H24       1.0  0.8433108125956058  0.014974713083213631  0.37911199681779095  1.0000
  C   C37       1.0  0.6870483370200797  0.966665903254906  0.22876320634855685  1.0000
  C   C38       1.0  0.6580339597894823  0.9876789078562118  0.233907314106272  1.0000
  C   C39       1.0  0.6282114365824897  0.971766198261639  0.24746023112493976  1.0000
  C   C40       1.0  0.6273077570322791  0.934765906087651  0.2560052833234951  1.0000
  C   C41       1.0  0.6563665514438952  0.9136836786458026  0.2513882237606037  1.0000
  C   C42       1.0  0.686297120648014  0.929691972037995  0.23790953950004365  1.0000
  H   H25       1.0  0.658566448392493  0.016334122001307794  0.22741208074696595  1.0000
  H   H26       1.0  0.6057868176070553  0.9881831102901982  0.2506203268245706  1.0000
  H   H27       1.0  0.6558621273193601  0.8851591312653427  0.25860589044579047  1.0000
  H   H28       1.0  0.7086453335212631  0.9133587063547535  0.23450181724810867  1.0000
  C   C43       1.0  0.7885339845157026  0.7981702698739896  0.2764277440899174  1.0000
  C   C44       1.0  0.805654717937258  0.7662190647771343  0.28963522580565537  1.0000
  C   C45       1.0  0.8067323152182653  0.7375650094083384  0.2525909155804032  1.0000
  C   C46       1.0  0.7904524265711553  0.7409277928365976  0.2027442922140499  1.0000
  C   C47       1.0  0.7716902085727783  0.771930831829337  0.19119755356106138  1.0000
  C   C48       1.0  0.7705948372205564  0.800389685918904  0.22814483122950313  1.0000
  H   H29       1.0  0.8197438518028258  0.7644887353257059  0.3268920480977756  1.0000
  H   H30       1.0  0.8212948199591871  0.7136003903773654  0.261673470359088  1.0000
  H   H31       1.0  0.7586766194470543  0.7743865736315043  0.15302938277632827  1.0000
  H   H32       1.0  0.7559181003496807  0.8241323511726831  0.21900086440518912  1.0000
  C   C49       1.0  0.6004394384053382  0.8770030290569532  0.9869848358454507  1.0000
  C   C50       1.0  0.5861432960049233  0.8465813066663888  0.9639813384072096  1.0000
  C   C51       1.0  0.5785076376586463  0.8172189063722345  0.9962226594556682  1.0000
  C   C52       1.0  0.5843624530501914  0.8185420477124025  0.05181433084892549  1.0000
  C   C53       1.0  0.5976155904893994  0.8494520233414363  0.07506222866681776  1.0000
  C   C54       1.0  0.605905975034837  0.8784840422993464  0.042648966517744524  1.0000
  H   H33       1.0  0.5809050276618024  0.8455893065836496  0.9214029234437715  1.0000
  H   H34       1.0  0.5678742667397159  0.7936011183138804  0.9781051589838716  1.0000
  H   H35       1.0  0.6018327658788278  0.8509251896262507  0.11799240235906482  1.0000
  H   H36       1.0  0.6167905162638176  0.9019436518747311  0.060783463071518495  1.0000
  C   C55       1.0  0.5275979280085807  0.790011033330999  0.7343763200815144  1.0000
  C   C56       1.0  0.4999881815612255  0.7682525853802111  0.7287032253627115  1.0000
  C   C57       1.0  0.5039681368493177  0.7324601018705592  0.7123707616900818  1.0000
  C   C58       1.0  0.5353378063390273  0.718611220342697  0.6989652012363308  1.0000
  C   C59       1.0  0.563112580097381  0.7403286862262324  0.7044332152467488  1.0000
  C   C60       1.0  0.5592786222871027  0.7760291652983142  0.7224947061929635  1.0000
  H   H37       1.0  0.4754347324898823  0.7789427967302097  0.7371107145573439  1.0000
  H   H38       1.0  0.48269556258069557  0.7156235746839001  0.7104943873749829  1.0000
  H   H39       1.0  0.5875373707863702  0.7296799252932623  0.6944170862591975  1.0000
  H   H40       1.0  0.5807459604106147  0.7927469177812237  0.7268362776153683  1.0000
  C   C61       1.0  0.42659612780414724  0.6853724400764495  0.9003973306863823  1.0000
  C   C62       1.0  0.44372669909887974  0.6887901275490206  0.8520251071454493  1.0000
  C   C63       1.0  0.42973746135321467  0.6761240581342771  0.8036955211400828  1.0000
  C   C64       1.0  0.3984977235144026  0.6604375114898337  0.8037479494346844  1.0000
  C   C65       1.0  0.3815376847373687  0.6569247482017934  0.8520562130679822  1.0000
  C   C66       1.0  0.395724456264221  0.6689976361332319  0.9003059757320264  1.0000
  H   H41       1.0  0.46778320001120405  0.7010724472639551  0.8518112800650982  1.0000
  H   H42       1.0  0.44298004589260676  0.6787598392255916  0.7663935250241841  1.0000
  H   H43       1.0  0.35759878842374104  0.6443655899877754  0.8522475782613571  1.0000
  H   H44       1.0  0.38260978937237683  0.6655555797297151  0.9373063479379224  1.0000
  C   C67       1.0  0.26042063268545684  0.798435617509173  0.09890157307604495  1.0000
  C   C68       1.0  0.2562749748531011  0.7856730818421565  0.15111438760462975  1.0000
  C   C69       1.0  0.2815128757596553  0.7649492998764409  0.17604635876597616  1.0000
  C   C70       1.0  0.3106977885909413  0.7559999344693377  0.1484012559943414  1.0000
  C   C71       1.0  0.31475110021057545  0.7683271084119395  0.09584209595796205  1.0000
  C   C72       1.0  0.2897703361101044  0.7898544923505447  0.07136141074408542  1.0000
  H   H45       1.0  0.23368173070616957  0.7922161996109197  0.1726486722087495  1.0000
  H   H46       1.0  0.2782630494002178  0.7555746753935574  0.21666457520703666  1.0000
  H   H47       1.0  0.3375700686389086  0.7622088563133086  0.0748187285581281  1.0000
  H   H48       1.0  0.2931959796495222  0.7998090856289333  0.03130110547390341  1.0000
  C   C73       1.0  0.36012664289907875  0.7703069516738111  0.5371705648346115  1.0000
  C   C74       1.0  0.3821883090722243  0.773972220234456  0.4945755846239412  1.0000
  C   C75       1.0  0.4017568948051298  0.7443682076630281  0.4776953315289227  1.0000
  C   C76       1.0  0.4000958574116739  0.7116769243444043  0.5046143966859042  1.0000
  C   C77       1.0  0.37834262914532174  0.7082280937682801  0.5475518733759391  1.0000
  C   C78       1.0  0.35795495215079753  0.7373395667149909  0.5631790466877608  1.0000
  H   H49       1.0  0.3835177968758491  0.7993320313588571  0.47391542813455917  1.0000
  H   H50       1.0  0.4186446761759948  0.7469524775965963  0.4446901056840986  1.0000
  H   H51       1.0  0.37696561093663855  0.6829934447654806  0.5685266132543046  1.0000
  H   H52       1.0  0.34081343191732005  0.7344674355845237  0.5960391580243634  1.0000
  C   C79       1.0  0.47926524979502655  0.8226657544454806  0.3637617491747055  1.0000
  C   C80       1.0  0.4537861126347302  0.8205504264576604  0.40140366281301765  1.0000
  C   C81       1.0  0.44550886572537046  0.850337482520865  0.43402360640848947  1.0000
  C   C82       1.0  0.4625017610495267  0.8823629587359392  0.42836966564485845  1.0000
  C   C83       1.0  0.4871288962871475  0.884688587590253  0.3895951398433815  1.0000
  C   C84       1.0  0.4956289236925834  0.8549440694345543  0.3574614047531335  1.0000
  H   H53       1.0  0.44062975972511925  0.7959260042348537  0.40550167425146966  1.0000
  H   H54       1.0  0.42614681008101596  0.8484811791500667  0.4635878753817852  1.0000
  H   H55       1.0  0.49920652005575866  0.9096935668448608  0.38381010813889843  1.0000
  H   H56       1.0  0.5145924221034378  0.8572363491649581  0.3273784713082227  1.0000
  C   C85       1.0  0.37160760062082476  0.901591753999742  0.7487923145466399  1.0000
  C   C86       1.0  0.3650271935152547  0.9082698637654851  0.8030381687798833  1.0000
  C   C87       1.0  0.34905527703125916  0.8825371229282886  0.8334385006416364  1.0000
  C   C88       1.0  0.34044006037965513  0.8498225525508377  0.8097818795562718  1.0000
  C   C89       1.0  0.348109709141549  0.8425830969738538  0.756087885720381  1.0000
  C   C90       1.0  0.3634323147852538  0.8686457244972533  0.7254266715216487  1.0000
  H   H57       1.0  0.37173436225185263  0.9335125090693777  0.8211710190319841  1.0000
  H   H58       1.0  0.3434091907328448  0.8880198486110354  0.8752183525846688  1.0000
  H   H59       1.0  0.3413084210725159  0.8173437882235467  0.7376605119357041  1.0000
  H   H60       1.0  0.3686882322610827  0.8631715337553421  0.6836103976553563  1.0000
  C   C91       1.0  0.21746795461316742  0.9219093619652369  0.3927114147608955  1.0000
  C   C92       1.0  0.2118213934346356  0.9570601622697358  0.4111629155358357  1.0000
  C   C93       1.0  0.23406350204129417  0.9725076112702624  0.44778446299935065  1.0000
  C   C94       1.0  0.26202532975543835  0.9528534556523002  0.4658736313270166  1.0000
  C   C95       1.0  0.2670903533995959  0.9173572613866834  0.44867652599042596  1.0000
  C   C96       1.0  0.24499816205416367  0.9020055361894003  0.41171519365832865  1.0000
  H   H61       1.0  0.19106130424910014  0.9728683297080452  0.39562961230278315  1.0000
  H   H62       1.0  0.22980813528943192  0.9998592636233731  0.46119857951858756  1.0000
  H   H63       1.0  0.2881990681568622  0.9018078553453817  0.46328478347168156  1.0000
  H   H64       1.0  0.24931170922799842  0.8747450418334902  0.39768401927136243  1.0000
  C   C97       1.0  0.415670076642556  0.5419860098734383  0.31557870928620785  1.0000
  C   C98       1.0  0.4478100920209874  0.533029318358818  0.298148051238376  1.0000
  C   C99       1.0  0.4611875570014017  0.5507575162264968  0.25404773953652704  1.0000
  C   C100      1.0  0.44241829719778936  0.577435888955252  0.2275339937577797  1.0000
  C   C101      1.0  0.41078351077435243  0.5869253018789462  0.24621953124229465  1.0000
  C   C102      1.0  0.3973643967825255  0.5691997793825186  0.28991686897755203  1.0000
  H   H65       1.0  0.4622467108140317  0.5122929602519668  0.31860146223624963  1.0000
  H   H66       1.0  0.48607158239043197  0.5438997286971693  0.24077607020760222  1.0000
  H   H67       1.0  0.39680421412900013  0.6085514325267516  0.22824850271312133  1.0000
  H   H68       1.0  0.3731696983129185  0.5772485634915065  0.3046392994876175  1.0000
  C   C103      1.0  0.22470593080140291  0.6552411947230264  0.03034896748552106  1.0000
  C   C104      1.0  0.25121482944753215  0.6635664035690375  0.06458230964698605  1.0000
  C   C105      1.0  0.2808495460962513  0.6432318167403598  0.06259659843748479  1.0000
  C   C106      1.0  0.2841878026633957  0.6147844673062071  0.025890712986366273  1.0000
  C   C107      1.0  0.2577540510400061  0.6064265698023489  0.9915552630599145  1.0000
  C   C108      1.0  0.2278480633510402  0.6264988103363942  0.9940516573628146  1.0000
  H   H69       1.0  0.24889918779123887  0.6859098249780937  0.09258535400386379  1.0000
  H   H70       1.0  0.3011294291482899  0.6499412652119927  0.08929888184873329  1.0000
  H   H71       1.0  0.2608772724005169  0.5852153829989839  0.9619355458304241  1.0000
  H   H72       1.0  0.2076876712788997  0.6205671523760701  0.9667010819246383  1.0000
  C   C109      1.0  0.9223416419325322  0.8722035217297596  0.7685250200027034  1.0000
  C   C110      1.0  0.9518439087179031  0.8517350663473776  0.7652695170163888  1.0000
  C   C111      1.0  0.9626126509687232  0.8383284013124859  0.71536236757197  1.0000
  C   C112      1.0  0.943733820671908  0.8450944506131742  0.6688241321760612  1.0000
  C   C113      1.0  0.9146164055943662  0.8661563283357255  0.6719975177472374  1.0000
  C   C114      1.0  0.9041113485498683  0.8799958996207631  0.7217116864324137  1.0000
  H   H73       1.0  0.9663993827822858  0.8461080867797663  0.8010790750426368  1.0000
  H   H74       1.0  0.9852325669987105  0.8220862800841169  0.7130100761166592  1.0000
  H   H75       1.0  0.9002956887401049  0.8718562691064944  0.6361189052497022  1.0000
  H   H76       1.0  0.8816163799304623  0.8963020764305586  0.7240531949166681  1.0000
  C   C115      1.0  0.9968726756732366  0.9145168070971212  0.12057058169988989  1.0000
  C   C116      1.0  0.984651804822142  0.8818998505545969  0.1382813788459814  1.0000
  C   C117      1.0  0.9964652420028622  0.8670269763226303  0.18667816817553992  1.0000
  C   C118      1.0  0.020401303101623247  0.8848027746662851  0.21741028221018835  1.0000
  C   C119      1.0  0.032611336741389385  0.9173435998342427  0.1994746304957126  1.0000
  C   C120      1.0  0.02093570490185881  0.9321135432161635  0.15097947593417516  1.0000
  H   H77       1.0  0.9658568290651511  0.8683346045366294  0.1149645076416853  1.0000
  H   H78       1.0  0.9870047840990865  0.8418408125849449  0.20041941667054095  1.0000
  H   H79       1.0  0.0510325068344315  0.931187645832314  0.2227341767633416  1.0000
  H   H80       1.0  0.03080295028746516  0.9569657723595566  0.13658607173741918  1.0000
  C   C121      1.0  0.9538860043788837  0.7368933971681048  0.04953265968299217  1.0000
  C   C122      1.0  0.9860295089589369  0.739423736183329  0.02944860591312126  1.0000
  C   C123      1.0  0.01051462782384971  0.7137257474247576  0.043167858184346944  1.0000
  C   C124      1.0  0.0029146634746575195  0.685592253551548  0.07730642889988898  1.0000
  C   C125      1.0  0.9707132463287832  0.6828910978513216  0.09726494307394762  1.0000
  C   C126      1.0  0.9461111174998191  0.7084223144047942  0.0830751687260339  1.0000
  H   H81       1.0  0.9919363854829151  0.7606450553387669  0.002216299645824371  1.0000
  H   H82       1.0  0.0353002267235667  0.7158831255009899  0.027579019260282063  1.0000
  H   H83       1.0  0.9645278534101365  0.6606097292016525  0.12253550317835082  1.0000
  H   H84       1.0  0.9210918355976606  0.7059026545318228  0.09776989396257041  1.0000
  C   C127      1.0  0.13998455577578217  0.8842392233422323  0.859241997256669  1.0000
  C   C128      1.0  0.14482145166543936  0.8469731987914096  0.8583713538029978  1.0000
  C   C129      1.0  0.11823928834455777  0.8245749239247809  0.8687846882050128  1.0000
  C   C130      1.0  0.08698594456157238  0.8393648968656384  0.8816324194084962  1.0000
  C   C131      1.0  0.08210720460704724  0.8766647449784775  0.8823736081276968  1.0000
  C   C132      1.0  0.1084978834967898  0.8990882081461407  0.8704008868672432  1.0000
  H   H85       1.0  0.1689448099882611  0.8353657739509491  0.8489427835103119  1.0000
  H   H86       1.0  0.12201804722350551  0.7957146479356396  0.8677059713694842  1.0000
  H   H87       1.0  0.05819017611204336  0.888308402377376  0.8925499692612059  1.0000
  H   H88       1.0  0.10472634057972452  0.9279412432470959  0.8712024030054845  1.0000
  C   C133      1.0  0.013255559182572707  0.7041682655207683  0.40217237737678085  1.0000
  C   C134      1.0  0.016386556675068276  0.7292880924091067  0.36112747264058426  1.0000
  C   C135      1.0  0.9889805969979837  0.7506521859362968  0.34490981023337575  1.0000
  C   C136      1.0  0.9585740239871101  0.7478023335331433  0.37092050322633113  1.0000
  C   C137      1.0  0.9549685601474605  0.7215207426248216  0.410223046439023  1.0000
  C   C138      1.0  0.9822808378162656  0.6996906794766053  0.42583866233942214  1.0000
  H   H89       1.0  0.040247026386028395  0.7327591600958773  0.34244878061821116  1.0000
  H   H90       1.0  0.9918725812400886  0.7707338838014914  0.31416683219625313  1.0000
  H   H91       1.0  0.931132484167699  0.7180672698184162  0.428709801757373  1.0000
  H   H92       1.0  0.9795284526132236  0.6803750467636174  0.45737383220999794  1.0000
  C   C139      1.0  0.941875572739159  0.5538745596880507  0.4116538726278073  1.0000
  C   C140      1.0  0.94741178223649  0.5900227327577305  0.4010659511108107  1.0000
  C   C141      1.0  0.9206442684838346  0.6136982735363065  0.39065080065589397  1.0000
  C   C142      1.0  0.8882904497702208  0.6010448271059097  0.3897406785163043  1.0000
  C   C143      1.0  0.8827320297493074  0.564602925694105  0.3980396146731754  1.0000
  C   C144      1.0  0.9095686238489905  0.5409717302279854  0.40907491425502934  1.0000
  H   H93       1.0  0.9723917311433522  0.5998015069132976  0.40094034795777683  1.0000
  H   H94       1.0  0.9250031479780961  0.6417506976015207  0.38311406960113914  1.0000
  H   H95       1.0  0.8576963515424757  0.5546916398238481  0.39613188310977515  1.0000
  H   H96       1.0  0.9051741627760883  0.5129560578681536  0.4165648751227028  1.0000
  C   C145      1.0  0.014306506836282429  0.6242228386895441  0.7099174353056018  1.0000
  C   C146      1.0  0.016203867274533934  0.6110033696006111  0.7624969797218594  1.0000
  C   C147      1.0  0.03700197556067253  0.6272223812791559  0.8007723173092988  1.0000
  C   C148      1.0  0.055148117456410795  0.6571771051324057  0.7866519188857609  1.0000
  C   C149      1.0  0.052128201569847876  0.6711435171789358  0.7347027686946703  1.0000
  C   C150      1.0  0.03225057102302009  0.6542720475089754  0.6960558653955443  1.0000
  H   H97       1.0  0.0022274934297505933  0.5877139533924206  0.7732166083827817  1.0000
  H   H98       1.0  0.03910467703345133  0.6164291244679703  0.8408921732227305  1.0000
  H   H99       1.0  0.06599040391258759  0.6944867612249022  0.7238601972178765  1.0000
  H   H100      1.0  0.030653863876684895  0.6647008000790021  0.6555953464603516  1.0000
  C   C151      1.0  0.1625046256234577  0.5650652784034473  0.5112092018531688  1.0000
  C   C152      1.0  0.15822501870831984  0.5985198452707564  0.48646437145170024  1.0000
  C   C153      1.0  0.18467740400879884  0.6133654904391936  0.45832239730502994  1.0000
  C   C154      1.0  0.21499531044144823  0.5942855895350694  0.45397993771335754  1.0000
  C   C155      1.0  0.2194079505523563  0.5615863413381796  0.4804088452282614  1.0000
  C   C156      1.0  0.19330092600273874  0.5470670474726025  0.5089195005387672  1.0000
  H   H101      1.0  0.13448299225871296  0.6127077628092555  0.48837478244760335  1.0000
  H   H102      1.0  0.18114729514597538  0.6387781324823553  0.43806375430975275  1.0000
  H   H103      1.0  0.24290378314817973  0.5470788310177845  0.4783100626378484  1.0000
  H   H104      1.0  0.19682793616714478  0.5212949512062227  0.5276741643214631  1.0000
  C   C157      1.0  0.14728495295351407  0.9770869074643012  0.6188307148152091  1.0000
  C   C158      1.0  0.15808241893817443  0.9594549495678755  0.5721132953599892  1.0000
  C   C159      1.0  0.1374360877922156  0.9349231809454245  0.546199757067882  1.0000
  C   C160      1.0  0.10589396412330032  0.9286281382204142  0.5664951055220876  1.0000
  C   C161      1.0  0.09621493632458122  0.944221709953692  0.6152057845341615  1.0000
  C   C162      1.0  0.11698087150276626  0.968407821364268  0.6416450661131159  1.0000
  H   H105      1.0  0.18185017792830127  0.9655554200879148  0.554873933072104  1.0000
  H   H106      1.0  0.14572294165194677  0.9213701641578251  0.509959468699085  1.0000
  H   H107      1.0  0.0720981684947739  0.9386071905460246  0.6308926956260648  1.0000
  H   H108      1.0  0.10926277100294168  0.9808656990759946  0.678929398870094  1.0000
  C   C163      1.0  0.23809013456129752  0.09241285750046413  0.8055769786401377  1.0000
  C   C164      1.0  0.2330094828856175  0.06789471349357412  0.7636604771465934  1.0000
  C   C165      1.0  0.25515349156408107  0.06526263355251483  0.7209605052245149  1.0000
  C   C166      1.0  0.28293236609618594  0.08683420627612537  0.7199755183042764  1.0000
  C   C167      1.0  0.28893446823734553  0.11079393912458024  0.7625279942715263  1.0000
  C   C168      1.0  0.2664927837208734  0.11346887891640467  0.805633298644724  1.0000
  H   H109      1.0  0.2115446532512273  0.05131276432601162  0.7632460880377366  1.0000
  H   H110      1.0  0.25028173964212214  0.04693169729633606  0.6879575329962658  1.0000
  H   H111      1.0  0.3102234647058747  0.12789786164498373  0.7614856399363559  1.0000
  H   H112      1.0  0.2704287887545582  0.1327301062845183  0.8377283344072459  1.0000
  C   C169      1.0  0.15854601544557934  0.10536659964200679  0.3862526077309459  1.0000
  C   C170      1.0  0.1262955898795648  0.11930924400918896  0.39344659610289195  1.0000
  C   C171      1.0  0.09887084533197509  0.09759417791593683  0.3838933858269182  1.0000
  C   C172      1.0  0.10372356823487673  0.061685351418573786  0.3685325341921171  1.0000
  C   C173      1.0  0.13597413827702165  0.04731047970988356  0.3636718937707133  1.0000
  C   C174      1.0  0.1633619538792972  0.06918851692580241  0.3722737958927547  1.0000
  H   H113      1.0  0.12248137241971979  0.14727964399862792  0.4043142091425704  1.0000
  H   H114      1.0  0.07389805817132022  0.10878203467706848  0.3876597122241772  1.0000
  H   H115      1.0  0.13989568015735765  0.01964699343321974  0.35138691497977936  1.0000
  H   H116      1.0  0.18815072262059676  0.05800522969528932  0.3677930477352558  1.0000
  C   C175      1.0  0.2807784246859817  0.992412071427306  0.03684227596892923  1.0000
  C   C176      1.0  0.28400038940243166  0.02842320369906881  0.05216504392044739  1.0000
  C   C177      1.0  0.2661447516313612  0.042300638436874705  0.09632214579793034  1.0000
  C   C178      1.0  0.2444257567424399  0.020331674082181728  0.12382378689014475  1.0000
  C   C179      1.0  0.24196706013544292  0.9842438712509074  0.10924698756632396  1.0000
  C   C180      1.0  0.26096576272596816  0.9700994552776828  0.06705980203396217  1.0000
  H   H117      1.0  0.299500999982676  0.04578395524814449  0.02912060612738073  1.0000
  H   H118      1.0  0.2679418155740537  0.07033621698387837  0.10732867702571101  1.0000
  H   H119      1.0  0.22542879062714982  0.9670841111056686  0.13066867913961627  1.0000
  H   H120      1.0  0.26019083303219553  0.9418388813951362  0.057928606528878594  1.0000
  C   C181      1.0  0.3649906645204222  0.08772086275683688  0.38927092329872043  1.0000
  C   C182      1.0  0.382578856380018  0.07211300552163347  0.43230990325920465  1.0000
  C   C183      1.0  0.398761487804341  0.09383021674082581  0.4702106060683252  1.0000
  C   C184      1.0  0.39778987019096274  0.131155278481919  0.46468553669019136  1.0000
  C   C185      1.0  0.3805221988941863  0.14673932058343175  0.4212880667782782  1.0000
  C   C186      1.0  0.36401538698761327  0.12504320194042307  0.38380942217935227  1.0000
  H   H121      1.0  0.3834400863981059  0.04322059674164658  0.43666557431999903  1.0000
  H   H122      1.0  0.41261954089959163  0.08157564462452482  0.5029943450619494  1.0000
  H   H123      1.0  0.37970900686162007  0.17559624385747252  0.41674014788506203  1.0000
  H   H124      1.0  0.3510154340584762  0.1372139392184566  0.35021189696124194  1.0000
  C   C187      1.0  0.32863469974704607  0.208638800006278  0.21338935023342617  1.0000
  C   C188      1.0  0.34685131364697397  0.18545584950846283  0.2471611448709595  1.0000
  C   C189      1.0  0.3793164577845171  0.19369644565749278  0.2628277256841268  1.0000
  C   C190      1.0  0.39354560800039223  0.2251121045361735  0.24451987957811588  1.0000
  C   C191      1.0  0.3755918348537542  0.2478389387560367  0.2097798197907429  1.0000
  C   C192      1.0  0.3433131598252085  0.23936435009678725  0.19371682002318727  1.0000
  H   H125      1.0  0.3358533673476719  0.16131982097905317  0.2615696642113684  1.0000
  H   H126      1.0  0.39303557029741065  0.17609980187714158  0.28989197223995616  1.0000
  H   H127      1.0  0.38659161261513236  0.2718680087387959  0.1949214792955141  1.0000
  H   H128      1.0  0.3297229700418734  0.25667691519186775  0.16626060164975034  1.0000
  C   C193      1.0  0.05943723006155843  0.009929098716889406  0.9206089086873834  1.0000
  C   C194      1.0  0.054410096801016605  0.04567733460052037  0.9366711269641718  1.0000
  C   C195      1.0  0.047107314851343896  0.053848435831705066  0.9905558358198581  1.0000
  C   C196      1.0  0.04558323468436276  0.026361388165167865  0.028490689367256582  1.0000
  C   C197      1.0  0.05136923084032885  0.9907464448422755  0.012402530192289873  1.0000
  C   C198      1.0  0.057731495530011  0.9824841842201355  0.958386719771897  1.0000
  H   H129      1.0  0.055392481674131355  0.06690171062829298  0.9074441658801715  1.0000
  H   H130      1.0  0.04286644968780817  0.08137725642195326  0.0026493264871956246  1.0000
  H   H131      1.0  0.0499947235855005  0.9693718580963814  0.04143505626155109  1.0000
  H   H132      1.0  0.06140489230077639  0.9547678401128517  0.9460221662974299  1.0000
  C   C199      1.0  0.08299217344573839  0.25644609052181605  0.7921239506033383  1.0000
  C   C200      1.0  0.06532903831050785  0.25489009084144676  0.7434006426545072  1.0000
  C   C201      1.0  0.062423717382504185  0.2220801608208034  0.715957075263739  1.0000
  C   C202      1.0  0.07754820533586648  0.190903451645275  0.7368599292727184  1.0000
  C   C203      1.0  0.09600758184743818  0.19268549161551118  0.7847253007264631  1.0000
  C   C204      1.0  0.09855172686595948  0.22538931976509646  0.8125252653582165  1.0000
  H   H133      1.0  0.053657653802205774  0.27884438066021133  0.7270152309579786  1.0000
  H   H134      1.0  0.048147029083146275  0.22077603265025836  0.6789175551470072  1.0000
  H   H135      1.0  0.10814511910470559  0.16886760460775063  0.8006519915967755  1.0000
  H   H136      1.0  0.11241384454496539  0.22652905507031143  0.8500061600716826  1.0000
  C   C205      1.0  0.3037809220507611  0.4816083671203333  0.6610442700293914  1.0000
  C   C206      1.0  0.2982851747310552  0.5064794835389422  0.6198882060431578  1.0000
  C   C207      1.0  0.29022188869595617  0.4947614003471664  0.5677568824748381  1.0000
  C   C208      1.0  0.28843823451714473  0.4580982382056917  0.5561290720354561  1.0000
  C   C209      1.0  0.2938814568266945  0.43316686525845105  0.5973777879535929  1.0000
  C   C210      1.0  0.30141442498552895  0.44489398491193405  0.6498450878099665  1.0000
  H   H137      1.0  0.29959353574134634  0.5349245685438843  0.628582672725703  1.0000
  H   H138      1.0  0.28433138196391056  0.5142612708599147  0.5372083679704095  1.0000
  H   H139      1.0  0.2923604577276049  0.4047367556350788  0.5887901910493285  1.0000
  H   H140      1.0  0.30566571275003945  0.42549828079493984  0.681476939523484  1.0000
  C   C211      1.0  0.3641808240754605  0.3966844711047901  0.11466641857247889  1.0000
  C   C212      1.0  0.3376958940460559  0.40191857583395163  0.07833994096861363  1.0000
  C   C213      1.0  0.3439068759882687  0.4081072865350631  0.02370004520781066  1.0000
  C   C214      1.0  0.37662556148379506  0.40912498383029927  0.005386563189486049  1.0000
  C   C215      1.0  0.4030573887703148  0.4043860863937245  0.04190102908997311  1.0000
  C   C216      1.0  0.39687175684273795  0.39827907885038993  0.09644989665547252  1.0000
  H   H141      1.0  0.3123825700272851  0.40097245983685154  0.09234940904631372  1.0000
  H   H142      1.0  0.32338813865135474  0.41207948980718173  0.9958084524077282  1.0000
  H   H143      1.0  0.42835248861276715  0.4049356853614283  0.027790236467445592  1.0000
  H   H144      1.0  0.4174462899715494  0.39470823827962676  0.12432834879135103  1.0000
  C   C217      1.0  0.18663725650238436  0.44534948478487857  0.8778752620414176  1.0000
  C   C218      1.0  0.19357562388763894  0.4645266675109581  0.8313784146134059  1.0000
  C   C219      1.0  0.16892482694359967  0.4699001730080156  0.7918404378260138  1.0000
  C   C220      1.0  0.1373074681863018  0.45596444002793085  0.798655127715668  1.0000
  C   C221      1.0  0.1302743205507233  0.4376055031205184  0.845854441294723  1.0000
  C   C222      1.0  0.15474563826262444  0.4326640590488733  0.8857354799498253  1.0000
  H   H145      1.0  0.21804115256630233  0.47512684848763737  0.8257651328097768  1.0000
  H   H146      1.0  0.17482665820404475  0.48396684436565707  0.7555498103164769  1.0000
  H   H147      1.0  0.10601539685961914  0.42728177963374875  0.8520167880027295  1.0000
  H   H148      1.0  0.1492045568766469  0.41813552516503333  0.9219423648503429  1.0000
  C   C223      1.0  0.32173277580542337  0.29328698025850153  0.7597485225689816  1.0000
  C   C224      1.0  0.31803726315138636  0.25758855490953825  0.7432899104751853  1.0000
  C   C225      1.0  0.345649234206054  0.23388804067845212  0.7427034274737845  1.0000
  C   C226      1.0  0.3769500948826493  0.2460773417945261  0.7579857432975393  1.0000
  C   C227      1.0  0.380723254069087  0.2818845172573393  0.7733142447453016  1.0000
  C   C228      1.0  0.35309603861682426  0.3053809014225157  0.7748025000246334  1.0000
  H   H149      1.0  0.2937789400785306  0.24810749149849537  0.7317734004747602  1.0000
  H   H150      1.0  0.3425625146075239  0.20610809529987728  0.7313693808042071  1.0000
  H   H151      1.0  0.4051277468163404  0.29154150689855163  0.7832479497814921  1.0000
  H   H152      1.0  0.35618276313872177  0.33285372279265985  0.7872401952323117  1.0000
  C   C229      1.0  0.18590113115757134  0.40317582605633523  0.20496523070257544  1.0000
  C   C230      1.0  0.20560425155397444  0.41116635847415306  0.16086308497630725  1.0000
  C   C231      1.0  0.230752294470558  0.43626213836819294  0.16627231155552658  1.0000
  C   C232      1.0  0.23647488455507268  0.4530585808082088  0.21593358014833275  1.0000
  C   C233      1.0  0.21753899851954084  0.4442002730919743  0.260499609768038  1.0000
  C   C234      1.0  0.19214289858697275  0.4193420725573297  0.2549463623770794  1.0000
  H   H153      1.0  0.20102749924717878  0.398355411173214  0.1223399123471694  1.0000
  H   H154      1.0  0.24587748593869008  0.442453679277935  0.13202848391434857  1.0000
  H   H155      1.0  0.2222583567712577  0.456560880299346  0.29915174966309344  1.0000
  H   H156      1.0  0.1776128766501659  0.41234139599123804  0.28950885144790633  1.0000
  C   C235      1.0  0.0605677229949837  0.5090306944423731  0.14825811522229282  1.0000
  C   C236      1.0  0.05329707572873521  0.5396347078855688  0.11810075616697557  1.0000
  C   C237      1.0  0.06793409725389199  0.5441147551433189  0.06802675207770004  1.0000
  C   C238      1.0  0.08991965344442598  0.5179520566846916  0.04748336607842766  1.0000
  C   C239      1.0  0.09628966382489512  0.4865030182956764  0.07665114749402903  1.0000
  C   C240      1.0  0.08195410868257191  0.4822630676728332  0.12743322532949716  1.0000
  H   H157      1.0  0.036644140471121744  0.5602378867593208  0.13359580540296745  1.0000
  H   H158      1.0  0.062063891165965224  0.5681151548813124  0.04569100554545565  1.0000
  H   H159      1.0  0.11263336037420735  0.4656746264163822  0.06071448538747529  1.0000
  H   H160      1.0  0.08779407439041331  0.458475263407845  0.15052447013135  1.0000
  C   C241      1.0  0.08015406176548212  0.4175828394616138  0.47973459444395855  1.0000
  C   C242      1.0  0.08200126703262733  0.42425920997129635  0.5350936011714513  1.0000
  C   C243      1.0  0.06350792149594375  0.40382601828190634  0.5705791240512762  1.0000
  C   C244      1.0  0.042560005680821966  0.37735712380386927  0.5504032400888391  1.0000
  C   C245      1.0  0.04002585167092043  0.3714264105075282  0.4950195688242384  1.0000
  C   C246      1.0  0.05886536709302548  0.391443247894381  0.45978443465518665  1.0000
  H   H161      1.0  0.09739364502589654  0.445445466581933  0.5503176058778173  1.0000
  H   H162      1.0  0.06507538858292916  0.40901378530822574  0.6133238594499599  1.0000
  H   H163      1.0  0.023549725432117086  0.3514217289760415  0.4791049966145522  1.0000
  H   H164      1.0  0.056853979490390394  0.38647237942197293  0.4171242629124336  1.0000
  C   C247      1.0  0.016950831070279504  0.3000725471425163  0.2623517640633917  1.0000
  C   C248      1.0  0.04861773479969411  0.29992502544976096  0.239776248990753  1.0000
  C   C249      1.0  0.06146679677911404  0.26905072165774097  0.21441210029939384  1.0000
  C   C250      1.0  0.04262548736562177  0.23818375128670927  0.2110785775602022  1.0000
  C   C251      1.0  0.011117606277120773  0.23794352721871193  0.2344052673054662  1.0000
  C   C252      1.0  0.9982212117276643  0.26894720844206826  0.25999123727069784  1.0000
  H   H165      1.0  0.06320119442251615  0.32375194075399844  0.24082054369026473  1.0000
  H   H166      1.0  0.08582336683966574  0.2693952473077764  0.19640977874237964  1.0000
  H   H167      1.0  0.996802177719491  0.2138605500160098  0.2331910741124877  1.0000
  H   H168      1.0  0.9738196967610097  0.26878016298904717  0.27770504884437497  1.0000
  C   C253      1.0  0.7610959742555278  0.9528136151286936  0.9625844424982576  1.0000
  C   C254      1.0  0.7881719171549426  0.9343094586450517  0.9395320180967285  1.0000
  C   C255      1.0  0.8092787233083963  0.9127621100187472  0.9716840797755977  1.0000
  C   C256      1.0  0.8032057276262559  0.9100434215667366  0.026752549841472774  1.0000
  C   C257      1.0  0.7756126782308308  0.9278542319613138  0.0490587035987177  1.0000
  C   C258      1.0  0.754420754299944  0.9488841698227131  0.01698528595760518  1.0000
  H   H169      1.0  0.7926187539970931  0.936168383636501  0.8969846766249409  1.0000
  H   H170      1.0  0.8305175985064706  0.8988153878692401  0.954190215158146  1.0000
  H   H171      1.0  0.7705550355615514  0.9258731435797158  0.0912364643602037  1.0000
  H   H172      1.0  0.7334850673608275  0.9630257914350477  0.03478042254368477  1.0000
  C   C259      1.0  0.7634041382396883  0.9371166608879115  0.6951163077931581  1.0000
  C   C260      1.0  0.747374789001369  0.935590787278994  0.7447009375268626  1.0000
  C   C261      1.0  0.7254159013058434  0.908050649930425  0.7552303692630037  1.0000
  C   C262      1.0  0.7199662309149598  0.8812662635808166  0.71679221449531  1.0000
  C   C263      1.0  0.737410556879114  0.8814501838848017  0.6683199894042795  1.0000
  C   C264      1.0  0.7588555428061596  0.9096021050420039  0.6572123168421098  1.0000
  H   H173      1.0  0.7516140897151361  0.9557024791665575  0.7751100563996011  1.0000
  H   H174      1.0  0.7127917016454982  0.9075868992709502  0.793280201271552  1.0000
  H   H175      1.0  0.7334533702422915  0.8605649856281515  0.6386192308370593  1.0000
  H   H176      1.0  0.7714187889793419  0.9104025998787423  0.6189682988242159  1.0000
  C   C265      1.0  0.6502051438026794  0.988948210058478  0.5527897032745555  1.0000
  C   C266      1.0  0.6228309572782905  0.012607498515253335  0.5581002253486854  1.0000
  C   C267      1.0  0.6033050892359717  0.012232159597656445  0.6044447144689511  1.0000
  C   C268      1.0  0.6108439603066981  0.9878599015799789  0.6455274881154746  1.0000
  C   C269      1.0  0.637904503982881  0.9638289194475727  0.640071043575952  1.0000
  C   C270      1.0  0.6575232047641526  0.9643377499901352  0.5937174459568011  1.0000
  H   H177      1.0  0.6163513461375304  0.03103352330354081  0.5262806287920397  1.0000
  H   H178      1.0  0.5823152796318618  0.030773625303443186  0.6082851205655366  1.0000
  H   H179      1.0  0.644164002770398  0.9451569812203311  0.6718933336410657  1.0000
  H   H180      1.0  0.6787446004394443  0.9460838075328704  0.5901869271892911  1.0000
  C   C271      1.0  0.5339828138782592  0.31246242187363976  0.49114368613130693  1.0000
  C   C272      1.0  0.5170724261934414  0.298633695746019  0.4465507679289344  1.0000
  C   C273      1.0  0.48927887424897015  0.31712156236293537  0.4252991825779124  1.0000
  C   C274      1.0  0.4794161109927824  0.35044772431539084  0.44672734148330595  1.0000
  C   C275      1.0  0.49509709874988517  0.3632879758376853  0.49338845283877014  1.0000
  C   C276      1.0  0.5222583954709915  0.34412531535736607  0.515868890906278  1.0000
  H   H181      1.0  0.5257385808634061  0.27380406343564284  0.42819109749932205  1.0000
  H   H182      1.0  0.47594171425085824  0.3059630954876248  0.39155983967586366  1.0000
  H   H183      1.0  0.48739758425764285  0.38885284302591483  0.5107078952302613  1.0000
  H   H184      1.0  0.5351454470617806  0.35483551371157773  0.5506396785897455  1.0000
  C   C277      1.0  0.5670561235116578  0.15297113151326558  0.6332839025728844  1.0000
  C   C278      1.0  0.5898841949089346  0.16462167907950653  0.5955864505334427  1.0000
  C   C279      1.0  0.5889796750176193  0.15127153843136454  0.5428143514801841  1.0000
  C   C280      1.0  0.5645883519678718  0.12711999841326227  0.5272463754341551  1.0000
  C   C281      1.0  0.5414697902207612  0.11575870186005854  0.5646987399037974  1.0000
  C   C282      1.0  0.5430700915250058  0.12823409657439844  0.6180608758138694  1.0000
  H   H185      1.0  0.6085215611440394  0.18357444887871655  0.6072829849310624  1.0000
  H   H186      1.0  0.6068548224874004  0.16005096484330505  0.5138617084076843  1.0000
  H   H187      1.0  0.5226346103612551  0.09700043887889476  0.5527413931282311  1.0000
  H   H188      1.0  0.5251713385688656  0.11948871438976606  0.6470487427403004  1.0000
  C   C283      1.0  0.5323969050356198  0.2982677929276272  0.022456417886395564  1.0000
  C   C284      1.0  0.5211951514618328  0.28606856960168825  0.07199191985459653  1.0000
  C   C285      1.0  0.5162056899317571  0.31024262108240036  0.11493368799926354  1.0000
  C   C286      1.0  0.5233504626416194  0.34653013107671954  0.10894307657780593  1.0000
  C   C287      1.0  0.5352349823063608  0.35864993376856735  0.0597756707779158  1.0000
  C   C288      1.0  0.5392560774634643  0.3346665034454497  0.016398272124479973  1.0000
  H   H189      1.0  0.5162031970853245  0.25806853328260315  0.07741127904494945  1.0000
  H   H190      1.0  0.5073630843677545  0.30061436950606757  0.1530069248905213  1.0000
  H   H191      1.0  0.5409399893054301  0.386632425468611  0.054886353857207096  1.0000
  H   H192      1.0  0.5477842239924492  0.3444019805798043  0.9782043571512687  1.0000
  C   C289      1.0  0.45470101923645295  0.0931305104553748  0.904829671338277  1.0000
  C   C290      1.0  0.4548500154949766  0.056025925075660066  0.8952975828824703  1.0000
  C   C291      1.0  0.4576924426643799  0.0425596749714412  0.8425805519585644  1.0000
  C   C292      1.0  0.4596444731032899  0.06631517790416086  0.799543914258881  1.0000
  C   C293      1.0  0.4595997476469674  0.10334611827313989  0.8092767580120348  1.0000
  C   C294      1.0  0.45741311120078526  0.11674389886851477  0.8618900122977925  1.0000
  H   H193      1.0  0.4531088893025233  0.037767235263219234  0.9287109660394404  1.0000
  H   H194      1.0  0.4576341401283131  0.013922057980184421  0.835087094773516  1.0000
  H   H195      1.0  0.4613489902681848  0.12186344345639433  0.7762204596639511  1.0000
  H   H196      1.0  0.457340772865085  0.14544055097248365  0.8690965441988325  1.0000
  C   C295      1.0  0.5764749823262346  0.13317493356348997  0.19684027142338886  1.0000
  C   C296      1.0  0.6030325799445144  0.1260716638542756  0.16200552026822101  1.0000
  C   C297      1.0  0.633416599563594  0.11229499949647259  0.18250154968983012  1.0000
  C   C298      1.0  0.6370176602735523  0.1055222977992365  0.2376337917690582  1.0000
  C   C299      1.0  0.61009783757706  0.11173913729237439  0.27176943255706937  1.0000
  C   C300      1.0  0.5800025172424178  0.12553722048424598  0.25145538935886885  1.0000
  H   H197      1.0  0.60037921457317  0.13168604237821224  0.1195863157455463  1.0000
  H   H198      1.0  0.6542152647352217  0.10758162878491451  0.15596517112550315  1.0000
  H   H199      1.0  0.612408819833008  0.10634420952313839  0.3140958176764222  1.0000
  H   H200      1.0  0.5595661978382  0.1306330637782298  0.27824454690804407  1.0000
  C   C301      1.0  0.6461605140583506  0.11228603854176544  0.9134803241108453  1.0000
  C   C302      1.0  0.6711552551237144  0.08615760361616243  0.9064715309510573  1.0000
  C   C303      1.0  0.6984649351798262  0.09290943740216218  0.8744852444158396  1.0000
  C   C304      1.0  0.7008941664441194  0.12552867495403852  0.8478669168301207  1.0000
  C   C305      1.0  0.675903164414688  0.15211029156156242  0.854807809928469  1.0000
  C   C306      1.0  0.6485453031269475  0.14559224691004946  0.8881044661293197  1.0000
  H   H201      1.0  0.6695041292104192  0.06036535067589521  0.925804339569518  1.0000
  H   H202      1.0  0.7176060684590058  0.07249581189674115  0.870757552894323  1.0000
  H   H203      1.0  0.6776272479515069  0.17749946856792964  0.8343842990200799  1.0000
  H   H204      1.0  0.6291325622770547  0.165877723576632  0.893284039905632  1.0000
  C   C307      1.0  0.5894733995459409  0.541883314125947  0.10010203013013326  1.0000
  C   C308      1.0  0.5808111790215011  0.5586370220703176  0.14884662309552316  1.0000
  C   C309      1.0  0.587275283668817  0.5411373717385985  0.1978946085112808  1.0000
  C   C310      1.0  0.6018772085359642  0.5066513156536058  0.19800876472070322  1.0000
  C   C311      1.0  0.6108525353126388  0.4901936612816733  0.14932242328071554  1.0000
  C   C312      1.0  0.6052759789593242  0.5080464094950328  0.10059064010530284  1.0000
  H   H205      1.0  0.5684110681103189  0.5847151372945125  0.1486592007720643  1.0000
  H   H206      1.0  0.5799582142813245  0.5538141083337257  0.23539131552942075  1.0000
  H   H207      1.0  0.6216819488005527  0.4633385191526872  0.1490782834080399  1.0000
  H   H208      1.0  0.6122422867881777  0.4950082286219887  0.06323867642160948  1.0000
  C   C313      1.0  0.4941363774951092  0.4244854133838914  0.827392439145674  1.0000
  C   C314      1.0  0.4621822367311076  0.4163520351179093  0.808946674648264  1.0000
  C   C315      1.0  0.457174124808116  0.38564903538386575  0.7771741407009074  1.0000
  C   C316      1.0  0.4841199756260508  0.3629981240420503  0.7638135516662097  1.0000
  C   C317      1.0  0.5159825819568563  0.370806241744547  0.7828384912445978  1.0000
  C   C318      1.0  0.5209599674347128  0.4014919084278678  0.8146911290947185  1.0000
  H   H209      1.0  0.44123660022679173  0.4336419360295371  0.8195295153406208  1.0000
  H   H210      1.0  0.432443078574766  0.379467358455976  0.7630243061044466  1.0000
  H   H211      1.0  0.5368000100053137  0.35308763151017625  0.773354470074033  1.0000
  H   H212      1.0  0.5455108097779875  0.40715853465643403  0.8295680965756411  1.0000
  C   C319      1.0  0.6849299974790871  0.5420078975032177  0.8177103166605681  1.0000
  C   C320      1.0  0.684313398624203  0.5581058833591297  0.868616938165617  1.0000
  C   C321      1.0  0.7136618557570988  0.5700242774066157  0.8925442906219208  1.0000
  C   C322      1.0  0.7437465291852929  0.5666344606887055  0.8652180325115224  1.0000
  C   C323      1.0  0.7443587753883304  0.5517945014226004  0.8132752287802154  1.0000
  C   C324      1.0  0.7148579475142152  0.539442874368763  0.7894470962386694  1.0000
  H   H213      1.0  0.6610999117276496  0.5616555466116319  0.8895704129626764  1.0000
  H   H214      1.0  0.7129778676449152  0.5820578223671168  0.9322793756404566  1.0000
  H   H215      1.0  0.7675682735321732  0.5492825611430051  0.7919933034961782  1.0000
  H   H216      1.0  0.7154152919819904  0.5272333818835102  0.7498490136568775  1.0000
  C   C325      1.0  0.7892409666599529  0.4557318458057636  0.6511959281931151  1.0000
  C   C326      1.0  0.7853209508446992  0.4843949005373805  0.6875050158318539  1.0000
  C   C327      1.0  0.81109086047124  0.5086550152433854  0.6951050284103107  1.0000
  C   C328      1.0  0.8404069573838622  0.504453735263224  0.6657269088033438  1.0000
  C   C329      1.0  0.8441832352359507  0.47587656743786294  0.629534051168813  1.0000
  C   C330      1.0  0.8188195911326862  0.4513311029569411  0.6227724616745617  1.0000
  H   H217      1.0  0.7625272906602782  0.4877750265437481  0.709832367177174  1.0000
  H   H218      1.0  0.8081787081127626  0.5307567292484698  0.7232095919817109  1.0000
  H   H219      1.0  0.8667925735308073  0.47249876280715863  0.6070067093293258  1.0000
  H   H220      1.0  0.8223471650913656  0.42891820292995025  0.5956955025356079  1.0000
  C   C331      1.0  0.7333777452286571  0.27100005741166966  0.6735597137154978  1.0000
  C   C332      1.0  0.7072550782781748  0.2499571425041243  0.6905264976719523  1.0000
  C   C333      1.0  0.6805286374716543  0.26602510169413707  0.7183314982501264  1.0000
  C   C334      1.0  0.6801251886654714  0.3029650559029011  0.7292974776938072  1.0000
  C   C335      1.0  0.7074098941340005  0.3233040306563482  0.7158215566290768  1.0000
  C   C336      1.0  0.7338097698337304  0.3074184961883004  0.6874992784779134  1.0000
  H   H221      1.0  0.7069713397664301  0.22170655152646176  0.6802395308526387  1.0000
  H   H222      1.0  0.6599558666626819  0.24995284152570366  0.7304245359419157  1.0000
  H   H223      1.0  0.7075694735708609  0.35168300391581925  0.724862254493708  1.0000
  H   H224      1.0  0.7541156335449882  0.323731672316777  0.6753845063297281  1.0000
  C   C337      1.0  0.94369239742316  0.1239938830636731  0.3090870999285229  1.0000
  C   C338      1.0  0.9314123674206974  0.11187482001722437  0.3579394342534216  1.0000
  C   C339      1.0  0.948745499406608  0.11859131384868027  0.4060830407156225  1.0000
  C   C340      1.0  0.9785014593409285  0.13723053862639878  0.40538804969548636  1.0000
  C   C341      1.0  0.9905127887153471  0.14982718761503766  0.35666018184585235  1.0000
  C   C342      1.0  0.972951977004528  0.14348606402332886  0.3086543363058428  1.0000
  H   H225      1.0  0.9087755231558231  0.09683013766725779  0.3584897520224555  1.0000
  H   H226      1.0  0.9391655133755147  0.10893974239363646  0.4435441332675711  1.0000
  H   H227      1.0  0.013306330692591573  0.1645799943942714  0.35595593691164407  1.0000
  H   H228      1.0  0.981980152493702  0.1539657419754359  0.2714049675259177  1.0000
  C   C343      1.0  0.9609593349323764  0.038774711150559193  0.7420752571596385  1.0000
  C   C344      1.0  0.9273472469693416  0.03647762229088913  0.7288562960789419  1.0000
  C   C345      1.0  0.9034121387135552  0.037391515409297194  0.7690725059165359  1.0000
  C   C346      1.0  0.9130787938574032  0.04106433611172733  0.8228217283967036  1.0000
  C   C347      1.0  0.9469458350796578  0.04075012004844836  0.8366458361875873  1.0000
  C   C348      1.0  0.9710003224597685  0.03922362539731794  0.7961006411859215  1.0000
  H   H229      1.0  0.9197091295882336  0.035284787700009534  0.6873636067105265  1.0000
  H   H230      1.0  0.8774367679996599  0.03667828265480466  0.7582799692535093  1.0000
  H   H231      1.0  0.9545528473197443  0.043116981376342345  0.8784021813329237  1.0000
  H   H232      1.0  0.9971157700415522  0.0403167247665186  0.8066086061958627  1.0000
  C   C349      1.0  0.9207134421908366  0.2483191009516391  0.6417147890509061  1.0000
  C   C350      1.0  0.933020662787547  0.28202115428792374  0.6555193642112128  1.0000
  C   C351      1.0  0.9254373899052903  0.3119246183080371  0.6231635638171383  1.0000
  C   C352      1.0  0.9050610320552807  0.30814708836447197  0.5776083070527964  1.0000
  C   C353      1.0  0.8924590595024767  0.27456964377438225  0.5643699066967741  1.0000
  C   C354      1.0  0.9004738549550758  0.2446979559686177  0.5960899864798175  1.0000
  H   H233      1.0  0.9486761921539701  0.2849937616307899  0.6908691218308455  1.0000
  H   H234      1.0  0.9350427328532711  0.33791233179721375  0.6338708740127783  1.0000
  H   H235      1.0  0.8764583433149743  0.2715197955419859  0.529565476342498  1.0000
  H   H236      1.0  0.8900731728770079  0.219140567067855  0.5859195043833655  1.0000
  C   C355      1.0  0.8202973296951757  0.09801993076820348  0.5351012069709847  1.0000
  C   C356      1.0  0.7905274051337352  0.07982460137910508  0.5292101815001253  1.0000
  C   C357      1.0  0.7606301593834586  0.0989452561662556  0.5208569281589245  1.0000
  C   C358      1.0  0.7603631280731938  0.13636637741537405  0.5178845502024257  1.0000
  C   C359      1.0  0.7899739849329493  0.15480562367712492  0.5254916021990338  1.0000
  C   C360      1.0  0.8200689193519718  0.1355707894632967  0.5337542352312282  1.0000
  H   H237      1.0  0.7905885241523002  0.05079711691027744  0.5307294938692546  1.0000
  H   H238      1.0  0.7378041581820595  0.0845460573719341  0.51665090365863  1.0000
  H   H239      1.0  0.7897842041199432  0.18380718608893898  0.5233771640622621  1.0000
  H   H240      1.0  0.8430743438473104  0.14969846830619216  0.5378849783522959  1.0000
  C   C361      1.0  0.8598523260669101  0.24116041054196913  0.08049963235053556  1.0000
  C   C362      1.0  0.8703164047002291  0.20803522958922027  0.10145159327675037  1.0000
  C   C363      1.0  0.8933123784265109  0.18641046279699425  0.07340726905646441  1.0000
  C   C364      1.0  0.9057125822848161  0.19774697444272915  0.02421154415433045  1.0000
  C   C365      1.0  0.8933030682284497  0.22950834740642898  0.0011671181131502895  1.0000
  C   C366      1.0  0.8705784573514423  0.251405011124602  0.02960140553772428  1.0000
  H   H241      1.0  0.861731826225516  0.19973084985202894  0.1404323359269319  1.0000
  H   H242      1.0  0.9020786556426257  0.16134285929159953  0.09067996042698546  1.0000
  H   H243      1.0  0.9023789106824822  0.2379905923843204  0.9626225641135349  1.0000
  H   H244      1.0  0.8614315993645126  0.2761520165840171  0.012183798425949854  1.0000
  C   C367      1.0  0.9502931163870743  0.39947870871605506  0.9988718856967187  1.0000
  C   C368      1.0  0.9769429438204675  0.38494445954657963  0.9696175553474926  1.0000
  C   C369      1.0  0.9769634719205427  0.3876270918340549  0.9133622549442711  1.0000
  C   C370      1.0  0.9510270977392155  0.40605739769049437  0.8866553864165  1.0000
  C   C371      1.0  0.9248130214662096  0.4212501965731603  0.9161978123104045  1.0000
  C   C372      1.0  0.9241483766154435  0.41741570722547733  0.9721130438828601  1.0000
  H   H245      1.0  0.997091299168994  0.37085098756755724  0.9902064170168269  1.0000
  H   H246      1.0  0.9967735893372682  0.3749401291324336  0.890762053336321  1.0000
  H   H247      1.0  0.9050593326542613  0.4361518656265234  0.896007388970288  1.0000
  H   H248      1.0  0.9035818545103744  0.42885582273672096  0.9945366762283846  1.0000
  C   C373      1.0  0.8036458932003895  0.40424526368262065  0.27818841708203873  1.0000
  C   C374      1.0  0.7958073937324434  0.41811289109131083  0.3290922002622805  1.0000
  C   C375      1.0  0.7790266117519306  0.39708857990242197  0.36608198247593104  1.0000
  C   C376      1.0  0.7695530236352695  0.362394924092609  0.3518722296399852  1.0000
  C   C377      1.0  0.7768727004552874  0.3487855146009638  0.3006021044360313  1.0000
  C   C378      1.0  0.7943776493460142  0.3694654331218312  0.2641074639553301  1.0000
  H   H249      1.0  0.8026905606313371  0.4451450117534155  0.3399718129545282  1.0000
  H   H250      1.0  0.7728148500959003  0.40804879945069344  0.4052074856697178  1.0000
  H   H251      1.0  0.7696731895073531  0.321896740503304  0.28953327493925735  1.0000
  H   H252      1.0  0.8006335817230806  0.3583891310111558  0.22510936469058096  1.0000
  C   C379      1.0  0.6869910044386062  0.4040239928878152  0.9739446000230934  1.0000
  C   C380      1.0  0.7003514599401106  0.4291791677977165  0.9392897434326619  1.0000
  C   C381      1.0  0.7349103018167574  0.43226843365538803  0.9355694664780205  1.0000
  C   C382      1.0  0.7561290507354322  0.4100617936313464  0.9662936301562436  1.0000
  C   C383      1.0  0.7427419896164041  0.38406180903258325  0.9993661156222274  1.0000
  C   C384      1.0  0.7082365849000243  0.38114334540274036  0.00340465698951653  1.0000
  H   H253      1.0  0.6841331665844131  0.4461670032204762  0.9150974764666293  1.0000
  H   H254      1.0  0.745085117941224  0.45217684460553376  0.9093660759175874  1.0000
  H   H255      1.0  0.7589086975873012  0.36566082497411956  0.02102745420338925  1.0000
  H   H256      1.0  0.6980171801649675  0.36117519726179076  0.02943514910849565  1.0000
  N   N1        1.0  0.44498726785396  0.309494562583148  0.9099056265871343  1.0000
  C   C385      1.0  0.4585006973067052  0.28493056140354733  0.8680483849466422  1.0000
  C   C386      1.0  0.4677048899999697  0.3396255776869215  0.9181444490983225  1.0000
  C   C387      1.0  0.4417424467294021  0.2897807131311523  0.9608616708432579  1.0000
  C   C388      1.0  0.4120170647629651  0.3237278036519753  0.8926739980980705  1.0000
  H   H257      1.0  0.4418931457742702  0.2619535171806042  0.8601750677175783  1.0000
  H   H258      1.0  0.4833662548411257  0.27363623841273776  0.8798893094566828  1.0000
  H   H259      1.0  0.4615171121570176  0.2989904424994807  0.8291859563405942  1.0000
  H   H260      1.0  0.4929519300779022  0.3298257660553301  0.9302577052164372  1.0000
  H   H261      1.0  0.4704706904719296  0.35524327668763256  0.8806612163988174  1.0000
  H   H262      1.0  0.4584448912075491  0.3586255776522349  0.9497024300585877  1.0000
  H   H263      1.0  0.4319486181030265  0.30761654633861935  0.9934960225246825  1.0000
  H   H264      1.0  0.4661743243633124  0.27856327969458317  0.9748728337659548  1.0000
  H   H265      1.0  0.42468163442721024  0.26691827302267335  0.9560357956579064  1.0000
  H   H266      1.0  0.39434896684013987  0.3017398472382482  0.8849465703266604  1.0000
  H   H267      1.0  0.41370416177416286  0.33965826439635305  0.8551174195951842  1.0000
  H   H268      1.0  0.40089212433689614  0.34174168085859025  0.9239005267422159  1.0000
  N   N2        1.0  0.0006634486539593976  0.6330413493638775  0.25599185816159237  1.0000
  C   C389      1.0  0.014625467027825856  0.667679291404468  0.2402961649883747  1.0000
  C   C390      1.0  0.015612241760669221  0.6212064185334171  0.3076214179998846  1.0000
  C   C391      1.0  0.008144647991014553  0.6058967603129976  0.21392682826238263  1.0000
  C   C392      1.0  0.9642950029165697  0.6374224171240223  0.2619235923236356  1.0000
  H   H269      1.0  0.003981513412290472  0.6771066077042933  0.20123665457780754  1.0000
  H   H270      1.0  0.042020513411160865  0.6654851186468352  0.23517550770168655  1.0000
  H   H271      1.0  0.009267133367355518  0.6889226417297023  0.2707367978020924  1.0000
  H   H272      1.0  0.04316622305846329  0.6193660504758884  0.3054492634210605  1.0000
  H   H273      1.0  0.009268556360030988  0.6403128543937898  0.3407750336908099  1.0000
  H   H274      1.0  0.006651801689629311  0.5943497761301516  0.31922790629791137  1.0000
  H   H275      1.0  0.035367889199621194  0.6020651443530781  0.2082677756845044  1.0000
  H   H276      1.0  0.9974119575989271  0.6141054449365783  0.17433295693842882  1.0000
  H   H277      1.0  0.9977132109504707  0.5793834099260502  0.22361728366394654  1.0000
  H   H278      1.0  0.9527340249682521  0.6116269342615249  0.27255315751599934  1.0000
  H   H279      1.0  0.9523626723141246  0.6467710269256886  0.22375314311075994  1.0000
  H   H280      1.0  0.9577856747153012  0.6574637467951381  0.2938332589631223  1.0000
  N   N3        1.0  0.12231102410398953  0.8158392477654174  0.04248237379529189  1.0000
  C   C393      1.0  0.08984760554206406  0.8347658645635656  0.048991826396808144  1.0000
  C   C394      1.0  0.14482769219863645  0.8386803404741088  0.011987449008862507  1.0000
  C   C395      1.0  0.1174921229895165  0.781738402663374  0.01294945235197531  1.0000
  C   C396      1.0  0.13714114464098937  0.8080783950253795  0.09593312823064525  1.0000
  H   H281      1.0  0.07222831479970093  0.8184292788551195  0.07208981943351792  1.0000
  H   H282      1.0  0.07789287714508131  0.8405633872157494  0.009216013045020288  1.0000
  H   H283      1.0  0.09247761385432773  0.8608172723708577  0.07066340355190572  1.0000
  H   H284      1.0  0.1686475473030491  0.8242192488842635  0.0028712368582943792  1.0000
  H   H285      1.0  0.13344294619548625  0.8472097242752722  0.9731020150471563  1.0000
  H   H286      1.0  0.15103059203569114  0.8634238792523796  0.03492878271614964  1.0000
  H   H287      1.0  0.1413277416141947  0.7662172459938461  0.008401570686279893  1.0000
  H   H288      1.0  0.10711697744817927  0.7864957355036567  0.9718885579434033  1.0000
  H   H289      1.0  0.09989213627897575  0.7643110989130697  0.034136236549893936  1.0000
  H   H290      1.0  0.16179300618824066  0.7939993500295439  0.09218179324874017  1.0000
  H   H291      1.0  0.12094111212140124  0.7907086368813744  0.12000337279092604  1.0000
  H   H292      1.0  0.1412083370135495  0.8331572188800881  0.11947758936459031  1.0000
  N   N4        1.0  0.11582003497595084  0.10557389765125391  0.20884336871719694  1.0000
  C   C397      1.0  0.09291031147160145  0.1192446656285826  0.2507328735462466  1.0000
  C   C398      1.0  0.13902448943783297  0.07867034749966706  0.23264839276246718  1.0000
  C   C399      1.0  0.13472096520883103  0.1356675090957653  0.18732206081267824  1.0000
  C   C400      1.0  0.09668421679251904  0.08866416180683268  0.16483038247403792  1.0000
  H   H293      1.0  0.07502951655331369  0.13963750277599773  0.23442770375025707  1.0000
  H   H294      1.0  0.10665061273972531  0.13242279821595893  0.2841980132535324  1.0000
  H   H295      1.0  0.07825639407916074  0.09729238270671292  0.26816360366649716  1.0000
  H   H296      1.0  0.15436010036166348  0.09066712395902154  0.2652878286186448  1.0000
  H   H297      1.0  0.12549507984336028  0.05586340547598745  0.2500251762525529  1.0000
  H   H298      1.0  0.1563377284502816  0.06730289318399874  0.2020865776615274  1.0000
  H   H299      1.0  0.15324711460980134  0.12617259637884293  0.15714917647349072  1.0000
  H   H300      1.0  0.1483352463547507  0.14993741762945056  0.2199464539584415  1.0000
  H   H301      1.0  0.11795702356233284  0.1559258717683243  0.16755938898494274  1.0000
  H   H302      1.0  0.0813938395703584  0.06646215374648401  0.1799755256808975  1.0000
  H   H303      1.0  0.11325556570941386  0.07705710128775523  0.13331530511811224  1.0000
  H   H304      1.0  0.07958610065770233  0.1084246213120339  0.14480528150159727  1.0000
  N   N5        1.0  0.18593079487633513  0.32475573862837626  0.8332219387002024  1.0000
  C   C401      1.0  0.16138083747136922  0.33447904422202474  0.875019238743087  1.0000
  C   C402      1.0  0.21375234823770106  0.30372268449517276  0.8576087391142657  1.0000
  C   C403      1.0  0.19879999164512863  0.3578107142229756  0.809577202995634  1.0000
  C   C404      1.0  0.16986880456618847  0.30308615401928746  0.7906934885770301  1.0000
  H   H305      1.0  0.15082726566809113  0.31016312589937334  0.8934037904291434  1.0000
  H   H306      1.0  0.14006154673697613  0.3503834086481569  0.8578498290227407  1.0000
  H   H307      1.0  0.1726944522430558  0.3508463082031679  0.9077821964780641  1.0000
  H   H308      1.0  0.22673183157842636  0.319452880159908  0.8894051738147006  1.0000
  H   H309      1.0  0.2049639460429007  0.27864067177619  0.8761589016031733  1.0000
  H   H310      1.0  0.23267750254516972  0.2958429119946548  0.8270057327990535  1.0000
  H   H311      1.0  0.21135941483551623  0.37447511696873537  0.8406926525947177  1.0000
  H   H312      1.0  0.17848366159144158  0.37469116916513734  0.7914499436579552  1.0000
  H   H313      1.0  0.21737103592230445  0.351487887477162  0.7777491149398976  1.0000
  H   H314      1.0  0.14865675304658188  0.3180867975991721  0.7715529442920107  1.0000
  H   H315      1.0  0.15965350972528491  0.2780228326978959  0.8073209347886315  1.0000
  H   H316      1.0  0.18773286952466472  0.2951647308761046  0.7585739681710925  1.0000
  N   N6        1.0  0.583750637124603  0.5724803885798263  0.6669322894659259  1.0000
  C   C405      1.0  0.5978726369595019  0.5356693550733261  0.6616986249359788  1.0000
  C   C406      1.0  0.6051521855931019  0.5938674987759868  0.7029881133342518  1.0000
  C   C407      1.0  0.5501131141929202  0.5710382291178893  0.6898737259200068  1.0000
  C   C408      1.0  0.5818388625445216  0.5893370409589987  0.6132997998143046  1.0000
  H   H317      1.0  0.5821141752409844  0.5187656028199573  0.6351770604762654  1.0000
  H   H318      1.0  0.5998952598565133  0.5223756179587602  0.7015830392826247  1.0000
  H   H319      1.0  0.6231733260750583  0.5357912115918637  0.644166705356445  1.0000
  H   H320      1.0  0.6067783868867836  0.5821678473036727  0.7440742022156024  1.0000
  H   H321      1.0  0.6309532310989316  0.595033986230117  0.6876028598367411  1.0000
  H   H322      1.0  0.59535818508168  0.6219831668144179  0.7072736485900144  1.0000
  H   H323      1.0  0.5391509020757654  0.5984754898867694  0.695502475919945  1.0000
  H   H324      1.0  0.550584689405026  0.5578439047459374  0.729920509785667  1.0000
  H   H325      1.0  0.5329809280194902  0.5558158223026021  0.6632545045534493  1.0000
  H   H326      1.0  0.571301625481808  0.6171736322454628  0.6156937829936393  1.0000
  H   H327      1.0  0.5657314846839894  0.5740654805126115  0.585130300201617  1.0000
  H   H328      1.0  0.6068056689595127  0.5908342079267027  0.5948048703107178  1.0000
  N   N7        1.0  0.5564423688527819  0.9768659094826624  0.4057441592630855  1.0000
  C   C409      1.0  0.520181437998283  0.9830476942991022  0.41068699617030313  1.0000
  C   C410      1.0  0.5735926171720387  0.9935107920824445  0.45208428866409167  1.0000
  C   C411      1.0  0.5679095866060991  0.9930264833162888  0.3553549737042148  1.0000
  C   C412      1.0  0.5642914590656969  0.9379081761207141  0.4047671947619519  1.0000
  H   H329      1.0  0.5065364613238348  0.972122999026581  0.3752335290537804  1.0000
  H   H330      1.0  0.5136646415719004  0.012198594683706432  0.41367734121156363  1.0000
  H   H331      1.0  0.5103098723381545  0.9698391897963125  0.4470290453566843  1.0000
  H   H332      1.0  0.6010185160964538  0.9890749954937516  0.44966811129276807  1.0000
  H   H333      1.0  0.5686532700801903  0.023072216055256112  0.45386151203712866  1.0000
  H   H334      1.0  0.5654682263502689  0.9820677956827769  0.4908485403897174  1.0000
  H   H335      1.0  0.5950909319148173  0.9882562573310247  0.3500011739537364  1.0000
  H   H336      1.0  0.5629396036021095  0.02253551697130507  0.35475179221978254  1.0000
  H   H337      1.0  0.5554057365293255  0.9810815051774733  0.31948966657527567  1.0000
  H   H338      1.0  0.5915375716395658  0.9324581386584173  0.4017367796133716  1.0000
  H   H339      1.0  0.5527556106450905  0.9246659393930656  0.36919735942658904  1.0000
  H   H340      1.0  0.555242571599408  0.9244323106265545  0.44139383068988886  1.0000
  N   N8        1.0  0.34971896794951624  0.03341001905221819  0.8478884042265165  1.0000
  C   C413      1.0  0.3566446636757382  0.0714839888445824  0.8594773031115653  1.0000
  C   C414      1.0  0.3616171191646522  0.023896261943688435  0.7933359672850953  1.0000
  C   C415      1.0  0.3135653512128383  0.02775883227097875  0.8507678998691899  1.0000
  C   C416      1.0  0.36702094210343744  0.010574911178504731  0.8882246721938228  1.0000
  H   H341      1.0  0.3837106576829104  0.07677185062243419  0.8569828990703919  1.0000
  H   H342      1.0  0.3483774488242031  0.07957589235296059  0.9004988888051442  1.0000
  H   H343      1.0  0.3435803376481429  0.08956223426060728  0.830374832831691  1.0000
  H   H344      1.0  0.3570826911819517  0.995294111230277  0.7830899948871799  1.0000
  H   H345      1.0  0.34889544326150657  0.04063419268886892  0.7619459931371277  1.0000
  H   H346      1.0  0.3888061662299696  0.028060014890279206  0.7895019558618398  1.0000
  H   H347      1.0  0.2996900577493134  0.043920701224884784  0.8201593483796992  1.0000
  H   H348      1.0  0.3036309075342853  0.03548690185639569  0.8910219449725088  1.0000
  H   H349      1.0  0.3076005640673528  0.999082555705858  0.8438243620617576  1.0000
  H   H350      1.0  0.36150805118647417  0.9817576843857374  0.8819644787823756  1.0000
  H   H351      1.0  0.35897209543725495  0.017649080242762905  0.9298302414912288  1.0000
  H   H352      1.0  0.394410058779104  0.013458077315322114  0.8864892499517003  1.0000
  N   N9        1.0  0.1832710059446918  0.4381697828295741  0.5905521203303619  1.0000
  C   C417      1.0  0.2059008410043386  0.40632659487598755  0.5897337040959159  1.0000
  C   C418      1.0  0.1716895053469043  0.44591653996717784  0.5350695220819481  1.0000
  C   C419      1.0  0.2011699160679905  0.4693178018266531  0.6123307460511014  1.0000
  C   C420      1.0  0.15444331853265703  0.4311495540963732  0.6249616886180542  1.0000
  H   H353      1.0  0.21610393265622485  0.4002453996593661  0.6305454597576304  1.0000
  H   H354      1.0  0.22739646239878075  0.41052919433003265  0.562820614591249  1.0000
  H   H355      1.0  0.1930074305882592  0.3821336370280526  0.5745436677818412  1.0000
  H   H356      1.0  0.1543131933873425  0.4696279760464438  0.5337371093093308  1.0000
  H   H357      1.0  0.19282044868188386  0.45157557891074235  0.5080719693130089  1.0000
  H   H358      1.0  0.15821438837697177  0.42291163031717594  0.517123525711918  1.0000
  H   H359      1.0  0.18472117486425632  0.4937455191244734  0.6136903475860628  1.0000
  H   H360      1.0  0.22281432588574646  0.47558869578761426  0.5869345541077093  1.0000
  H   H361      1.0  0.21086299921241403  0.4642219047232457  0.6537676723117509  1.0000
  H   H362      1.0  0.16223677789482105  0.4253104486568764  0.6671690641886452  1.0000
  H   H363      1.0  0.14022599521262236  0.4078605515125574  0.6096990838647907  1.0000
  H   H364      1.0  0.13688387535221147  0.4547221069552387  0.6263801852549398  1.0000
  N   N10       1.0  0.4328085052831045  0.8044223871468111  0.8572425457533113  1.0000
  C   C421      1.0  0.4380807834635554  0.8356733169596375  0.8223686181387895  1.0000
  C   C422      1.0  0.4129827244851608  0.7776040615564906  0.8278087780129333  1.0000
  C   C423      1.0  0.4147739872442329  0.8161949123935041  0.906053958857492  1.0000
  C   C424      1.0  0.46534174868071093  0.7882255619180999  0.8729532149207477  1.0000
  H   H365      1.0  0.45086714017452095  0.8276912498558627  0.7845437353502399  1.0000
  H   H366      1.0  0.45372836830061886  0.8560285677083973  0.8426995630946879  1.0000
  H   H367      1.0  0.4141803164135507  0.8490790715103327  0.8107056873443944  1.0000
  H   H368      1.0  0.388716837570207  0.7892874702202087  0.813861937121696  1.0000
  H   H369      1.0  0.4262194594124657  0.7669461842295957  0.7917765240106103  1.0000
  H   H370      1.0  0.407411980395515  0.7543853137442785  0.8537460171841648  1.0000
  H   H371      1.0  0.38979684213398325  0.8278700780092846  0.8957357444426804  1.0000
  H   H372      1.0  0.4286476321291501  0.8369391845778191  0.928846910899107  1.0000
  H   H373      1.0  0.41095071774328235  0.7932805605983577  0.9336541566280625  1.0000
  H   H374      1.0  0.4623411470987624  0.7645731507460791  0.8993268234727028  1.0000
  H   H375      1.0  0.4809477432675576  0.8077917136022493  0.8951328937078304  1.0000
  H   H376      1.0  0.4797011436658347  0.7790657135236113  0.8371844858532201  1.0000
  N   N11       1.0  0.020679465824594345  0.8231467814649831  0.46373093112501734  1.0000
  C   C425      1.0  0.9991383274613177  0.7937052346267827  0.47991539484045614  1.0000
  C   C426      1.0  0.00647929143284065  0.8577092614961932  0.4832917347277354  1.0000
  C   C427      1.0  0.022876601807060748  0.8240006966250777  0.40446503051924404  1.0000
  C   C428      1.0  0.054213931068314514  0.817216357184158  0.48723896768192637  1.0000
  H   H377      1.0  0.9737922130548036  0.7968861956895201  0.4620976703093716  1.0000
  H   H378      1.0  0.9965318479448791  0.7927348077293805  0.5244069484645403  1.0000
  H   H379      1.0  0.00945318759948055  0.7672161095294687  0.4666028894580172  1.0000
  H   H380      1.0  0.021910908511496352  0.880512349796124  0.47119913191822915  1.0000
  H   H381      1.0  0.9812514897362978  0.8628807518175866  0.4663278732910173  1.0000
  H   H382      1.0  0.004754176496123863  0.8583365931095529  0.5279900608082209  1.0000
  H   H383      1.0  0.035525986876632665  0.7994527299306093  0.38828546858827645  1.0000
  H   H384      1.0  0.03728172519112105  0.8472268196009317  0.3908855103295977  1.0000
  H   H385      1.0  0.9978527354456354  0.8263699153376212  0.38503187551637647  1.0000
  H   H386      1.0  0.05365840419258694  0.8183035599451537  0.5320133655112174  1.0000
  H   H387      1.0  0.07154555656421091  0.8380684666744868  0.4740086528452925  1.0000
  H   H388      1.0  0.06508193685321739  0.7906669042495276  0.4750063445363774  1.0000
  N   N12       1.0  0.7092080661031253  0.4356573891943143  0.1982521752782289  1.0000
  C   C429      1.0  0.735650876325848  0.41516834779639356  0.16981972795036437  1.0000
  C   C430      1.0  0.6800282261053924  0.41286922583581126  0.2048608908485841  1.0000
  C   C431      1.0  0.6994520443271444  0.467624833112712  0.16649236823400693  1.0000
  C   C432      1.0  0.7217143337962906  0.4469847205362304  0.25176551745175124  1.0000
  H   H389      1.0  0.7275205841845799  0.407007647437744  0.12861848840241755  1.0000
  H   H390      1.0  0.7429430500448433  0.390313392233189  0.19192889355195425  1.0000
  H   H391      1.0  0.7584568953118351  0.4312679273694908  0.16596957096994366  1.0000
  H   H392      1.0  0.6864817948359879  0.3884341325050254  0.22863629316984357  1.0000
  H   H393      1.0  0.6596303477099127  0.4276589950850125  0.2262409525209642  1.0000
  H   H394      1.0  0.669894691990872  0.4039383873914143  0.1652079265218516  1.0000
  H   H395      1.0  0.6791368611589778  0.48335322197788044  0.18650017895640386  1.0000
  H   H396      1.0  0.6902362387220201  0.4600674480206138  0.12562474767167126  1.0000
  H   H397      1.0  0.7207714994779874  0.4857227385719562  0.16152946104219698  1.0000
  H   H398      1.0  0.7026504867613329  0.4631556651820389  0.27410298660755483  1.0000
  H   H399      1.0  0.7442334124121303  0.4636388571899989  0.24836193413061616  1.0000
  H   H400      1.0  0.7288250059292672  0.4234492545157448  0.2770677545088913  1.0000
  N   N13       1.0  0.9545949939635018  0.4520104730838318  0.5648613558869477  1.0000
  C   C433      1.0  0.9496267001765603  0.4160227664716676  0.5876019343270703  1.0000
  C   C434      1.0  0.9301555120078333  0.458605759747583  0.5210567586672278  1.0000
  C   C435      1.0  0.9885279295364245  0.4537745782031841  0.5431229853347772  1.0000
  C   C436      1.0  0.9501897761055185  0.47964454901680464  0.6074418480682936  1.0000
  H   H401      1.0  0.9675173034857962  0.41011703967911955  0.620948538779515  1.0000
  H   H402      1.0  0.953320847914497  0.3944680424510395  0.5567380449118544  1.0000
  H   H403      1.0  0.9240978643431434  0.4133981770312254  0.603620990627509  1.0000
  H   H404      1.0  0.9327069998307396  0.48587144827922757  0.5038547079247351  1.0000
  H   H405      1.0  0.9335903357679726  0.4388606866466088  0.487614158434394  1.0000
  H   H406      1.0  0.904245942416611  0.4564596316965986  0.5354847752624065  1.0000
  H   H407      1.0  0.9928389468042188  0.4801509190900413  0.5241428020730409  1.0000
  H   H408      1.0  0.9930971664982783  0.43283398452058286  0.5116940779404743  1.0000
  H   H409      1.0  0.007649512226015176  0.4498235013478548  0.5752675604455622  1.0000
  H   H410      1.0  0.9538042609544297  0.5071306170789878  0.5915999133697935  1.0000
  H   H411      1.0  0.9683202235757428  0.4754850443088711  0.6410684011840907  1.0000
  H   H412      1.0  0.9249067665360806  0.4792310385798649  0.6250240333279806  1.0000
  N   N14       1.0  0.692850935243397  0.6563398510780797  0.23385469862106717  1.0000
  C   C437      1.0  0.6994029553468158  0.6466467476152975  0.29057489682736265  1.0000
  C   C438      1.0  0.6572636837540348  0.6661505722713279  0.2268654847748417  1.0000
  C   C439      1.0  0.7014039200132384  0.6253437481489141  0.198705734517173  1.0000
  C   C440      1.0  0.713229567025156  0.68726612065691  0.21949147482982592  1.0000
  H   H413      1.0  0.7255409469786185  0.6370847659800887  0.2969050871644204  1.0000
  H   H414      1.0  0.683128420259577  0.6247168268048977  0.30383867473772797  1.0000
  H   H415      1.0  0.6947096571888337  0.6700312846486337  0.3176741756640937  1.0000
  H   H416      1.0  0.6499782095897323  0.6893763229498907  0.25304071638549913  1.0000
  H   H417      1.0  0.651388702134015  0.6738639652775262  0.18461390904207353  1.0000
  H   H418      1.0  0.6411007022977285  0.643539833154876  0.23766550215072524  1.0000
  H   H419      1.0  0.7280283458322976  0.616960209404491  0.20333860727257622  1.0000
  H   H420      1.0  0.6970689359499253  0.6317629786078205  0.15551410716933986  1.0000
  H   H421      1.0  0.6863357286333768  0.6016569780300297  0.2084490209800808  1.0000
  H   H422      1.0  0.7402120304465324  0.6811358358162831  0.22507684837264938  1.0000
  H   H423      1.0  0.7069286272109198  0.7113925007810803  0.24455675264444984  1.0000
  H   H424      1.0  0.7095235968633531  0.6949711349357836  0.17661648699359572  1.0000
  N   N15       1.0  0.08137067434307066  0.06303230366383361  0.5463005812101859  1.0000
  C   C441      1.0  0.06394117839738  0.09164333321546292  0.5154673224523073  1.0000
  C   C442      1.0  0.05683945281508773  0.04234423016392008  0.5761894270513841  1.0000
  C   C443      1.0  0.10498069570515156  0.07937909549385402  0.5846674234682785  1.0000
  C   C444      1.0  0.09968536401453565  0.038859642165591124  0.5089060621424093  1.0000
  H   H425      1.0  0.08169788232571129  0.10852474740923479  0.4936996100824952  1.0000
  H   H426      1.0  0.04910117905694422  0.10980165174173617  0.542256150126236  1.0000
  H   H427      1.0  0.04661522625946213  0.08035943501707465  0.48479237425248567  1.0000
  H   H428      1.0  0.06913184419535634  0.020332403213980443  0.599558746414042  1.0000
  H   H429      1.0  0.04285980659773303  0.05971195429322407  0.6053318990052686  1.0000
  H   H430      1.0  0.038413587795118165  0.02998564799759751  0.548462800422806  1.0000
  H   H431      1.0  0.1238750119857761  0.09520227896193045  0.5635433762629569  1.0000
  H   H432      1.0  0.11864175351682271  0.058526433203001105  0.6084714093988068  1.0000
  H   H433      1.0  0.09199434210554869  0.09776927204974628  0.613617621028189  1.0000
  H   H434      1.0  0.08268866295009913  0.026501245471651558  0.4787584856591661  1.0000
  H   H435      1.0  0.11280612152306713  0.016631256190635435  0.5307259937783186  1.0000
  H   H436      1.0  0.11870762531659662  0.053523845694639416  0.4861939458647985  1.0000
  N   N16       1.0  0.28091469844220296  0.9546381356959016  0.26930613995896896  1.0000
  C   C445      1.0  0.29995923168591426  0.9670413386421096  0.22277164715410405  1.0000
  C   C446      1.0  0.2822228569326643  0.9149905169057353  0.2710766391742244  1.0000
  C   C447      1.0  0.24595779164130857  0.967157469385612  0.2638078386351815  1.0000
  C   C448      1.0  0.2953828401374972  0.9693997098224055  0.31950110935578724  1.0000
  H   H437      1.0  0.2986261709610188  0.9968588610946001  0.21952313395676856  1.0000
  H   H438      1.0  0.29011430080321565  0.9558476177610348  0.18430821674443124  1.0000
  H   H439      1.0  0.3266370030582277  0.958769426070855  0.22617128839538544  1.0000
  H   H440      1.0  0.27177832036731137  0.9029924660368179  0.2335584376984637  1.0000
  H   H441      1.0  0.3081386850771962  0.9044284309891776  0.2762382335766741  1.0000
  H   H442      1.0  0.26736283148523154  0.9048709204524819  0.3050170655777432  1.0000
  H   H443      1.0  0.23097084578415172  0.9592680955432424  0.2987758582529184  1.0000
  H   H444      1.0  0.23389066727327232  0.9558310131082456  0.22721832030595035  1.0000
  H   H445      1.0  0.24395132588672896  0.9967776902202808  0.26108760212674414  1.0000
  H   H446      1.0  0.3215649381814281  0.9599394549153171  0.32571971551922996  1.0000
  H   H447      1.0  0.2811504231327861  0.9613181951064248  0.35530929278462087  1.0000
  H   H448      1.0  0.2954261055694541  0.9992492513270889  0.31913305566749967  1.0000
  N   N17       1.0  0.27895494394108256  0.08375513604252216  0.5059719818392603  1.0000
  C   C449      1.0  0.2681998997023177  0.05950848605864545  0.5488257072712104  1.0000
  C   C450      1.0  0.30606502924554496  0.10629161186965397  0.5265748600733567  1.0000
  C   C451      1.0  0.2505190325513793  0.10686160149363233  0.4887424037538167  1.0000
  C   C452      1.0  0.291045036018253  0.06235348641344052  0.45957926245217434  1.0000
  H   H449      1.0  0.2579017596464858  0.07478912679921312  0.5837670162343093  1.0000
  H   H450      1.0  0.28935503095886045  0.04252697536139416  0.5641273026030145  1.0000
  H   H451      1.0  0.24872040357523367  0.04107736111113458  0.5341854087690121  1.0000
  H   H452      1.0  0.3151998468897379  0.12448914917177145  0.49498497617944226  1.0000
  H   H453      1.0  0.2978230401577344  0.12301037379848223  0.5615126947155529  1.0000
  H   H454      1.0  0.32768655816499975  0.08947689770027867  0.5406132755345892  1.0000
  H   H455      1.0  0.2575647204162288  0.12548663879780175  0.4562243072179686  1.0000
  H   H456      1.0  0.2406996500856055  0.12347315750613963  0.5226894480857261  1.0000
  H   H457      1.0  0.22970396539148258  0.09058269964010979  0.47288174510177344  1.0000
  H   H458      1.0  0.2982074627385789  0.07992531819630067  0.4260004710399076  1.0000
  H   H459      1.0  0.27177677431320724  0.04407189603316719  0.44387932337184605  1.0000
  H   H460      1.0  0.3131851791018383  0.04533682324162758  0.47062181608389353  1.0000
  N   N18       1.0  0.6757063918334494  0.10914448816825306  0.6681548601358102  1.0000
  C   C453      1.0  0.6634532075870416  0.13494992367440872  0.7093198386201418  1.0000
  C   C454      1.0  0.6884793146640493  0.12903039044270126  0.621864597028334  1.0000
  C   C455      1.0  0.648286725452441  0.0860852543212638  0.6503053702883074  1.0000
  C   C456      1.0  0.7027563426072809  0.08635949902935436  0.6911321944126649  1.0000
  H   H461      1.0  0.6544530641774754  0.12094147922441967  0.7455143445608509  1.0000
  H   H462      1.0  0.6425550871024763  0.15210029548044202  0.693507826058062  1.0000
  H   H463      1.0  0.6834806446219494  0.153009878784921  0.7232419423094305  1.0000
  H   H464      1.0  0.6996827256952401  0.11046995439690965  0.5914424410994981  1.0000
  H   H465      1.0  0.6684550137984417  0.14511603968506148  0.6015020361008527  1.0000
  H   H466      1.0  0.7082901457907095  0.14780215848805778  0.6343049620323948  1.0000
  H   H467      1.0  0.6569173827155379  0.06596914464856951  0.6198604323474642  1.0000
  H   H468      1.0  0.6274579428915968  0.10206070683949742  0.6318984622480021  1.0000
  H   H469      1.0  0.6380621500786781  0.07080460079113671  0.6843668529481873  1.0000
  H   H470      1.0  0.7248381770835151  0.10238623914191436  0.7016905313062852  1.0000
  H   H471      1.0  0.711176287494749  0.06505261550207808  0.6622629661328121  1.0000
  H   H472      1.0  0.6946503001888408  0.07289077001792399  0.7283645104162906  1.0000
  N   N19       1.0  0.5539411315103115  0.40985786140438446  0.36608952744342393  1.0000
  C   C457      1.0  0.5382961218569808  0.4278603265971666  0.3190737739711799  1.0000
  C   C458      1.0  0.5381358135318624  0.42321019734688275  0.4160729204107812  1.0000
  C   C459      1.0  0.5897575974297975  0.4174244567299753  0.3679459010961621  1.0000
  C   C460      1.0  0.549540401343393  0.37075548438662487  0.36131971996999  1.0000
  H   H473      1.0  0.5494957601343017  0.41814260905781464  0.2806155879368946  1.0000
  H   H474      1.0  0.5414878770435885  0.45741672112176274  0.3209305003334155  1.0000
  H   H475      1.0  0.5111625939981405  0.4228507750360162  0.31676232509679664  1.0000
  H   H476      1.0  0.5488045203741811  0.409517772308208  0.4522435112105953  1.0000
  H   H477      1.0  0.5417185892152679  0.45237886258779736  0.42216285803571835  1.0000
  H   H478      1.0  0.5109204041857845  0.4188904662633961  0.41540509644658813  1.0000
  H   H479      1.0  0.6022007598879742  0.40489731475479646  0.40361775553955215  1.0000
  H   H480      1.0  0.5938266176272583  0.4467100670703955  0.37066882944796653  1.0000
  H   H481      1.0  0.6025537072230173  0.40749357838754924  0.3310388837514334  1.0000
  H   H482      1.0  0.5608185035617055  0.35623464902386964  0.39627742137655864  1.0000
  H   H483      1.0  0.5609432041484683  0.3596338603423656  0.3239305506537613  1.0000
  H   H484      1.0  0.522765762993343  0.36439557334155337  0.3599326546369509  1.0000
  N   N20       1.0  0.8782388860819867  0.9709558529994767  0.599062706792627  1.0000
  C   C461      1.0  0.8756685928227331  0.9647748896385051  0.6574959320708029  1.0000
  C   C462      1.0  0.9025196159899797  0.9991113374285087  0.5891747366111644  1.0000
  C   C463      1.0  0.845401967855437  0.9826201609754687  0.57753187314468  1.0000
  C   C464      1.0  0.8892729814920814  0.9374514218263756  0.5717891659346704  1.0000
  H   H485      1.0  0.8999307147990707  0.9561257083693803  0.6755180521171724  1.0000
  H   H486      1.0  0.8572348956904327  0.943828730596605  0.6659287953070477  1.0000
  H   H487      1.0  0.8669794172266575  0.9895369821599562  0.6790442472805053  1.0000
  H   H488      1.0  0.9051067652144984  0.004162553849502926  0.5453051422243137  1.0000
  H   H489      1.0  0.8942506352061413  0.024999575846126998  0.6076605017748351  1.0000
  H   H490      1.0  0.9275015163063116  0.9918390586574112  0.6058703431506302  1.0000
  H   H491      1.0  0.847006206140616  0.9905404497524786  0.534770240071609  1.0000
  H   H492      1.0  0.8351574748804871  0.006396544833709994  0.5998182928964237  1.0000
  H   H493      1.0  0.8269061833045144  0.9610001220964696  0.5802150105339762  1.0000
  H   H494      1.0  0.8907792220619168  0.9411826977803907  0.5274647284735555  1.0000
  H   H495      1.0  0.8714725913342121  0.9156109036844977  0.5784692552022583  1.0000
  H   H496      1.0  0.9141506270979671  0.9280468727994403  0.5864873892784301  1.0000
  N   N21       1.0  0.01710659137197057  0.9374191382696087  0.7439746253224042  1.0000
  C   C465      1.0  0.03926639305674162  0.967699940640818  0.7343657397721234  1.0000
  C   C466      1.0  0.006022821128154332  0.9384935912011367  0.8004311652794235  1.0000
  C   C467      1.0  0.03520099452896974  0.903059079327455  0.7336695781375817  1.0000
  C   C468      1.0  0.9878176381296206  0.9403796138149616  0.7077977360253553  1.0000
  H   H497      1.0  0.043204351192286605  0.9721894770717864  0.6909240151887118  1.0000
  H   H498      1.0  0.06401342500395835  0.963290209711514  0.7538994783031493  1.0000
  H   H499      1.0  0.028740868127661967  0.9933357596587087  0.7508318243159646  1.0000
  H   H500      1.0  0.9884337107382252  0.9166949826624788  0.8084340883574093  1.0000
  H   H501      1.0  0.027460549347058327  0.9355965906316035  0.8289254105577774  1.0000
  H   H502      1.0  0.9930363967406619  0.9643705736128387  0.8104495697509748  1.0000
  H   H503      1.0  0.04351773597984199  0.9008349682296559  0.6912362726149057  1.0000
  H   H504      1.0  0.019380468794954142  0.8797116539215103  0.7417225808133612  1.0000
  H   H505      1.0  0.057625081686054624  0.9001535979116787  0.7601563087173283  1.0000
  H   H506      1.0  0.9703547939582422  0.9182938932404863  0.7146499855055163  1.0000
  H   H507      1.0  0.9951806844676941  0.9391076452051332  0.6647909917421081  1.0000
  H   H508      1.0  0.9739588495999735  0.9661923589261137  0.7144702257007256  1.0000
  N   N22       1.0  0.45458357106212255  0.6828482019430792  0.305571080317999  1.0000
  C   C469      1.0  0.4657007435526625  0.6478536378913508  0.3279599037059093  1.0000
  C   C470      1.0  0.42537558205602966  0.6779802280154331  0.27001231195524716  1.0000
  C   C471      1.0  0.48175628696259254  0.6981287054543892  0.2742337401833717  1.0000
  C   C472      1.0  0.44543903183623906  0.7075297679491054  0.35006582603633685  1.0000
  H   H509      1.0  0.4874508291501265  0.6507820907584282  0.3556039816681393  1.0000
  H   H510      1.0  0.47330939990496296  0.6286118421372215  0.29567514586531257  1.0000
  H   H511      1.0  0.44573018273179976  0.6352875756234506  0.35149153524758825  1.0000
  H   H512      1.0  0.4047463499772269  0.6652841714355803  0.2917207054384756  1.0000
  H   H513      1.0  0.4156497680216287  0.7041233837562862  0.25405666532340704  1.0000
  H   H514      1.0  0.4317849855234887  0.66068494786165  0.23483881318885105  1.0000
  H   H515      1.0  0.4739900014259919  0.7243046817019937  0.2561062958355943  1.0000
  H   H516      1.0  0.48970405466466044  0.679728433097865  0.24105785670798316  1.0000
  H   H517      1.0  0.5039139980678023  0.7032192933548335  0.30004700807898443  1.0000
  H   H518      1.0  0.437231112862235  0.7343769815995456  0.3348248567636169  1.0000
  H   H519      1.0  0.4668439674735534  0.7117095070395635  0.37784190937211726  1.0000
  H   H520      1.0  0.4248717940640454  0.6967811132567807  0.3742214265864593  1.0000
  N   N23       1.0  0.4061142337892989  0.5299751505779527  0.7813410847302859  1.0000
  C   C473      1.0  0.38584656693792235  0.5028220780874048  0.8077412588315033  1.0000
  C   C474      1.0  0.43931942451268746  0.5142318675453746  0.7695402571645241  1.0000
  C   C475      1.0  0.40956784757512343  0.5614071976272346  0.8174491507717195  1.0000
  C   C476      1.0  0.38968971252212126  0.5414347095212165  0.7306355328774413  1.0000
  H   H521      1.0  0.3977100685557145  0.4930533239575344  0.8457776837630993  1.0000
  H   H522      1.0  0.38229224104500714  0.47906260454470023  0.7810719997497373  1.0000
  H   H523      1.0  0.36067546487614693  0.5138953547615672  0.8175574139739976  1.0000
  H   H524      1.0  0.455342970868464  0.5338476545310199  0.7494907006289679  1.0000
  H   H525      1.0  0.45240073454527135  0.5053188908712918  0.8069163606273128  1.0000
  H   H526      1.0  0.43766275097886803  0.49044473532642496  0.742322289975266  1.0000
  H   H527      1.0  0.42470981745711067  0.5824374940806798  0.7987135648042788  1.0000
  H   H528      1.0  0.4217266946909289  0.5537960518093918  0.8562519288656444  1.0000
  H   H529      1.0  0.38492190384918745  0.5741409029152226  0.8265950246890558  1.0000
  H   H530      1.0  0.364651509995357  0.5537840243619071  0.7381189796664325  1.0000
  H   H531      1.0  0.3862916059156953  0.51837826875361  0.7025381637911382  1.0000
  H   H532      1.0  0.4044099850212336  0.5617327765669551  0.7095396247480602  1.0000
  N   N24       1.0  0.8968390673376542  0.628254591627114  0.5752367602523732  1.0000
  C   C477      1.0  0.8929646999755233  0.6310073707099442  0.6341958216575805  1.0000
  C   C478      1.0  0.9118493430896647  0.5928104397602307  0.5613958531887374  1.0000
  C   C479      1.0  0.9185776542587278  0.6570227037879867  0.5569817261733497  1.0000
  C   C480      1.0  0.8639825664127192  0.6321765251639458  0.5485444832529838  1.0000
  H   H533      1.0  0.9172799102228542  0.6271996413711853  0.6555349421855962  1.0000
  H   H534      1.0  0.8760597273219691  0.6103100257794178  0.6494209470633318  1.0000
  H   H535      1.0  0.8825645293459753  0.6576973849125203  0.6463586167917234  1.0000
  H   H536      1.0  0.9154598740598671  0.5897863279971955  0.5172216022370032  1.0000
  H   H537      1.0  0.936488466201116  0.5888006548446955  0.581520102995049  1.0000
  H   H538      1.0  0.8959087061674446  0.5706298925426824  0.5747206466927584  1.0000
  H   H539      1.0  0.9225064633422333  0.6555073558318629  0.512721577715686  1.0000
  H   H540      1.0  0.9433748111607447  0.6552186741913356  0.5772654016653291  1.0000
  H   H541      1.0  0.907629290760284  0.6840943220681504  0.5663230756279427  1.0000
  H   H542      1.0  0.8469020277521941  0.6109891019367585  0.5617145602914511  1.0000
  H   H543      1.0  0.866120725342546  0.6301389401624142  0.5039335769884763  1.0000
  H   H544      1.0  0.8519783885133422  0.6586586423629681  0.5581096464304645  1.0000
  N   N25       1.0  0.40065378715193994  0.4662807257148044  0.5152911629371467  1.0000
  C   C481      1.0  0.401470946849826  0.447157825903449  0.5671688509444938  1.0000
  C   C482      1.0  0.4345218969457161  0.46691617797115775  0.49301549343062206  1.0000
  C   C483      1.0  0.38812753248928616  0.5034815244650477  0.5239539295355423  1.0000
  C   C484      1.0  0.37854745808292595  0.4475780402715598  0.4770142499205705  1.0000
  H   H545      1.0  0.4107730120284578  0.41897874820272935  0.5621021521445237  1.0000
  H   H546      1.0  0.3762655740949724  0.44643799862308714  0.5851764130619873  1.0000
  H   H547      1.0  0.418139377208619  0.4605071002054992  0.5968273942616678  1.0000
  H   H548      1.0  0.43467908636674313  0.48077402133980635  0.4535090921859811  1.0000
  H   H549      1.0  0.45175544599924844  0.4812818211825038  0.520381742299775  1.0000
  H   H550      1.0  0.44489533411920906  0.4393151055863371  0.48646830717020767  1.0000
  H   H551      1.0  0.38764954975498456  0.5188660166722746  0.4857386043703835  1.0000
  H   H552      1.0  0.40416762077688473  0.5182138463850872  0.5529739545620888  1.0000
  H   H553      1.0  0.362448310117138  0.5040472118338188  0.5401442136348417  1.0000
  H   H554      1.0  0.35273664731106374  0.4464109892946578  0.4923987231033809  1.0000
  H   H555      1.0  0.387595898210963  0.4195765471818042  0.4689723965241456  1.0000
  H   H556      1.0  0.37731154175815773  0.461436330927181  0.43755010842738634  1.0000
  N   N26       1.0  0.4885330844356157  0.9528439523136041  0.6520403211882915  1.0000
  C   C485      1.0  0.494715622921084  0.9621263834884574  0.7091125303662622  1.0000
  C   C486      1.0  0.47708869899794565  0.9155377176740772  0.648044123569087  1.0000
  C   C487      1.0  0.5195718872198731  0.9561244628147553  0.6214580922781869  1.0000
  C   C488      1.0  0.4627805633552501  0.9775971827336931  0.6295749738776392  1.0000
  H   H557      1.0  0.47143154605305065  0.9613994129890777  0.7328860020486759  1.0000
  H   H558      1.0  0.5046226158960135  0.9896170106014701  0.7133711816459102  1.0000
  H   H559      1.0  0.5132237060873507  0.9432961768894473  0.7278141528169477  1.0000
  H   H560      1.0  0.4536435050832794  0.9121998954586815  0.6706018166896528  1.0000
  H   H561      1.0  0.4722314118651602  0.9076463636595133  0.605422616503976  1.0000
  H   H562      1.0  0.49582908681208276  0.8961498783839486  0.6651054388876735  1.0000
  H   H563      1.0  0.515818510788073  0.9489548656389749  0.5783083696910529  1.0000
  H   H564      1.0  0.539725686289706  0.9382573257352681  0.6380138041622585  1.0000
  H   H565      1.0  0.5287846694908446  0.9840404863326978  0.6235168691937373  1.0000
  H   H566      1.0  0.4573053859043077  0.971301315444996  0.5865630853145074  1.0000
  H   H567      1.0  0.4705749785818548  0.0060220535134951625  0.632264211796988  1.0000
  H   H568      1.0  0.43906831668285623  0.9760485537784371  0.6520536457626682  1.0000
  N   N27       1.0  0.8287879216889368  0.18387599312791525  0.7141272966989286  1.0000
  C   C489      1.0  0.8356604041095802  0.22212850740633705  0.7242978395120074  1.0000
  C   C490      1.0  0.7942614695410767  0.17652775385118424  0.7294661164279025  1.0000
  C   C491      1.0  0.852107357185512  0.16124343900756566  0.7462347690221719  1.0000
  C   C492      1.0  0.8331766388880052  0.1756058751547238  0.6563656515706301  1.0000
  H   H569      1.0  0.8614490105361904  0.22864394667678636  0.71275700500231  1.0000
  H   H570      1.0  0.832576999850556  0.22929544576782745  0.7675123305409911  1.0000
  H   H571      1.0  0.8185778788587803  0.23998256975550544  0.7006030022941013  1.0000
  H   H572      1.0  0.7882227913859903  0.1478908128706522  0.7223293252927677  1.0000
  H   H573      1.0  0.7898811271479861  0.18238295454733366  0.772858370461983  1.0000
  H   H574      1.0  0.7760305385114528  0.19318365514808522  0.7059238772476957  1.0000
  H   H575      1.0  0.8484169985245501  0.13220488483099335  0.7381724272100301  1.0000
  H   H576      1.0  0.8487648535537637  0.1658971617404148  0.7901793129159322  1.0000
  H   H577      1.0  0.8783679248109652  0.16695785325518078  0.7365401424794844  1.0000
  H   H578      1.0  0.8278400222450489  0.1470143464155591  0.6471535737580321  1.0000
  H   H579      1.0  0.8590465143189852  0.1804448110438304  0.6435349022042766  1.0000
  H   H580      1.0  0.816190158694211  0.1925282707384548  0.6308526317792456  1.0000
  N   N28       1.0  0.27159691454726886  0.3256107150384251  0.22669430232420937  1.0000
  C   C493      1.0  0.2853609455113645  0.29798955130056637  0.26361514230326266  1.0000
  C   C494      1.0  0.287829154954994  0.3219033434425882  0.1738143690779134  1.0000
  C   C495      1.0  0.27781127716012927  0.3616686761391963  0.2493071366112543  1.0000
  C   C496      1.0  0.23544732138596428  0.32079676760378995  0.21986695576573953  1.0000
  H   H581      1.0  0.2739088385618718  0.3002392982202613  0.3040713066412729  1.0000
  H   H582      1.0  0.31274208717572194  0.3003253043780676  0.26884438397294175  1.0000
  H   H583      1.0  0.2807728354743568  0.2704315784594227  0.24803703286409964  1.0000
  H   H584      1.0  0.27899177472490655  0.34322979843725143  0.14561615815959789  1.0000
  H   H585      1.0  0.31529038266513704  0.32419397902057434  0.17765577357227666  1.0000
  H   H586      1.0  0.28260730482122176  0.2954740771108355  0.15473369167342865  1.0000
  H   H587      1.0  0.2648997470018744  0.3661110330131401  0.2882404495407815  1.0000
  H   H588      1.0  0.26901609602614235  0.3831291854616019  0.221443328886521  1.0000
  H   H589      1.0  0.3048246182975284  0.3657044005645349  0.2564051236137081  1.0000
  H   H590      1.0  0.22192373945926988  0.3253857053327125  0.25824841142770155  1.0000
  H   H591      1.0  0.2298495153595735  0.2932138975917087  0.2053844555036135  1.0000
  H   H592      1.0  0.22454986024125545  0.3398298979947958  0.18994144931054194  1.0000
  N   N29       1.0  0.564806433956526  0.0765977553474051  0.8067611151866357  1.0000
  C   C497      1.0  0.5467277754655498  0.07019720622930126  0.7556388892030858  1.0000
  C   C498      1.0  0.5754420022903615  0.11422345822893787  0.8087114616293798  1.0000
  C   C499      1.0  0.5941901737495019  0.052109260057261464  0.810213035122982  1.0000
  C   C500      1.0  0.5427934911655116  0.06998810048588067  0.8526171578352091  1.0000
  H   H593      1.0  0.5377838198108492  0.042237742032317005  0.7528878308935939  1.0000
  H   H594      1.0  0.5627616438283598  0.07462291412915789  0.720233328502791  1.0000
  H   H595      1.0  0.5246334879381983  0.08859096455366244  0.7515032844567909  1.0000
  H   H596      1.0  0.5935746957876873  0.11969457752628387  0.7766348949341828  1.0000
  H   H597      1.0  0.553971255075017  0.1333425835591444  0.8031407478098707  1.0000
  H   H598      1.0  0.587187148041641  0.12083718756721562  0.847951444581216  1.0000
  H   H599      1.0  0.6089111745818805  0.05701575012897764  0.8476235496241006  1.0000
  H   H600      1.0  0.6109135836538867  0.0553672647641148  0.7754135633339334  1.0000
  H   H601      1.0  0.5867906355413778  0.02352084339356275  0.8103998374405238  1.0000
  H   H602      1.0  0.5562598787567917  0.07237405369882288  0.8917468213844205  1.0000
  H   H603      1.0  0.5322535600073699  0.04270203007089357  0.8504385099723096  1.0000
  H   H604      1.0  0.5218166827025855  0.0898086945382568  0.8537235552151504  1.0000
  N   N30       1.0  0.6369092318014241  0.2952708383385683  0.9186869632821578  1.0000
  C   C501      1.0  0.6545826090625594  0.2612600978107103  0.9323635943560608  1.0000
  C   C502      1.0  0.6214579034937209  0.31077144126543305  0.9675649733029542  1.0000
  C   C503      1.0  0.61086414251452  0.28818787511818283  0.8778991877096268  1.0000
  C   C504      1.0  0.6606595300271488  0.3208983313140704  0.8968961925418796  1.0000
  H   H605      1.0  0.6372306929284263  0.24136810777876017  0.9488365787800355  1.0000
  H   H606      1.0  0.6743569172493231  0.26562152392591737  0.9631912170217143  1.0000
  H   H607      1.0  0.6665419340986898  0.24881736944130534  0.8963296040893737  1.0000
  H   H608      1.0  0.6042074717782032  0.29175790501900073  0.9862461723311473  1.0000
  H   H609      1.0  0.6404259152312609  0.3179527469645088  0.998426447035081  1.0000
  H   H610      1.0  0.6069279833730344  0.33578202753404857  0.9582313026825326  1.0000
  H   H611      1.0  0.6216768641162431  0.27644828209119493  0.8404794102598904  1.0000
  H   H612      1.0  0.5970926378544759  0.313310027220308  0.8664260954284524  1.0000
  H   H613      1.0  0.5923235830499878  0.2691543606228999  0.8930382828103584  1.0000
  H   H614      1.0  0.6479265701825534  0.3466853938848337  0.8855739736480783  1.0000
  H   H615      1.0  0.6730567396162755  0.3099965938801254  0.8602328296310598  1.0000
  H   H616      1.0  0.6803304941292215  0.327440012292911  0.926899982011826  1.0000
  N   N31       1.0  0.4261506320064763  0.26981298885881505  0.5985723835386705  1.0000
  C   C505      1.0  0.402344876039676  0.29013658753807015  0.6327975486936359  1.0000
  C   C506      1.0  0.408365197479022  0.2538768041356811  0.5522218166965399  1.0000
  C   C507      1.0  0.4421344669733285  0.24086472726904767  0.6305930639660976  1.0000
  C   C508      1.0  0.4517294474394625  0.29415827361245905  0.5789448069653818  1.0000
  H   H617      1.0  0.4150231165452893  0.3018822489514213  0.6687150105427179  1.0000
  H   H618      1.0  0.3826962801264034  0.2724963672503181  0.6481795027022421  1.0000
  H   H619      1.0  0.38989457105274394  0.31251106013179675  0.6104924296623258  1.0000
  H   H620      1.0  0.38914362487857385  0.23500128234354914  0.5656368148897831  1.0000
  H   H621      1.0  0.39576522738485914  0.2748444703864999  0.5271755802504335  1.0000
  H   H622      1.0  0.4256772538877421  0.23818161931894483  0.5258658591962899  1.0000
  H   H623      1.0  0.4606653855073649  0.2250335781878492  0.6067418237824085  1.0000
  H   H624      1.0  0.42348489913582593  0.22182395459242724  0.6450037691976417  1.0000
  H   H625      1.0  0.45490799805617527  0.2516938081616495  0.667081706414632  1.0000
  H   H626      1.0  0.44058978472247423  0.31617434755882756  0.5541755267648025  1.0000
  H   H627      1.0  0.47044699511918014  0.2795610091696669  0.5537660719645241  1.0000
  H   H628      1.0  0.46540385317829713  0.30683340586109054  0.6130041610489897  1.0000
  N   N32       1.0  0.14156764594670035  0.5482782694584576  0.3284322149623604  1.0000
  C   C509      1.0  0.1068853689922773  0.5484617009683258  0.30817141805781734  1.0000
  C   C510      1.0  0.14408076586048169  0.5274096108643266  0.3787637016633828  1.0000
  C   C511      1.0  0.15150460966818247  0.5855778856407081  0.3391733916917583  1.0000
  C   C512      1.0  0.16391359624652302  0.5319369356196086  0.2876800680374083  1.0000
  H   H629      1.0  0.10420329541119044  0.5627152063733218  0.269130492928842  1.0000
  H   H630      1.0  0.0896370494780343  0.5616497580821577  0.3372950716745402  1.0000
  H   H631      1.0  0.09791698081998623  0.5208327166578042  0.3015390765344435  1.0000
  H   H632      1.0  0.12721927007783718  0.5385858308679339  0.4103102999012018  1.0000
  H   H633      1.0  0.13720603505513007  0.49893572393008934  0.37216597494312903  1.0000
  H   H634      1.0  0.16975781837332748  0.5272966990109091  0.39579870048945814  1.0000
  H   H635      1.0  0.17786454135074203  0.5865362461079933  0.35306191557378314  1.0000
  H   H636      1.0  0.13586759236074553  0.5984927380421334  0.3709498301268325  1.0000
  H   H637      1.0  0.1491451164077089  0.6023553110510923  0.3024461588492989  1.0000
  H   H638      1.0  0.16213802772717711  0.5465217778229704  0.24884886554222344  1.0000
  H   H639      1.0  0.15789297725506457  0.5034952152973883  0.27937108137816963  1.0000
  H   H640      1.0  0.1903278618338462  0.5321520093672549  0.30133501609334734  1.0000
  N   N33       1.0  0.022635058529498098  0.490790475229875  0.915875788797261  1.0000
  C   C513      1.0  0.0347525769093342  0.5278333451638987  0.9168753476197076  1.0000
  C   C514      1.0  0.049756077556525335  0.46566606591647497  0.9324080799461588  1.0000
  C   C515      1.0  0.011397713944941268  0.48189047753469777  0.8607272033392571  1.0000
  C   C516      1.0  0.9946920077359354  0.4878151976429253  0.9535445143518151  1.0000
  H   H641      1.0  0.015492796741643167  0.5473070674147275  0.9019227111515431  1.0000
  H   H642      1.0  0.05714567662417336  0.5305145620565399  0.8915271516895347  1.0000
  H   H643      1.0  0.04166879478163277  0.5361689378887718  0.9583829207986994  1.0000
  H   H644      1.0  0.07196140637049808  0.4683272069926746  0.9066347408140608  1.0000
  H   H645      1.0  0.05786460068543686  0.47095413976636386  0.9745704721186632  1.0000
  H   H646      1.0  0.04180836565360413  0.43730866349428493  0.9302577343270019  1.0000
  H   H647      1.0  0.03188957606763787  0.4839975780307073  0.8312928901329014  1.0000
  H   H648      1.0  0.9905700663568303  0.500128456451977  0.847410074765381  1.0000
  H   H649      1.0  0.002209600774308873  0.45414294486834944  0.8583741229233267  1.0000
  H   H650      1.0  0.972908874225489  0.504568203091851  0.940673074823978  1.0000
  H   H651      1.0  0.0017782565157327124  0.49647127051885703  0.9950016228746175  1.0000
  H   H652      1.0  0.9861888543593819  0.4598152022576061  0.955835679061227  1.0000
  N   N34       1.0  0.7069984727026914  0.8569495893295761  0.9274226213019721  1.0000
  C   C517      1.0  0.6998789717739615  0.8953332737739681  0.9169542998689547  1.0000
  C   C518      1.0  0.6790287621465856  0.8417647841036235  0.9569496758515014  1.0000
  C   C519      1.0  0.7377732472981628  0.8531818958544307  0.9600500561342111  1.0000
  C   C520      1.0  0.7111958927095502  0.837688235137127  0.8756023606138833  1.0000
  H   H653      1.0  0.7201391538427396  0.9076540017592375  0.8939256997999522  1.0000
  H   H654      1.0  0.6967813754921928  0.9109984611988595  0.9549568903669589  1.0000
  H   H655      1.0  0.6765716395270064  0.8992440694028409  0.8932823426352935  1.0000
  H   H656      1.0  0.6837510053919872  0.8130335333593806  0.9668837870199591  1.0000
  H   H657      1.0  0.6743253884015674  0.8565885560350547  0.9953391201975199  1.0000
  H   H658      1.0  0.6556260100994652  0.8434597784789948  0.9327814208801255  1.0000
  H   H659      1.0  0.7437009297746991  0.8246197839290325  0.9697179428205581  1.0000
  H   H660      1.0  0.7356231587074469  0.8681441826085837  0.9989149117222812  1.0000
  H   H661      1.0  0.7594247248909192  0.8639786988185127  0.9386457761472813  1.0000
  H   H662      1.0  0.7166813572068222  0.808600207442548  0.8816984042935925  1.0000
  H   H663      1.0  0.731659512076728  0.8489430298830476  0.8517471298247723  1.0000
  H   H664      1.0  0.6882986518968698  0.8400231987362736  0.8501710279512494  1.0000
  N   N35       1.0  0.8922752034419452  0.7926003626723072  0.18797662596036566  1.0000
  C   C521      1.0  0.9256880269936529  0.7763635935816646  0.19723511619080467  1.0000
  C   C522      1.0  0.895012092751884  0.8249198432467157  0.1543565990175052  1.0000
  C   C523      1.0  0.8774454407838286  0.8026452964631167  0.2402645460191612  1.0000
  C   C524      1.0  0.8709026346172041  0.7664699493452057  0.16015002997675867  1.0000
  H   H665      1.0  0.9378816378609934  0.7690442259738018  0.1585296006823468  1.0000
  H   H666      1.0  0.924450864488742  0.75166217752466  0.22192254269117562  1.0000
  H   H667      1.0  0.9421119797227062  0.7952301297424899  0.2192413377179371  1.0000
  H   H668      1.0  0.8701245355896495  0.8370042226666142  0.1446585374202658  1.0000
  H   H669      1.0  0.9100646825042763  0.845768223309669  0.17472679008416986  1.0000
  H   H670      1.0  0.9069915165218602  0.8184519622287981  0.1152278676614084  1.0000
  H   H671      1.0  0.8520163297647783  0.8144721479971483  0.23500119459409563  1.0000
  H   H672      1.0  0.8926508334557348  0.8225986793571375  0.2624162934812286  1.0000
  H   H673      1.0  0.8755136863596995  0.7789507257899053  0.2669058337871797  1.0000
  H   H674      1.0  0.8455285177157869  0.7779827606108026  0.1524250971527792  1.0000
  H   H675      1.0  0.8681388960534999  0.7417282681372719  0.1842170948156127  1.0000
  H   H676      1.0  0.8811882494285865  0.7582966449002291  0.12045815076622153  1.0000
  N   N36       1.0  0.4297051357663175  0.13091335787716396  0.14910641379146117  1.0000
  C   C525      1.0  0.4527245849258841  0.1504615701375216  0.18480371704881254  1.0000
  C   C526      1.0  0.4491035462119302  0.10749334824251844  0.11213393376180723  1.0000
  C   C527      1.0  0.40934174970293463  0.15697423772773655  0.11763193661765228  1.0000
  C   C528      1.0  0.4077521164245146  0.10876080652571396  0.18180466851336521  1.0000
  H   H677      1.0  0.46992787536077324  0.13181142557905434  0.20687026163219424  1.0000
  H   H678      1.0  0.43914017669476374  0.16701192525072983  0.2150273912618033  1.0000
  H   H679      1.0  0.4683646739775134  0.1690164237570031  0.16169160540692024  1.0000
  H   H680      1.0  0.4327058536561337  0.09274600095563357  0.0836855094459981  1.0000
  H   H681      1.0  0.4662091341319654  0.12332522260242396  0.08739848902706834  1.0000
  H   H682      1.0  0.4647202571811945  0.08740182597677215  0.13438962133467708  1.0000
  H   H683      1.0  0.3916655358411602  0.1431753758418579  0.09016867445648523  1.0000
  H   H684      1.0  0.42515804869315305  0.17395774485529203  0.09223853277250842  1.0000
  H   H685      1.0  0.3945880375411585  0.17530083092133042  0.14437840278087657  1.0000
  H   H686      1.0  0.3902708005713954  0.09340855202746479  0.15597714820693145  1.0000
  H   H687      1.0  0.3924388626877413  0.12561398431143744  0.20973064043406958  1.0000
  H   H688      1.0  0.4223161549932865  0.08912771699160671  0.2066444698016028  1.0000
  N   N37       1.0  0.11845672830816878  0.570193633348526  0.7111703652226447  1.0000
  C   C529      1.0  0.12397971129310248  0.6083174771538284  0.699048423814299  1.0000
  C   C530      1.0  0.08816480173396135  0.5582920655297265  0.682801020717463  1.0000
  C   C531      1.0  0.11439103018465135  0.5658609979981701  0.7697967265471107  1.0000
  C   C532      1.0  0.14730468738718705  0.5482711759370353  0.6928328648881813  1.0000
  H   H689      1.0  0.14681583557342504  0.6181400722120912  0.7193428267110109  1.0000
  H   H690      1.0  0.1029367340815448  0.6256641078771844  0.7129879663421317  1.0000
  H   H691      1.0  0.12646754673485527  0.6126373450729481  0.6549781451778757  1.0000
  H   H692      1.0  0.08304252207765916  0.5296852971100433  0.6913823853877173  1.0000
  H   H693      1.0  0.06593315318584692  0.5745191005074195  0.6950039622737535  1.0000
  H   H694      1.0  0.09054290658411857  0.5608099683796086  0.6384901137016163  1.0000
  H   H695      1.0  0.11049578367449797  0.537296937438159  0.7803054785432517  1.0000
  H   H696      1.0  0.09265335863866375  0.5818860059930174  0.7847246726137991  1.0000
  H   H697      1.0  0.13659325824286883  0.5749822627100986  0.7926380050047206  1.0000
  H   H698      1.0  0.152640736031197  0.5532359501256905  0.6497625397710365  1.0000
  H   H699      1.0  0.14258839534649703  0.5191652275464093  0.6967092755750431  1.0000
  H   H700      1.0  0.1701373182522452  0.5544110335940796  0.7164105503036341  1.0000
  N   N38       1.0  0.8949764145008636  0.9830720042236567  0.010255705721567088  1.0000
  C   C533      1.0  0.8625457504595231  0.9993824651033009  0.9942261451096865  1.0000
  C   C534      1.0  0.9143906988259582  0.9737145438666185  0.9617107880635712  1.0000
  C   C535      1.0  0.8893004896770333  0.9502568872703463  0.04137233763436775  1.0000
  C   C536      1.0  0.9136304956581011  0.008805442416632614  0.04372766265140574  1.0000
  H   H701      1.0  0.8656814642543884  0.02530705179129522  0.9733251082096908  1.0000
  H   H702      1.0  0.8465159579555934  0.004858437627364376  0.029685857549158  1.0000
  H   H703      1.0  0.8486999986725619  0.981476699031352  0.9663255131886693  1.0000
  H   H704      1.0  0.9389167201413732  0.9611372760574056  0.9725353559084841  1.0000
  H   H705      1.0  0.9010740434683486  0.9544972586833265  0.9351305726113023  1.0000
  H   H706      1.0  0.9192949598809529  0.9979182455093935  0.9374596114238525  1.0000
  H   H707      1.0  0.8764195941399708  0.9299066815336435  0.01641532625637088  1.0000
  H   H708      1.0  0.8737267594405504  0.9558570546501666  0.07731565442738791  1.0000
  H   H709      1.0  0.9130084826040051  0.9376555415669974  0.055779166522141106  1.0000
  H   H710      1.0  0.9383669385981434  0.9973274097311475  0.05607621352341397  1.0000
  H   H711      1.0  0.8999137561843962  0.016257752768050082  0.08094959382638356  1.0000
  H   H712      1.0  0.9182293396940933  0.03392610481188085  0.02129534642768102  1.0000
  N   N39       1.0  0.7800971367918046  0.07145392842423037  0.275861109321341  1.0000
  C   C537      1.0  0.7679329300140089  0.07053241626961237  0.21954167599229613  1.0000
  C   C538      1.0  0.7698034533566938  0.10587232382460798  0.30135769538046264  1.0000
  C   C539      1.0  0.8167600595908673  0.06772398790928968  0.27682283370421357  1.0000
  C   C540      1.0  0.7657326820070596  0.04153556049520235  0.3056742773382779  1.0000
  H   H713      1.0  0.777866524751843  0.09293980408895375  0.19576420366558356  1.0000
  H   H714      1.0  0.7402710499013593  0.07261248146645749  0.21750583698023873  1.0000
  H   H715      1.0  0.775270541758428  0.044850077240621955  0.1991982996234456  1.0000
  H   H716      1.0  0.7782529030356903  0.10727022612554293  0.3441209899809867  1.0000
  H   H717      1.0  0.7802356967866028  0.12908426148963192  0.2799734587500542  1.0000
  H   H718      1.0  0.742241407445372  0.10947648144078737  0.3008731052468452  1.0000
  H   H719      1.0  0.8253050730282544  0.04206403324830976  0.2576395281444701  1.0000
  H   H720      1.0  0.8268524101840727  0.067850163188107  0.31868904739314363  1.0000
  H   H721      1.0  0.8285785462848158  0.08991696311748698  0.25489916386816125  1.0000
  H   H722      1.0  0.7739100964612534  0.041470652437797684  0.348575111731132  1.0000
  H   H723      1.0  0.7732745144263079  0.015262839680395324  0.28768334368799353  1.0000
  H   H724      1.0  0.7380281815017092  0.04302384847382146  0.3043500074310084  1.0000
  N   N40       1.0  0.9626206353228264  0.6877430116547992  0.8890916910681992  1.0000
  C   C541      1.0  0.996614276585949  0.7017462360008858  0.8869189116088013  1.0000
  C   C542      1.0  0.9554648691508143  0.6673839462398151  0.8393333963608979  1.0000
  C   C543      1.0  0.9382797233592787  0.7178829242366247  0.8940743716502232  1.0000
  C   C544      1.0  0.9598305029660807  0.6637394888951782  0.9357822326068529  1.0000
  H   H725      1.0  0.0026558652232080426  0.7179139705830856  0.9233024129298827  1.0000
  H   H726      1.0  0.9998677220518046  0.7193236329694631  0.851437629976087  1.0000
  H   H727      1.0  0.015580495000117933  0.6796284669438105  0.8842005381147722  1.0000
  H   H728      1.0  0.929266129749083  0.658859974407288  0.8385141268055581  1.0000
  H   H729      1.0  0.9592376676198199  0.6837688655549794  0.8027493211118355  1.0000
  H   H730      1.0  0.9714129884563323  0.6427094625803653  0.8362189257670852  1.0000
  H   H731      1.0  0.9124035700547519  0.7081666021104451  0.8965192618695693  1.0000
  H   H732      1.0  0.9391565631079444  0.7360128223540245  0.8587890792624957  1.0000
  H   H733      1.0  0.9429830835097168  0.7341152813741324  0.9309349967879119  1.0000
  H   H734      1.0  0.9640183162937147  0.6782103570239417  0.9742832183347567  1.0000
  H   H735      1.0  0.9783449270611982  0.6411004360723623  0.9339554875118591  1.0000
  H   H736      1.0  0.9347459022227451  0.6519492831922938  0.937670867255655  1.0000
  N   N41       1.0  0.5323340583386093  0.677717891526271  0.04833967884554702  1.0000
  C   C545      1.0  0.5628389574723481  0.6687393074760112  0.07952387864304256  1.0000
  C   C546      1.0  0.5112180098423963  0.7030984062894253  0.07963440675513156  1.0000
  C   C547      1.0  0.5139261537199843  0.6445835149645801  0.03711928079239546  1.0000
  C   C548      1.0  0.5413729355937512  0.6945846047628047  0.9970779438539101  1.0000
  H   H737      1.0  0.5568608526965642  0.6562052006215588  0.11861633236797497  1.0000
  H   H738      1.0  0.5774059824517034  0.6932128284246589  0.0882967227925413  1.0000
  H   H739      1.0  0.5791789763736763  0.6492909775803497  0.05719367041872769  1.0000
  H   H740      1.0  0.4883500444942417  0.7110430997093375  0.05664657802776962  1.0000
  H   H741      1.0  0.5034790507853885  0.6912028594150468  0.11828051773124959  1.0000
  H   H742      1.0  0.5245131251758299  0.7282298986041033  0.08936809324459838  1.0000
  H   H743      1.0  0.5064487804824298  0.6313286744869553  0.0749807582555837  1.0000
  H   H744      1.0  0.5293278944366614  0.6246854075360223  0.013990893229926193  1.0000
  H   H745      1.0  0.4909241441119999  0.650352377860445  0.013107824642404342  1.0000
  H   H746      1.0  0.5575102224047046  0.6763281408069793  0.9724585467510235  1.0000
  H   H747      1.0  0.5550073128138656  0.719896093352791  0.004313814650865666  1.0000
  H   H748      1.0  0.5188632911149446  0.701529265619951  0.9724473441476534  1.0000
  N   N42       1.0  0.2790282784326772  0.7280870501755486  0.9266125099446253  1.0000
  C   C549      1.0  0.3090212796109859  0.7485135410096945  0.9399425070913482  1.0000
  C   C550      1.0  0.28733044947102915  0.6892486113361134  0.9274189764668538  1.0000
  C   C551      1.0  0.26686055116652785  0.7381565110452573  0.8723540392903719  1.0000
  C   C552      1.0  0.2530019601362792  0.7363912583225212  0.9667075786395838  1.0000
  H   H749      1.0  0.3035478606398898  0.7779099436533083  0.9397832972584818  1.0000
  H   H750      1.0  0.3291726092535594  0.7430875090745327  0.9104086811307669  1.0000
  H   H751      1.0  0.31878889800269494  0.7416951909005672  0.9806281289755484  1.0000
  H   H752      1.0  0.2968154696352834  0.6808166221766639  0.9676375336311815  1.0000
  H   H753      1.0  0.26513477283566456  0.6729938195884947  0.9181908872924612  1.0000
  H   H754      1.0  0.3068349836645816  0.6819315904610747  0.8975783580017129  1.0000
  H   H755      1.0  0.2609746445614516  0.7674110924054315  0.8699432246833348  1.0000
  H   H756      1.0  0.2439490969899234  0.7236302302304927  0.8611689682719883  1.0000
  H   H757      1.0  0.28591394663742764  0.7320834614855422  0.8411807153460079  1.0000
  H   H758      1.0  0.22977775882099793  0.7218476440048257  0.9575995620647886  1.0000
  H   H759      1.0  0.2464820950543578  0.7655379516604625  0.9682318919658558  1.0000
  H   H760      1.0  0.2611868884980031  0.7286489330736301  0.008034981783024309  1.0000
  N   N43       1.0  0.49209586478088246  0.17814785303147063  0.3855184020153462  1.0000
  C   C553      1.0  0.5128726531781309  0.14897990159723817  0.36191131808584504  1.0000
  C   C554      1.0  0.456719788238047  0.17075369778813965  0.3752866896322799  1.0000
  C   C555      1.0  0.5003698845920113  0.2125492609258679  0.36038264152059174  1.0000
  C   C556      1.0  0.49837488513568357  0.18014399436136763  0.44419982673069863  1.0000
  H   H761      1.0  0.5398118046349304  0.1539557957379054  0.36815468445128263  1.0000
  H   H762      1.0  0.5082116579323758  0.14629249675897804  0.31785564698855107  1.0000
  H   H763      1.0  0.5078500467684507  0.1227084125773712  0.3808216300428556  1.0000
  H   H764      1.0  0.44020725466425464  0.19178655070498563  0.39365656937210614  1.0000
  H   H765      1.0  0.4509016563259759  0.1700402167403492  0.3314446899813409  1.0000
  H   H766      1.0  0.4498946234823079  0.14451751072442676  0.3925274768862439  1.0000
  H   H767      1.0  0.49677510163484073  0.2114484767370146  0.31586714256142734  1.0000
  H   H768      1.0  0.526712178838175  0.21939786023584906  0.3683162107801596  1.0000
  H   H769      1.0  0.4841967660016936  0.23497984656492066  0.3756041430565347  1.0000
  H   H770      1.0  0.48304973046127575  0.2018209404092095  0.46344483914344414  1.0000
  H   H771      1.0  0.524977921533482  0.1851987429865385  0.4535094529641217  1.0000
  H   H772      1.0  0.4921885028879303  0.15454157122542456  0.46427594556148266  1.0000
  N   N44       1.0  0.49309963489002584  0.4808223562072142  0.10504754943332872  1.0000
  C   C557      1.0  0.4892376979662335  0.5198910364608207  0.09614187750035885  1.0000
  C   C558      1.0  0.5283008438119856  0.47212034738678055  0.11744229077646695  1.0000
  C   C559      1.0  0.482823970821607  0.46104769741320484  0.056032341962899856  1.0000
  C   C560      1.0  0.4723781403227933  0.4701922449407327  0.15069749382831343  1.0000
  H   H773      1.0  0.46300127891648457  0.527918197484284  0.08719287047396884  1.0000
  H   H774      1.0  0.504685358432104  0.5286658079304759  0.06190788264020264  1.0000
  H   H775      1.0  0.49736630775048457  0.5354758327777995  0.13217973621953516  1.0000
  H   H776      1.0  0.5445800485478615  0.4806448794060082  0.08448343047226214  1.0000
  H   H777      1.0  0.5367188777253208  0.4856979791074965  0.15502832420928292  1.0000
  H   H778      1.0  0.5328192469562882  0.44285101184781905  0.12261412130155769  1.0000
  H   H779      1.0  0.4977683947719007  0.46853320129226045  0.020576249701754312  1.0000
  H   H780      1.0  0.4562718960960206  0.4666432115737169  0.04558867745425599  1.0000
  H   H781      1.0  0.4861077363164102  0.43147618001583654  0.061348223554368086  1.0000
  H   H782      1.0  0.4796848701871129  0.4842847428677677  0.18848582132615954  1.0000
  H   H783      1.0  0.4749694059602345  0.44083525085363534  0.15823895439863422  1.0000
  H   H784      1.0  0.44563702723654147  0.47632456726029043  0.14294912551115746  1.0000
  N   N45       1.0  0.6576033154334212  0.431363886805251  0.6875073910018848  1.0000
  C   C561      1.0  0.6626041670316626  0.40070561707062735  0.6500866794618867  1.0000
  C   C562      1.0  0.6221612299545771  0.4344327990458469  0.7022361428681638  1.0000
  C   C563      1.0  0.6676858093287666  0.46468878797390045  0.6610248985901006  1.0000
  C   C564      1.0  0.6779791271974762  0.4256448406420332  0.7366752314182816  1.0000
  H   H785      1.0  0.6892324858875749  0.39717788889789507  0.6389888605263423  1.0000
  H   H786      1.0  0.647995979589798  0.40455151150210683  0.6121883818498157  1.0000
  H   H787      1.0  0.6547716481465191  0.37516128612286853  0.6683621304268079  1.0000
  H   H788      1.0  0.6176456611702877  0.4570417891596096  0.7310348540210919  1.0000
  H   H789      1.0  0.6060031547906334  0.43900888485555234  0.6661787280795036  1.0000
  H   H790      1.0  0.6138260488219498  0.40949506628768706  0.7219931028724579  1.0000
  H   H791      1.0  0.6648208904311306  0.48830110109198743  0.6884185197168918  1.0000
  H   H792      1.0  0.652718902667602  0.46995765705839454  0.6238486039243748  1.0000
  H   H793      1.0  0.6942814744948248  0.4630060638915275  0.6491068254707851  1.0000
  H   H794      1.0  0.6750828701815713  0.4485906463421692  0.7654246103379172  1.0000
  H   H795      1.0  0.7048649898092342  0.42281561320244654  0.7269846476383498  1.0000
  H   H796      1.0  0.6707001435652766  0.4009594968774595  0.7580933602214794  1.0000
  N   N46       1.0  0.8188738476536067  0.8249310239385952  0.7636500552767574  1.0000
  C   C565      1.0  0.8150169645663389  0.861892602166081  0.7852025204561358  1.0000
  C   C566      1.0  0.8243511619177945  0.8261354117754689  0.7049851432167963  1.0000
  C   C567      1.0  0.7884210671652623  0.8048694520596105  0.7740488990597306  1.0000
  C   C568      1.0  0.8476345968706909  0.8067538234055605  0.7902324004512276  1.0000
  H   H797      1.0  0.794147120927932  0.8767933956485202  0.7650389826547634  1.0000
  H   H798      1.0  0.8378809515746387  0.8774799395665153  0.7793143281579349  1.0000
  H   H799      1.0  0.8102398199172475  0.8620226750447417  0.8292028866400566  1.0000
  H   H800      1.0  0.847398868896311  0.84043456303749  0.6954320520652354  1.0000
  H   H801      1.0  0.8268654710319326  0.7986552341293629  0.6873530135623649  1.0000
  H   H802      1.0  0.8033493206022333  0.8401733866156561  0.6837276491167309  1.0000
  H   H803      1.0  0.7904986351490512  0.7769481361603781  0.7577387876140894  1.0000
  H   H804      1.0  0.766187749828401  0.818015636277437  0.7547137605912281  1.0000
  H   H805      1.0  0.7836747341480486  0.8029218356881707  0.8178904253629905  1.0000
  H   H806      1.0  0.8448571075799357  0.8062328823671252  0.8347145468963498  1.0000
  H   H807      1.0  0.8712110098822369  0.8205564395853594  0.7819028801660876  1.0000
  H   H808      1.0  0.8508276786346872  0.7784848426032833  0.7761601232605051  1.0000
  N   N47       1.0  0.2870176005266848  0.7102397877760203  0.4350603263793866  1.0000
  C   C569      1.0  0.29947593192739563  0.7469200714573515  0.4427201603845609  1.0000
  C   C570      1.0  0.2518706093758365  0.7094879492299373  0.4515331758519265  1.0000
  C   C571      1.0  0.30698897868790415  0.684844538564726  0.46833015127794103  1.0000
  C   C572      1.0  0.28970412143293667  0.6997151039711632  0.37775393940736024  1.0000
  H   H809      1.0  0.32613637956181124  0.7484330073521852  0.4318127484986163  1.0000
  H   H810      1.0  0.2972676975749043  0.7559266035350525  0.48540503815182495  1.0000
  H   H811      1.0  0.2853280219963109  0.7668026170722273  0.417722089975869  1.0000
  H   H812      1.0  0.2360456844255949  0.7282722051726258  0.4271805741223512  1.0000
  H   H813      1.0  0.24164479815545312  0.6821719495140506  0.4464728779292438  1.0000
  H   H814      1.0  0.2490177355832405  0.7172989423353627  0.49460703828091457  1.0000
  H   H815      1.0  0.2980966376753773  0.6568894096226251  0.46369826378000656  1.0000
  H   H816      1.0  0.3056865083017228  0.6920965311584991  0.5118185654671916  1.0000
  H   H817      1.0  0.33368300246828425  0.6846454459490963  0.45700396256173875  1.0000
  H   H818      1.0  0.28053787286298654  0.6720906169871744  0.37066020843754527  1.0000
  H   H819      1.0  0.3159138041273586  0.7000891532489141  0.3640050663201893  1.0000
  H   H820      1.0  0.2748464220682884  0.7181952702314965  0.3514040286220819  1.0000
  N   N48       1.0  0.5148601617515092  0.74317396737771  0.5238703953907775  1.0000
  C   C573      1.0  0.5089112955719147  0.7604127045968425  0.4711622795091165  1.0000
  C   C574      1.0  0.545542198882084  0.7570631524061899  0.5486564391823521  1.0000
  C   C575      1.0  0.5185514902662198  0.7038772496256801  0.5164514997166452  1.0000
  C   C576      1.0  0.4864302450878085  0.7512958285263874  0.5594609006403874  1.0000
  H   H821      1.0  0.485782172682719  0.7507384626541408  0.4516464599327674  1.0000
  H   H822      1.0  0.5297141289881575  0.7547861150610783  0.4429502551055639  1.0000
  H   H823      1.0  0.5061604229141603  0.7901112633232918  0.47523564817797337  1.0000
  H   H824      1.0  0.5510045370520151  0.7440371992301765  0.5880694818747252  1.0000
  H   H825      1.0  0.5674162890086681  0.7518451440779336  0.5224165866374874  1.0000
  H   H826      1.0  0.543426647934332  0.7865208895026085  0.5560629032662623  1.0000
  H   H827      1.0  0.522182928835591  0.6900564987794621  0.5556787348934137  1.0000
  H   H828      1.0  0.5403405394558548  0.6965597113445788  0.4911742140087002  1.0000
  H   H829      1.0  0.49627823182384456  0.6924077726480717  0.4965137471202215  1.0000
  H   H830      1.0  0.4905729680584521  0.7395911286742628  0.6000685502851937  1.0000
  H   H831      1.0  0.4630586523427108  0.7400739186886662  0.542878168817108  1.0000
  H   H832      1.0  0.48221236898950903  0.7807284476412766  0.5648405009857874  1.0000
  N   N49       1.0  0.2062716808968066  0.5162351694135959  0.04193687279352964  1.0000
  C   C577      1.0  0.19139355261054547  0.4810294813672318  0.05152638161424498  1.0000
  C   C578      1.0  0.24109525599590098  0.5155041618723435  0.06143575568397604  1.0000
  C   C579      1.0  0.1872760462459464  0.5445516604068725  0.07118913559529313  1.0000
  C   C580      1.0  0.20529052997427  0.5237687010104427  0.9836070536012977  1.0000
  H   H833      1.0  0.20642912211534892  0.45872802028171406  0.03320066432308474  1.0000
  H   H834      1.0  0.16611130150589726  0.4797490082953058  0.033319909520962004  1.0000
  H   H835      1.0  0.18905756241551552  0.47556437082890124  0.09520116204983475  1.0000
  H   H836      1.0  0.25311007874195135  0.541624099465012  0.05448915378501662  1.0000
  H   H837      1.0  0.2426112091537469  0.5098952564050003  0.10537477843556733  1.0000
  H   H838      1.0  0.2561059764082889  0.4943151634469684  0.040305044401425405  1.0000
  H   H839      1.0  0.16084670576206084  0.5456291369939127  0.05791026914226468  1.0000
  H   H840      1.0  0.1975711642086475  0.5715856987655655  0.06439490523845777  1.0000
  H   H841      1.0  0.18759276714657935  0.5397073594522076  0.11529057713769726  1.0000
  H   H842      1.0  0.221905267052114  0.5049641792928297  0.9609082535551496  1.0000
  H   H843      1.0  0.2130508821829955  0.5513852290216297  0.9749927012800212  1.0000
  H   H844      1.0  0.17983798816794727  0.5210322891055085  0.9664411127223852  1.0000
  N   N50       1.0  0.986335936753239  0.15171668336104238  0.8130652979685707  1.0000
  C   C581      1.0  0.014159374908129019  0.125056808826147  0.8137150035167388  1.0000
  C   C582      1.0  0.9569759443095581  0.13579734210964367  0.7869792763735273  1.0000
  C   C583      1.0  0.996063641426683  0.1835780265310727  0.7825278296556155  1.0000
  C   C584      1.0  0.9781380749604992  0.16244136007954402  0.8688751889674088  1.0000
  H   H845      1.0  0.03723512476061708  0.1368088866871302  0.8305141585480151  1.0000
  H   H846      1.0  0.020010018444123867  0.11511447313062284  0.7723523327278806  1.0000
  H   H847      1.0  0.00826450603711737  0.10134225645615569  0.8384335725918768  1.0000
  H   H848      1.0  0.9629975787163113  0.12535139865245126  0.7460523514076104  1.0000
  H   H849      1.0  0.9476286889167086  0.11306787064066715  0.8106956687608088  1.0000
  H   H850      1.0  0.936248311626926  0.15588574142503786  0.782723815041048  1.0000
  H   H851      1.0  0.002651612558544736  0.17626586801715982  0.740337087647959  1.0000
  H   H852      1.0  0.018008775644867914  0.19652023762662818  0.801228154934  1.0000
  H   H853      1.0  0.9755907551402846  0.2041655458700813  0.780509342490699  1.0000
  H   H854      1.0  0.9571928422427483  0.18249366562188407  0.8700708561293437  1.0000
  H   H855      1.0  0.9997389586956823  0.17449788924798404  0.8899253829686897  1.0000
  H   H856      1.0  0.9705210222842514  0.13905133559397398  0.8931229790672397  1.0000
  N   N51       1.0  0.24529477579044578  0.9378017339102768  0.69384625037932  1.0000
  C   C585      1.0  0.2725628374002902  0.9124913473098789  0.709272960766302  1.0000
  C   C586      1.0  0.25142606672298706  0.9518770339204484  0.6394315406956503  1.0000
  C   C587      1.0  0.24368376488688903  0.9679056105153974  0.7328986615846905  1.0000
  C   C588      1.0  0.21340471551703044  0.918970031178293  0.6939204175923007  1.0000
  H   H857      1.0  0.2687036881867788  0.9011813154537994  0.7499286597265336  1.0000
  H   H858      1.0  0.2970491408826126  0.9257799293163501  0.7098373598422286  1.0000
  H   H859      1.0  0.2744224370040682  0.88942742431353  0.6806112984544198  1.0000
  H   H860      1.0  0.23149317812757442  0.9712736116085756  0.6266022598034988  1.0000
  H   H861      1.0  0.2753670319947259  0.9661387640795165  0.6377115324639328  1.0000
  H   H862      1.0  0.25243299280806086  0.9300326349180983  0.6086113733236341  1.0000
  H   H863      1.0  0.2233161462645883  0.9874289204741494  0.7222046104496358  1.0000
  H   H864      1.0  0.26726061929841904  0.9828542528800176  0.7339654627942542  1.0000
  H   H865      1.0  0.23865780308971107  0.9583019134107439  0.7742567121353233  1.0000
  H   H866      1.0  0.1922662585004029  0.9374659542028037  0.6833628087474738  1.0000
  H   H867      1.0  0.20804324748639713  0.9078615370267757  0.7343355670249659  1.0000
  H   H868      1.0  0.21334642804501147  0.896432272275499  0.6642859934243481  1.0000
  N   N52       1.0  0.35175448339427406  0.5169531681151794  0.14437263346506413  1.0000
  C   C589      1.0  0.38142904097029584  0.5306182513116248  0.11756080202386911  1.0000
  C   C590      1.0  0.3324710028080927  0.5474006671741226  0.16779063698869584  1.0000
  C   C591      1.0  0.36208665703290865  0.4917641155851606  0.1874789979730539  1.0000
  C   C592      1.0  0.33096036248616  0.4981085340049758  0.10436174795349738  1.0000
  H   H869      1.0  0.39787850498823535  0.5447940310590665  0.14656184389409171  1.0000
  H   H870      1.0  0.3742969247618887  0.5499724745579847  0.085233694637034  1.0000
  H   H871      1.0  0.3961487279565118  0.5084266039447441  0.09844565183343826  1.0000
  H   H872      1.0  0.3098353087013045  0.5381816135893397  0.18812082920704407  1.0000
  H   H873      1.0  0.347317858262895  0.5621608306212953  0.1983236076466552  1.0000
  H   H874      1.0  0.3241673995859165  0.5668457438852186  0.13632215329508185  1.0000
  H   H875      1.0  0.3776943313173442  0.5050283470393185  0.21869017456206305  1.0000
  H   H876      1.0  0.3764318706291435  0.4682469526799049  0.1712165974180506  1.0000
  H   H877      1.0  0.3401885036229441  0.4808173186106272  0.20830163190294387  1.0000
  H   H878      1.0  0.3451622899066332  0.4758099193309339  0.08453546617020317  1.0000
  H   H879      1.0  0.32192279685365777  0.5166135499569949  0.07211001031697171  1.0000
  H   H880      1.0  0.30896322857563785  0.48623639289044435  0.12356748492261431  1.0000
  N   N53       1.0  0.1750144462217691  0.0161761004101848  0.966928482351438  1.0000
  C   C593      1.0  0.144460283616632  0.029568924599716828  0.9396125624593017  1.0000
  C   C594      1.0  0.19009883034360064  0.04577049863655147  0.9977929285410251  1.0000
  C   C595      1.0  0.1988870248152783  0.002482373942498395  0.9264023667151774  1.0000
  C   C596      1.0  0.1665745045398923  0.986925810614687  0.00376860903485543  1.0000
  H   H881      1.0  0.14980930903649692  0.05218923485104443  0.9123716734991992  1.0000
  H   H882      1.0  0.12557267552925744  0.03940976109889216  0.9689780007111172  1.0000
  H   H883      1.0  0.1328091096597006  0.008028996097452668  0.915018245480635  1.0000
  H   H884      1.0  0.19651582453827343  0.06837787735811562  0.9709947018584356  1.0000
  H   H885      1.0  0.17302321924762532  0.05654649408069212  0.029238766778857617  1.0000
  H   H886      1.0  0.2134256588221195  0.03662709228582406  0.018323035831459666  1.0000
  H   H887      1.0  0.22231968707617789  0.9922458710858197  0.9456716138083688  1.0000
  H   H888      1.0  0.20565040189679973  0.023915382916712913  0.8978525800785881  1.0000
  H   H889      1.0  0.18830378794154545  0.9801662722492037  0.9021621662452731  1.0000
  H   H890      1.0  0.18890869529930687  0.9767802327808213  0.026169950929688435  1.0000
  H   H891      1.0  0.15581523421637566  0.9638825932436969  0.981273670073241  1.0000
  H   H892      1.0  0.14795601551476545  0.9961279251414396  0.03403186275605474  1.0000
  N   N54       1.0  0.9740633604468233  0.28250481370792935  0.0840324170983684  1.0000
  C   C597      1.0  0.9589788255828907  0.29663820231622934  0.03381997686849614  1.0000
  C   C598      1.0  0.996856734319382  0.25202898058650397  0.07100166403587349  1.0000
  C   C599      1.0  0.947593552041091  0.2702494437912638  0.11975709287303493  1.0000
  C   C600      1.0  0.9927924453365502  0.3110295620712535  0.11155143813785573  1.0000
  H   H893      1.0  0.9408022235657912  0.3188928594131593  0.04216427158973013  1.0000
  H   H894      1.0  0.9455499477150082  0.27543160817096446  0.011441450807149645  1.0000
  H   H895      1.0  0.9780959912710327  0.30712565421016996  0.006520785848966204  1.0000
  H   H896      1.0  0.983533769067064  0.2299871896887714  0.05010094782566199  1.0000
  H   H897      1.0  0.01729582118188322  0.26037758586334997  0.04445291892553471  1.0000
  H   H898      1.0  0.008546837392582995  0.24051715718517186  0.10796670834311706  1.0000
  H   H899      1.0  0.9580004863266559  0.26017475533032997  0.158573854467164  1.0000
  H   H900      1.0  0.9335445307226472  0.24807826600823332  0.1008656695301704  1.0000
  H   H901      1.0  0.9293263594260973  0.29226704011474963  0.12908165240880498  1.0000
  H   H902      1.0  0.01191363134376  0.32231321495700416  0.08497981469297544  1.0000
  H   H903      1.0  0.005787887373374545  0.3006830349795266  0.14810662744314973  1.0000
  H   H904      1.0  0.9761030178529587  0.33358831480595874  0.12466323540027502  1.0000
  N   N55       1.0  0.6737752859537226  0.2593293902818783  0.5010862680916924  1.0000
  C   C601      1.0  0.6587802010205935  0.22583392158881588  0.5194637316815404  1.0000
  C   C602      1.0  0.7099294115293479  0.2534267123471228  0.4940458146117103  1.0000
  C   C603      1.0  0.6678078474366614  0.2879435233471579  0.5416125907044831  1.0000
  C   C604      1.0  0.6585236248033076  0.27014012375085095  0.4491594113797919  1.0000
  H   H905      1.0  0.6624911994667214  0.20373711471939449  0.48956471127016987  1.0000
  H   H906      1.0  0.631526526529318  0.22952667078042577  0.525665557584034  1.0000
  H   H907      1.0  0.6702371043869648  0.21663543611923042  0.5580821512783197  1.0000
  H   H908      1.0  0.7221137406044982  0.2782458299853845  0.48063733797589664  1.0000
  H   H909      1.0  0.7223069731783099  0.2445187753067879  0.5321306018715342  1.0000
  H   H910      1.0  0.7152899234283024  0.23226643130546587  0.4632637346508188  1.0000
  H   H911      1.0  0.6772899283341184  0.3140215883015891  0.5278606071451153  1.0000
  H   H912      1.0  0.6802410956334981  0.281323100074095  0.5806994828044766  1.0000
  H   H913      1.0  0.6407994417075803  0.2921021869509115  0.5493158042886473  1.0000
  H   H914      1.0  0.6696928097818444  0.29506164057156825  0.43377152672479397  1.0000
  H   H915      1.0  0.6312937697272679  0.2752970924227598  0.4531149717076925  1.0000
  H   H916      1.0  0.6622080891700941  0.24885576078827243  0.41793457400181055  1.0000
  N   N56       1.0  0.7314373853902839  0.9019894669925753  0.4237088835032326  1.0000
  C   C605      1.0  0.7552221234408117  0.8728297473902554  0.4386981009261882  1.0000
  C   C606      1.0  0.7472387505961614  0.9370126863412378  0.4320748801652102  1.0000
  C   C607      1.0  0.7016018652721621  0.9002403171914556  0.45760325848260996  1.0000
  C   C608      1.0  0.7217307581705811  0.8978879575880101  0.366491192971171  1.0000
  H   H917      1.0  0.7449258469634877  0.8459166104654676  0.43045148676802014  1.0000
  H   H918      1.0  0.7622844456308937  0.8743923320240687  0.4820581635067724  1.0000
  H   H919      1.0  0.7786406961460685  0.874432959788204  0.415431448516396  1.0000
  H   H920      1.0  0.7552150048062486  0.940757378374223  0.4747781938181229  1.0000
  H   H921      1.0  0.769828744019271  0.93922061729348  0.4070450400167574  1.0000
  H   H922      1.0  0.7299140783855457  0.9597467868654633  0.421806858817834  1.0000
  H   H923      1.0  0.6899066741978197  0.8735874859197879  0.45427266370713487  1.0000
  H   H924      1.0  0.6826007822890117  0.9209345755224703  0.4455981133934675  1.0000
  H   H925      1.0  0.707751375350845  0.9052310563467317  0.500803753570353  1.0000
  H   H926      1.0  0.7048640723013453  0.9202828489470317  0.3530877020958109  1.0000
  H   H927      1.0  0.7088029952379811  0.8722502084190347  0.3590233385420613  1.0000
  H   H928      1.0  0.743836041541439  0.8974696716987323  0.3400595275151969  1.0000
  N   N57       1.0  0.6506874786511365  0.007324862325521542  0.06318331726678372  1.0000
  C   C609      1.0  0.6343918271068522  0.04265115938263131  0.053350589983939045  1.0000
  C   C610      1.0  0.6822024509269593  0.012529295347666114  0.09286460937426089  1.0000
  C   C611      1.0  0.6576023575905254  0.9892129803246696  0.011188845655210722  1.0000
  C   C612      1.0  0.628599435210777  0.9850265079096615  0.0953927963806489  1.0000
  H   H929      1.0  0.6107977664395573  0.039989837694629715  0.03006911416039193  1.0000
  H   H930      1.0  0.6506824346606809  0.06037067094947379  0.029978923279414538  1.0000
  H   H931      1.0  0.6283370259640726  0.056917067992551695  0.09167244575842437  1.0000
  H   H932      1.0  0.694744973564625  0.9863958964493111  0.10250484324450304  1.0000
  H   H933      1.0  0.6998715125352515  0.028401623517118724  0.06915930745441123  1.0000
  H   H934      1.0  0.6780297674937901  0.026965067140759524  0.13174666476720076  1.0000
  H   H935      1.0  0.6693460828316979  0.9621838170960645  0.017079996093094962  1.0000
  H   H936      1.0  0.6747126254458181  0.004963058124859199  0.9861844180111977  1.0000
  H   H937      1.0  0.634423053562975  0.9854439972982025  0.9871763768516848  1.0000
  H   H938      1.0  0.6407801304229965  0.9588077459965509  0.10584996115605905  1.0000
  H   H939      1.0  0.6051487828964064  0.9792679818913638  0.07316589552637276  1.0000
  H   H940      1.0  0.6218064535538111  0.9986164693812801  0.13392028257384658  1.0000
  N   N58       1.0  0.978047215674838  0.0068140058796530845  0.2604211499201717  1.0000
  C   C613      1.0  0.9571070548836471  0.023935516532935575  0.2182323516114901  1.0000
  C   C614      1.0  0.9719276870088329  0.0250231879852576  0.312576877444161  1.0000
  C   C615      1.0  0.0134242051641551  0.009876842030289712  0.24627766233041623  1.0000
  C   C616      1.0  0.9696863831665735  0.9685339902604243  0.26449875180165167  1.0000
  H   H941      1.0  0.9608064624599156  0.010612098997554664  0.17839050548372126  1.0000
  H   H942      1.0  0.9631174746863336  0.05264430352987004  0.21366208111855428  1.0000
  H   H943      1.0  0.9302438038672387  0.022944308181734208  0.22821356538688972  1.0000
  H   H944      1.0  0.9453430415163449  0.023535527473700135  0.3242641325153945  1.0000
  H   H945      1.0  0.9875036932880383  0.012896534508392232  0.34526353658957387  1.0000
  H   H946      1.0  0.977935459390021  0.053992736512281425  0.310779977581943  1.0000
  H   H947      1.0  0.021188396354318018  0.038300661033431105  0.24718819453886565  1.0000
  H   H948      1.0  0.018393066344236653  0.999321113611465  0.2051331022031924  1.0000
  H   H949      1.0  0.029899901534312878  0.9948342430976761  0.2748657673673033  1.0000
  H   H950      1.0  0.9861501076713005  0.954139587724015  0.29387183484872603  1.0000
  H   H951      1.0  0.9721491392303729  0.9545057618204086  0.22504854475934297  1.0000
  H   H952      1.0  0.9436211831533917  0.9653761000725103  0.27765420831591536  1.0000
  N   N59       1.0  0.8421529028540103  0.4096226137942458  0.7972017215524121  1.0000
  C   C617      1.0  0.8570730378136137  0.4453830400951187  0.8012856515661116  1.0000
  C   C618      1.0  0.805656978683223  0.41347939196906336  0.8019766422192547  1.0000
  C   C619      1.0  0.8554105628160323  0.3865497578698435  0.8409325299637477  1.0000
  C   C620      1.0  0.8505508939250283  0.3931362227858326  0.7446296766105704  1.0000
  H   H953      1.0  0.8846174530756524  0.4435632180339353  0.7976473782731793  1.0000
  H   H954      1.0  0.8513339055059995  0.4585681452431151  0.8405485197678308  1.0000
  H   H955      1.0  0.8476598888103034  0.46351294327573983  0.7688852001099369  1.0000
  H   H956      1.0  0.7948322047005194  0.4307908931043396  0.7696246285030292  1.0000
  H   H957      1.0  0.7935244130536073  0.38703219622249346  0.7989158815670355  1.0000
  H   H958      1.0  0.7985308969640413  0.425753330930219  0.8413800223697117  1.0000
  H   H959      1.0  0.8441481164832463  0.35960596625027264  0.8398682653080771  1.0000
  H   H960      1.0  0.8501774892154028  0.3985696652291497  0.8812430460066397  1.0000
  H   H961      1.0  0.8828376420888396  0.3825172648160173  0.8378736010382121  1.0000
  H   H962      1.0  0.8398074587159066  0.36604958504972984  0.7400935582610709  1.0000
  H   H963      1.0  0.8779711915079217  0.390136750807371  0.7396981410562382  1.0000
  H   H964      1.0  0.8407919267889109  0.4097950968409401  0.710769294669053  1.0000
  N   N60       1.0  0.7970147957268845  0.5202711368588934  0.03105873139801174  1.0000
  C   C621      1.0  0.7758124271815269  0.553217373182114  0.03014224346146066  1.0000
  C   C622      1.0  0.8079729703886483  0.5111991023129245  0.9759324442683034  1.0000
  C   C623      1.0  0.7778939685141385  0.4904117578302001  0.052727463098295235  1.0000
  C   C624      1.0  0.8264759538913825  0.5264026856216389  0.06546807483799078  1.0000
  H   H965      1.0  0.7536767788898988  0.549861993563627  0.0035005055131660523  1.0000
  H   H966      1.0  0.7895315319984667  0.5764568019436896  0.014452200683469751  1.0000
  H   H967      1.0  0.7669716736700489  0.5606299023650823  0.07113987227701557  1.0000
  H   H968      1.0  0.8225956698947077  0.5331601966079982  0.9585366368280358  1.0000
  H   H969      1.0  0.8239906637667238  0.48647378862276824  0.9752361950346509  1.0000
  H   H970      1.0  0.7864067740937675  0.506637504800542  0.9484868530408122  1.0000
  H   H971      1.0  0.7931658257411155  0.4652071370879322  0.054364883389702356  1.0000
  H   H972      1.0  0.755718751319339  0.48492667551262575  0.0270701826937485  1.0000
  H   H973      1.0  0.7692648131220433  0.4964839444893298  0.09425428401415337  1.0000
  H   H974      1.0  0.8193998481805311  0.5319358610156708  0.10792241314143336  1.0000
  H   H975      1.0  0.8405559941369579  0.5495854325178675  0.05091555464530306  1.0000
  H   H976      1.0  0.8438072287133918  0.5028252444402451  0.06533192673037291  1.0000
  N   N61       1.0  0.7697914752423317  0.6932468016542439  0.4196513392486254  1.0000
  C   C625      1.0  0.7898352707304013  0.6717310179328451  0.4584007779374791  1.0000
  C   C626      1.0  0.7752609582725853  0.7318621881112279  0.4292759000550446  1.0000
  C   C627      1.0  0.7342193818727083  0.6856500029158076  0.42638914189167776  1.0000
  C   C628      1.0  0.7800044066135233  0.6836329202652404  0.364411994609277  1.0000
  H   H977      1.0  0.786984243575522  0.6424088456453392  0.4512871109038248  1.0000
  H   H978      1.0  0.7825268658917801  0.6778269811920619  0.5006190131096453  1.0000
  H   H979      1.0  0.8167772219917965  0.6773893740103879  0.45501932220842034  1.0000
  H   H980      1.0  0.8020502091059701  0.7381970502190678  0.4260380927359976  1.0000
  H   H981      1.0  0.7613649933243738  0.7489302351747528  0.3996694193691604  1.0000
  H   H982      1.0  0.7673192256117263  0.7402641735376724  0.47035662307190407  1.0000
  H   H983      1.0  0.7182839748486278  0.7021409743234095  0.398722192107186  1.0000
  H   H984      1.0  0.7259745933005575  0.6918829781809189  0.4681227681249128  1.0000
  H   H985      1.0  0.7291579219435328  0.6567706270708025  0.41851988987562855  1.0000
  H   H986      1.0  0.7651269525682479  0.6988105225190493  0.3338183915912165  1.0000
  H   H987      1.0  0.7772977844653646  0.6543969148270792  0.3565709415361353  1.0000
  H   H988      1.0  0.8066260355908785  0.6896886827175005  0.3579416599595074  1.0000
  N   N62       1.0  0.9448039347925588  0.47544000157610183  0.20351650811297756  1.0000
  C   C629      1.0  0.966661883674569  0.44435531319479094  0.21753849543428846  1.0000
  C   C630      1.0  0.9490935044563111  0.5044944875307028  0.2436954322088146  1.0000
  C   C631      1.0  0.9098260516405309  0.4643246706412887  0.20301743527886001  1.0000
  C   C632      1.0  0.9536151296537985  0.4885343580464641  0.1496233001195607  1.0000
  H   H989      1.0  0.9610940586002388  0.4338474142374828  0.2581447580219671  1.0000
  H   H990      1.0  0.9932436040987668  0.45172827468130866  0.21767233850673853  1.0000
  H   H991      1.0  0.9639771697726506  0.42193706664814373  0.18797076544396313  1.0000
  H   H992      1.0  0.9331398039847465  0.5284437903868145  0.23383771732746644  1.0000
  H   H993      1.0  0.9426386223671646  0.49568998977478695  0.28490116721370673  1.0000
  H   H994      1.0  0.9752378186906945  0.5134151921225147  0.24528269090450322  1.0000
  H   H995      1.0  0.8925985473989957  0.4869015770989392  0.1915656814182396  1.0000
  H   H996      1.0  0.9020588462212751  0.45490550537808466  0.24326358921460725  1.0000
  H   H997      1.0  0.9059566977606645  0.4419417375225469  0.17397162776127326  1.0000
  H   H998      1.0  0.9372810879631379  0.5115741835224763  0.1371746196058645  1.0000
  H   H999      1.0  0.9513237709329029  0.4670952107050194  0.11843475068906924  1.0000
  H   H1000     1.0  0.9796750640280003  0.4978819692686174  0.14892451625806402  1.0000
  N   N63       1.0  0.01153788365575914  0.2501204993042069  0.5262099282824221  1.0000
  C   C633      1.0  0.01671759588248456  0.23774868891373807  0.47017524807300315  1.0000
  C   C634      1.0  0.042464383765261404  0.2656164444498166  0.5476512738952802  1.0000
  C   C635      1.0  0.0023536868507780806  0.21948513156795646  0.5598136234501648  1.0000
  C   C636      1.0  0.9844980418210063  0.277613158598581  0.5274603837984492  1.0000
  H   H1001     1.0  0.9938282700009142  0.22583366921123396  0.4528328850633956  1.0000
  H   H1002     1.0  0.03665422102664029  0.21653934815810172  0.4678665092923124  1.0000
  H   H1003     1.0  0.023868323789210333  0.26016292458125223  0.4436767871850512  1.0000
  H   H1004     1.0  0.06348824868723968  0.24567085488003557  0.546875769773151  1.0000
  H   H1005     1.0  0.04975287063930245  0.28936383430972284  0.523997414729403  1.0000
  H   H1006     1.0  0.0394098244998593  0.27488512675973553  0.5901039594007583  1.0000
  H   H1007     1.0  0.997693036150462  0.2279457430767437  0.6022457357579939  1.0000
  H   H1008     1.0  0.02230417218918368  0.19824427962110547  0.5602118485072345  1.0000
  H   H1009     1.0  0.9793409010421109  0.20690483058172426  0.544317737356141  1.0000
  H   H1010     1.0  0.9605037596623115  0.2665864772518977  0.5132641056194213  1.0000
  H   H1011     1.0  0.9901635937486403  0.3010039279881874  0.5019925778083019  1.0000
  H   H1012     1.0  0.9807622451585579  0.2881379947000954  0.5689975729874729  1.0000
  N   N64       1.0  0.8808960219173846  0.3255881112817258  0.36076379839511324  1.0000
  C   C637      1.0  0.8611937504016683  0.3547464786309658  0.3868423593604983  1.0000
  C   C638      1.0  0.8639418674975463  0.31432653822741047  0.31055482436468257  1.0000
  C   C639      1.0  0.8840491841228727  0.2947616478685514  0.3976923779645435  1.0000
  C   C640      1.0  0.914327611708246  0.3385307764096984  0.3480640940209582  1.0000
  H   H1013     1.0  0.8731908111475327  0.3639369231499065  0.42494389262741866  1.0000
  H   H1014     1.0  0.8358576732896075  0.3457954093974666  0.39710140328990745  1.0000
  H   H1015     1.0  0.8580821896078819  0.37843211493014073  0.3600777106589164  1.0000
  H   H1016     1.0  0.878043709399894  0.29233983167568395  0.28961991278813487  1.0000
  H   H1017     1.0  0.8386044777811881  0.3044412902784509  0.31865041316009163  1.0000
  H   H1018     1.0  0.8610238457201714  0.3370219637792413  0.28188526896004573  1.0000
  H   H1019     1.0  0.8988428759634909  0.2722235813041574  0.37946558768043814  1.0000
  H   H1020     1.0  0.8592593342141113  0.2843105561032795  0.4080366394033688  1.0000
  H   H1021     1.0  0.8965119547455827  0.3024774319165678  0.43617835885227463  1.0000
  H   H1022     1.0  0.9299674353921281  0.31722636066883847  0.3283427541283937  1.0000
  H   H1023     1.0  0.927873603142082  0.34726623103042425  0.3850176749030203  1.0000
  H   H1024     1.0  0.9129533566294178  0.36174760476424334  0.32017400266516777  1.0000
