data_image0
_chemical_formula_structural       SFeSC2H3SHCHC3H3CFeCH3SH2CHCHNS3HCSCFeHCHC2H2FeCHS2H2NSFeCH2CFeCSHCHSH2SCHCH4FeHCHCFeHSHCHSHCFeSFeC2SCH3CHCHCH3C2HSFeCHNH3SH2CSH4C2HCSHCSFe3CH2CFeCH5NHSCH2SH4CH4S2HC2NHCHFeC2H2FeH3C3HC2SH2CNCH2CH2CH2CH3CSH3NCH5CSHFeH10FeH2CSCHC2SC3NCH4CHCH3FeSHCH3SHCHSH2C2H2CH2CHFeCHC2HS3CHCH4NHC3HC2FeHCH5NCNCH2CSHC2FeSCSHFeS3CH4C2H2SCHCH5C2H2C2HS2CHFeCHC2HFeCSCSHCNSCFeHCH4C2SHCH3FeHC4SCSCS2H2NCH2CFeCH3C2H7SH6CHSH2CHCFeCHCS2CH2SCFeCSHSC2FeHSCHCHCHFeCHFeH2FeH2CHCFeCHC2H2FeH5CSFeNC2HCH5CNH3SH2SCHCH2CS2H4NH2NCH2C2HSHC2H7CH2CSHCH2CHCHNH4C3HSFeHCH3SHFeCSC2HSCHFeSH2C2FeC2S2FeH2CHCSC2HC3H2CH5C2H2CH3CHSH4NH2C2H4CH5SCH3CNCHFeSHC4SHC2HCHFeC2HCH2CS2CHCHCSHFeHCHCHSH2SHCH3CH4CH4SH5CHC3HC3NHNC2HCH2FeCH2NHCSH6C2SCH2CHCH3SH2FeC2H2CHCSFeH4C2SHNHC2H4C2HSHNHSHSH3C2NHC2SH4C3HC2H3C2SCHS2HCH2CNHCHCH2CHFeH3C5SH2FeCH2CSCH4CSH2CHSC2H2CH2FeSH2FeHCH2SH4CHCHC2HNHC2SH2CSHFeCFeCFeHSC2H2FeHSC2HSHS3FeSFeHSNCH3SCH2C4HSNCH5C4H2CHCH3CH2SCH3C3H2CH3CNH5CHS3HCSCHCNH4SHFeC2FeCH3FeHSHCFeHSC2SHC2H2CSFeH4CHC
_chemical_formula_sum              "S128 Fe64 C320 H512 N32"
_cell_length_a       29.2539
_cell_length_b       26.768
_cell_length_c       19.9392
_cell_angle_alpha    102.421
_cell_angle_beta     87.2753
_cell_angle_gamma    90.8888

_space_group_name_H-M_alt    "P 1"
_space_group_IT_number       1

loop_
  _space_group_symop_operation_xyz
  'x, y, z'

loop_
  _atom_site_type_symbol
  _atom_site_label
  _atom_site_symmetry_multiplicity
  _atom_site_fract_x
  _atom_site_fract_y
  _atom_site_fract_z
  _atom_site_occupancy
  S   S1        1.0  0.17505  0.52496  0.24313  1.0000
  Fe  Fe1       1.0  0.33421  0.73206  0.15133  1.0000
  S   S2        1.0  0.35379  0.67506  0.21244  1.0000
  C   C1        1.0  0.18960  0.42376  0.22904  1.0000
  C   C2        1.0  0.10927  0.63926  0.03324  1.0000
  H   H1        1.0  0.20190  0.34327  0.21670  1.0000
  H   H2        1.0  0.20266  0.70967  0.14993  1.0000
  H   H3        1.0  0.21065  0.36955  0.07018  1.0000
  S   S3        1.0  0.07903  0.74207  0.24121  1.0000
  H   H4        1.0  0.25326  0.61167  0.10575  1.0000
  C   C3        1.0  0.17638  0.69021  0.11756  1.0000
  H   H5        1.0  0.23839  0.57816  0.17236  1.0000
  C   C4        1.0  0.16119  0.71063  0.06361  1.0000
  C   C5        1.0  0.12301  0.61947  0.08846  1.0000
  C   C6        1.0  0.21784  0.51867  0.05245  1.0000
  H   H6        1.0  0.31413  0.49690  0.13074  1.0000
  H   H7        1.0  0.29733  0.58888  0.15079  1.0000
  H   H8        1.0  0.09631  0.41253  0.10907  1.0000
  C   C7        1.0  0.26336  0.57943  0.12894  1.0000
  Fe  Fe2       1.0  0.25830  0.77080  0.07653  1.0000
  C   C8        1.0  0.07660  0.38794  0.13880  1.0000
  H   H9        1.0  0.19305  0.51312  0.09448  1.0000
  H   H10       1.0  0.06225  0.35504  0.10138  1.0000
  H   H11       1.0  0.25551  0.48443  0.15386  1.0000
  S   S4        1.0  0.18670  0.76516  0.04353  1.0000
  H   H12       1.0  0.38374  0.57516  0.22386  1.0000
  H   H13       1.0  0.18098  0.42063  0.17617  1.0000
  C   C9        1.0  0.20170  0.38014  0.25188  1.0000
  H   H14       1.0  0.28082  0.45169  0.07313  1.0000
  C   C10       1.0  0.15663  0.64489  0.13055  1.0000
  H   H15       1.0  0.16783  0.62886  0.17213  1.0000
  N   N1        1.0  0.26426  0.53039  0.07791  1.0000
  S   S5        1.0  0.10069  0.56084  0.10056  1.0000
  S   S6        1.0  0.30334  0.33467  0.06374  1.0000
  S   S7        1.0  0.28204  0.79410  0.18374  1.0000
  H   H16       1.0  0.10123  0.37212  0.16963  1.0000
  C   C11       1.0  0.27936  0.48913  0.11044  1.0000
  S   S8        1.0  0.30507  0.70390  0.04808  1.0000
  C   C12       1.0  0.12739  0.68539  0.02186  1.0000
  Fe  Fe3       1.0  0.37799  0.34377  0.03670  1.0000
  H   H17       1.0  0.20434  0.55032  0.03108  1.0000
  C   C13       1.0  0.22442  0.36637  0.01819  1.0000
  H   H18       1.0  0.07883  0.48748  0.20270  1.0000
  C   C14       1.0  0.06027  0.46103  0.23108  1.0000
  C   C15       1.0  0.29646  0.53442  0.01986  1.0000
  H   H19       1.0  0.33181  0.54344  0.03748  1.0000
  H   H20       1.0  0.08542  0.44820  0.26393  1.0000
  Fe  Fe4       1.0  0.24610  0.35235  0.45834  1.0000
  C   C16       1.0  0.30014  0.67186  0.39099  1.0000
  H   H21       1.0  0.19910  0.51281  0.37781  1.0000
  S   S9        1.0  0.07067  0.61209  0.30556  1.0000
  S   S10       1.0  0.20922  0.73471  0.49698  1.0000
  H   H22       1.0  0.23335  0.62222  0.44759  1.0000
  H   H23       1.0  0.16620  0.76531  0.38627  1.0000
  N   N2        1.0  0.30012  0.61784  0.39748  1.0000
  S   S11       1.0  0.13673  0.60635  0.43321  1.0000
  Fe  Fe5       1.0  0.09863  0.69094  0.31033  1.0000
  C   C17       1.0  0.21315  0.43238  0.36519  1.0000
  H   H24       1.0  0.34803  0.56325  0.41778  1.0000
  H   H25       1.0  0.36007  0.62848  0.45706  1.0000
  C   C18       1.0  0.34695  0.60322  0.41008  1.0000
  Fe  Fe6       1.0  0.06632  0.63435  0.42082  1.0000
  C   C19       1.0  0.21397  0.38447  0.31977  1.0000
  S   S12       1.0  0.23071  0.33000  0.34716  1.0000
  H   H26       1.0  0.26855  0.57179  0.46355  1.0000
  C   C20       1.0  0.18838  0.47140  0.27449  1.0000
  H   H27       1.0  0.07275  0.48916  0.48967  1.0000
  S   S13       1.0  0.08830  0.71501  0.42473  1.0000
  H   H28       1.0  0.37127  0.60627  0.36646  1.0000
  H   H29       1.0  0.30639  0.58975  0.28805  1.0000
  S   S14       1.0  0.17142  0.66787  0.31474  1.0000
  C   C21       1.0  0.26892  0.61180  0.45573  1.0000
  H   H30       1.0  0.26593  0.68343  0.37766  1.0000
  C   C22       1.0  0.19959  0.47585  0.34284  1.0000
  H   H31       1.0  0.22359  0.43617  0.41719  1.0000
  H   H32       1.0  0.27895  0.63741  0.50452  1.0000
  H   H33       1.0  0.32522  0.67860  0.35021  1.0000
  H   H34       1.0  0.24876  0.59370  0.32333  1.0000
  Fe  Fe7       1.0  0.15920  0.68614  0.42903  1.0000
  H   H35       1.0  0.30897  0.69825  0.43998  1.0000
  C   C23       1.0  0.21281  0.79154  0.46682  1.0000
  H   H36       1.0  0.28508  0.54352  0.33579  1.0000
  C   C24       1.0  0.28451  0.58468  0.33333  1.0000
  Fe  Fe8       1.0  0.14297  0.59064  0.31796  1.0000
  H   H37       1.0  0.13236  0.48054  0.50225  1.0000
  S   S15       1.0  0.30643  0.40018  0.49643  1.0000
  H   H38       1.0  0.36855  0.78879  0.42252  1.0000
  C   C25       1.0  0.18786  0.79581  0.41048  1.0000
  H   H39       1.0  0.11763  0.44795  0.64033  1.0000
  S   S16       1.0  0.15627  0.30551  0.65332  1.0000
  H   H40       1.0  0.18560  0.62560  0.74914  1.0000
  C   C26       1.0  0.31815  0.54710  0.60323  1.0000
  Fe  Fe9       1.0  0.31416  0.34659  0.56733  1.0000
  S   S17       1.0  0.26919  0.39110  0.65275  1.0000
  Fe  Fe10      1.0  0.21198  0.34310  0.60077  1.0000
  C   C27       1.0  0.35209  0.50985  0.59278  1.0000
  C   C28       1.0  0.09707  0.47674  0.52418  1.0000
  S   S18       1.0  0.26050  0.52881  0.61084  1.0000
  C   C29       1.0  0.33038  0.59789  0.60308  1.0000
  H   H41       1.0  0.09624  0.58619  0.64744  1.0000
  H   H42       1.0  0.22355  0.67319  0.72588  1.0000
  H   H43       1.0  0.38507  0.64914  0.58500  1.0000
  C   C30       1.0  0.06870  0.33591  0.69083  1.0000
  H   H44       1.0  0.30457  0.62738  0.61388  1.0000
  C   C31       1.0  0.12350  0.48913  0.63974  1.0000
  H   H45       1.0  0.34347  0.47156  0.59763  1.0000
  C   C32       1.0  0.37589  0.61013  0.58649  1.0000
  H   H46       1.0  0.15978  0.49389  0.62264  1.0000
  H   H47       1.0  0.11950  0.51083  0.69386  1.0000
  H   H48       1.0  0.13691  0.56734  0.57663  1.0000
  C   C33       1.0  0.09150  0.32969  0.57098  1.0000
  C   C34       1.0  0.10108  0.56172  0.59508  1.0000
  H   H49       1.0  0.07772  0.57651  0.56145  1.0000
  S   S19       1.0  0.19643  0.39815  0.53518  1.0000
  Fe  Fe11      1.0  0.25784  0.44240  0.57959  1.0000
  C   C35       1.0  0.10197  0.32506  0.63711  1.0000
  H   H50       1.0  0.09063  0.43540  0.52239  1.0000
  N   N3        1.0  0.09145  0.50737  0.59516  1.0000
  H   H51       1.0  0.37473  0.41706  0.65884  1.0000
  H   H52       1.0  0.24627  0.61927  0.75324  1.0000
  H   H53       1.0  0.11706  0.32106  0.52931  1.0000
  S   S20       1.0  0.38137  0.31273  0.58186  1.0000
  H   H54       1.0  0.07691  0.33288  0.74215  1.0000
  H   H55       1.0  0.05362  0.68414  0.74047  1.0000
  C   C36       1.0  0.21782  0.64750  0.76259  1.0000
  S   S21       1.0  0.08776  0.60007  0.79142  1.0000
  H   H56       1.0  0.08425  0.61947  0.99949  1.0000
  H   H57       1.0  0.25738  0.72768  0.90483  1.0000
  H   H58       1.0  0.32010  0.32759  0.91836  1.0000
  H   H59       1.0  0.23365  0.61078  0.87286  1.0000
  C   C37       1.0  0.28651  0.34341  0.93301  1.0000
  C   C38       1.0  0.21588  0.37673  0.90153  1.0000
  H   H60       1.0  0.29805  0.49785  0.98051  1.0000
  C   C39       1.0  0.19796  0.38101  0.96885  1.0000
  S   S22       1.0  0.18263  0.39088  0.83753  1.0000
  H   H61       1.0  0.21742  0.48328  0.01141  1.0000
  C   C40       1.0  0.26001  0.35759  0.88362  1.0000
  S   S23       1.0  0.06803  0.45572  0.80520  1.0000
  Fe  Fe12      1.0  0.35446  0.75819  0.01256  1.0000
  Fe  Fe13      1.0  0.08552  0.51942  0.99525  1.0000
  Fe  Fe14      1.0  0.12191  0.43997  0.87455  1.0000
  C   C41       1.0  0.26903  0.34845  0.00052  1.0000
  H   H62       1.0  0.16355  0.39482  0.98259  1.0000
  H   H63       1.0  0.17372  0.73558  0.89827  1.0000
  C   C42       1.0  0.25869  0.70464  0.85104  1.0000
  Fe  Fe15      1.0  0.08168  0.53810  0.85054  1.0000
  C   C43       1.0  0.17713  0.71361  0.84418  1.0000
  H   H64       1.0  0.14376  0.69394  0.83193  1.0000
  H   H65       1.0  0.11630  0.70057  0.97928  1.0000
  H   H66       1.0  0.20715  0.66138  0.93600  1.0000
  H   H67       1.0  0.18238  0.74183  0.81087  1.0000
  H   H68       1.0  0.28607  0.56510  0.99400  1.0000
  N   N4        1.0  0.21522  0.67667  0.83466  1.0000
  H   H69       1.0  0.17315  0.62147  0.87291  1.0000
  S   S24       1.0  0.07267  0.43540  0.96281  1.0000
  C   C44       1.0  0.20700  0.64095  0.88115  1.0000
  H   H70       1.0  0.27366  0.35354  0.83129  1.0000
  H   H71       1.0  0.28819  0.67806  0.84580  1.0000
  S   S25       1.0  0.13892  0.52235  0.91256  1.0000
  H   H72       1.0  0.26636  0.73156  0.81645  1.0000
  H   H73       1.0  0.17774  0.82709  0.20545  1.0000
  H   H74       1.0  0.28758  0.15474  0.13536  1.0000
  H   H75       1.0  0.07593  0.87591  0.13687  1.0000
  C   C45       1.0  0.06407  0.09915  0.22749  1.0000
  H   H76       1.0  0.36877  0.11459  0.08201  1.0000
  H   H77       1.0  0.22222  0.98490  0.07732  1.0000
  H   H78       1.0  0.10561  0.81940  0.14643  1.0000
  H   H79       1.0  0.25512  0.23907  0.12746  1.0000
  S   S26       1.0  0.30530  0.82326  0.03290  1.0000
  S   S27       1.0  0.34371  0.92312  0.19939  1.0000
  H   H80       1.0  0.12861  0.85711  0.08875  1.0000
  C   C46       1.0  0.29542  0.01261  0.23790  1.0000
  C   C47       1.0  0.14309  0.94270  0.18321  1.0000
  N   N5        1.0  0.13649  0.89051  0.19543  1.0000
  H   H81       1.0  0.10984  0.96214  0.18300  1.0000
  C   C48       1.0  0.23869  0.04005  0.16863  1.0000
  H   H82       1.0  0.33450  0.22029  0.08874  1.0000
  Fe  Fe16      1.0  0.33237  0.84326  0.13868  1.0000
  C   C49       1.0  0.26680  0.25426  0.18036  1.0000
  C   C50       1.0  0.30078  0.96625  0.18985  1.0000
  H   H83       1.0  0.27724  0.92080  0.09519  1.0000
  H   H84       1.0  0.35418  0.27602  0.14693  1.0000
  Fe  Fe17      1.0  0.19410  0.07547  0.03832  1.0000
  H   H85       1.0  0.27293  0.29605  0.18566  1.0000
  H   H86       1.0  0.20146  0.86424  0.14712  1.0000
  H   H87       1.0  0.32922  0.15237  0.19845  1.0000
  C   C51       1.0  0.11033  0.85944  0.13950  1.0000
  C   C52       1.0  0.24303  0.99315  0.12168  1.0000
  C   C53       1.0  0.18157  0.86671  0.19669  1.0000
  H   H88       1.0  0.08735  0.16933  0.20026  1.0000
  C   C54       1.0  0.34526  0.23486  0.14231  1.0000
  C   C55       1.0  0.06239  0.15188  0.23008  1.0000
  S   S28       1.0  0.20322  0.08801  0.15200  1.0000
  H   H89       1.0  0.16104  0.94190  0.13266  1.0000
  H   H90       1.0  0.16360  0.96695  0.22375  1.0000
  C   C56       1.0  0.29878  0.17315  0.18751  1.0000
  N   N6        1.0  0.30860  0.22819  0.19332  1.0000
  C   C57       1.0  0.37643  0.11852  0.02983  1.0000
  H   H91       1.0  0.09052  0.07622  0.19596  1.0000
  H   H92       1.0  0.27095  0.16702  0.22497  1.0000
  C   C58       1.0  0.27379  0.95628  0.13240  1.0000
  H   H93       1.0  0.20250  0.88912  0.23804  1.0000
  H   H94       1.0  0.23821  0.24962  0.21739  1.0000
  C   C59       1.0  0.26415  0.04921  0.22770  1.0000
  H   H95       1.0  0.37703  0.21441  0.14886  1.0000
  H   H96       1.0  0.37819  0.02184  0.16428  1.0000
  C   C60       1.0  0.32348  0.25070  0.26323  1.0000
  H   H97       1.0  0.09277  0.17636  0.01859  1.0000
  H   H98       1.0  0.26048  0.08496  0.26499  1.0000
  H   H99       1.0  0.07692  0.91070  0.26264  1.0000
  C   C61       1.0  0.11117  0.89306  0.26199  1.0000
  S   S29       1.0  0.22481  0.07953  0.42952  1.0000
  H   H100      1.0  0.29718  0.24500  0.30319  1.0000
  H   H101      1.0  0.17216  0.17707  0.48620  1.0000
  H   H102      1.0  0.09351  0.24767  0.39860  1.0000
  N   N7        1.0  0.15417  0.20260  0.39575  1.0000
  C   C62       1.0  0.24128  0.87818  0.47359  1.0000
  H   H103      1.0  0.14284  0.05969  0.49991  1.0000
  H   H104      1.0  0.26164  0.91025  0.49847  1.0000
  H   H105      1.0  0.14637  0.28311  0.40068  1.0000
  H   H106      1.0  0.13000  0.91647  0.30522  1.0000
  H   H107      1.0  0.11695  0.20629  0.49256  1.0000
  C   C63       1.0  0.13200  0.15397  0.36334  1.0000
  S   S30       1.0  0.32593  0.15610  0.36194  1.0000
  H   H108      1.0  0.33600  0.84152  0.47123  1.0000
  Fe  Fe18      1.0  0.29776  0.10465  0.42864  1.0000
  H   H109      1.0  0.30688  0.87853  0.33945  1.0000
  H   H110      1.0  0.16777  0.24484  0.49767  1.0000
  H   H111      1.0  0.14660  0.12080  0.37995  1.0000
  H   H112      1.0  0.35356  0.92264  0.34156  1.0000
  H   H113      1.0  0.31407  0.80361  0.39337  1.0000
  H   H114      1.0  0.35560  0.23281  0.27408  1.0000
  H   H115      1.0  0.31558  0.02057  0.28290  1.0000
  H   H116      1.0  0.37435  0.25253  0.39920  1.0000
  H   H117      1.0  0.20445  0.20066  0.31301  1.0000
  H   H118      1.0  0.09457  0.15430  0.37649  1.0000
  Fe  Fe19      1.0  0.25168  0.00432  0.44047  1.0000
  H   H119      1.0  0.32331  0.91733  0.41994  1.0000
  H   H120      1.0  0.10566  0.85425  0.27284  1.0000
  C   C64       1.0  0.33670  0.89510  0.36953  1.0000
  S   S31       1.0  0.32501  0.02726  0.42994  1.0000
  C   C65       1.0  0.19057  0.83991  0.38423  1.0000
  H   H121      1.0  0.22164  0.16989  0.37902  1.0000
  C   C66       1.0  0.12978  0.24587  0.37865  1.0000
  C   C67       1.0  0.21705  0.88119  0.41552  1.0000
  S   S32       1.0  0.22013  0.93455  0.37826  1.0000
  C   C68       1.0  0.20225  0.20273  0.36938  1.0000
  C   C69       1.0  0.37982  0.17167  0.39491  1.0000
  C   C70       1.0  0.34572  0.82068  0.41801  1.0000
  N   N8        1.0  0.36874  0.85513  0.37808  1.0000
  C   C71       1.0  0.15263  0.20792  0.47120  1.0000
  H   H122      1.0  0.22056  0.23793  0.39436  1.0000
  H   H123      1.0  0.08637  0.98992  0.49265  1.0000
  H   H124      1.0  0.13680  0.14634  0.30637  1.0000
  H   H125      1.0  0.17174  0.84187  0.33962  1.0000
  C   C72       1.0  0.23992  0.83266  0.49832  1.0000
  H   H126      1.0  0.12934  0.24244  0.32200  1.0000
  C   C73       1.0  0.38372  0.82536  0.30951  1.0000
  H   H127      1.0  0.35425  0.80644  0.28096  1.0000
  H   H128      1.0  0.32943  0.29265  0.27048  1.0000
  H   H129      1.0  0.15742  0.87314  0.55452  1.0000
  Fe  Fe20      1.0  0.22718  0.10134  0.54383  1.0000
  S   S33       1.0  0.29843  0.13223  0.54292  1.0000
  H   H130      1.0  0.37045  0.20906  0.59536  1.0000
  C   C74       1.0  0.20199  0.91267  0.67020  1.0000
  H   H131      1.0  0.13665  0.95670  0.76150  1.0000
  H   H132      1.0  0.10495  0.11375  0.71399  1.0000
  H   H133      1.0  0.21679  0.94688  0.65358  1.0000
  S   S34       1.0  0.25805  0.29451  0.52126  1.0000
  H   H134      1.0  0.30607  0.96585  0.61143  1.0000
  C   C75       1.0  0.10071  0.08692  0.66565  1.0000
  H   H135      1.0  0.13609  0.21222  0.72081  1.0000
  S   S35       1.0  0.37850  0.81224  0.64876  1.0000
  H   H136      1.0  0.14145  0.86199  0.73618  1.0000
  H   H137      1.0  0.09637  0.85888  0.67737  1.0000
  C   C76       1.0  0.12767  0.09130  0.60729  1.0000
  C   C77       1.0  0.33781  0.94834  0.61843  1.0000
  H   H138      1.0  0.21965  0.87833  0.63933  1.0000
  H   H139      1.0  0.15567  0.94184  0.57210  1.0000
  C   C78       1.0  0.13414  0.86213  0.68189  1.0000
  H   H140      1.0  0.30591  0.87738  0.63008  1.0000
  H   H141      1.0  0.32549  0.19327  0.69658  1.0000
  C   C79       1.0  0.06886  0.04681  0.66177  1.0000
  H   H142      1.0  0.09197  0.95282  0.70195  1.0000
  Fe  Fe21      1.0  0.32018  0.05271  0.54454  1.0000
  C   C80       1.0  0.12248  0.05626  0.54521  1.0000
  H   H143      1.0  0.21046  0.91562  0.72477  1.0000
  C   C81       1.0  0.09035  0.01683  0.54106  1.0000
  C   C82       1.0  0.35629  0.17548  0.71208  1.0000
  H   H144      1.0  0.19751  0.15243  0.74403  1.0000
  S   S36       1.0  0.24837  0.02387  0.55515  1.0000
  S   S37       1.0  0.16935  0.13890  0.61156  1.0000
  S   S38       1.0  0.37984  0.03793  0.60387  1.0000
  C   C83       1.0  0.37875  0.87545  0.63876  1.0000
  H   H145      1.0  0.35448  0.13373  0.68982  1.0000
  C   C84       1.0  0.14217  0.90734  0.58946  1.0000
  H   H146      1.0  0.21775  0.23369  0.71385  1.0000
  H   H147      1.0  0.10479  0.90534  0.58171  1.0000
  H   H148      1.0  0.37047  0.27390  0.70568  1.0000
  H   H149      1.0  0.25973  0.82915  0.54143  1.0000
  N   N9        1.0  0.15204  0.90908  0.66197  1.0000
  H   H150      1.0  0.14250  0.99035  0.69281  1.0000
  C   C85       1.0  0.33767  0.89842  0.62946  1.0000
  C   C86       1.0  0.37890  0.97572  0.61825  1.0000
  C   C87       1.0  0.06405  0.01170  0.59941  1.0000
  H   H151      1.0  0.14987  0.82720  0.64870  1.0000
  C   C88       1.0  0.12980  0.95423  0.70651  1.0000
  C   C89       1.0  0.19317  0.17218  0.79885  1.0000
  Fe  Fe22      1.0  0.24349  0.09026  0.90608  1.0000
  H   H152      1.0  0.30570  0.11769  0.00429  1.0000
  C   C90       1.0  0.06486  0.19400  0.99874  1.0000
  H   H153      1.0  0.09164  0.94149  0.85993  1.0000
  H   H154      1.0  0.16380  0.29071  0.88751  1.0000
  H   H155      1.0  0.38157  0.87484  0.86905  1.0000
  H   H156      1.0  0.37441  0.94786  0.96594  1.0000
  H   H157      1.0  0.28828  0.95610  0.83636  1.0000
  N   N10       1.0  0.17997  0.22613  0.80627  1.0000
  C   C91       1.0  0.34080  0.11953  0.98559  1.0000
  N   N11       1.0  0.35812  0.94902  0.86223  1.0000
  C   C92       1.0  0.13143  0.84683  0.93096  1.0000
  H   H158      1.0  0.15273  0.23014  0.90927  1.0000
  H   H159      1.0  0.32299  0.87646  0.84785  1.0000
  C   C93       1.0  0.34817  0.96332  0.93728  1.0000
  S   S39       1.0  0.30659  0.12019  0.86040  1.0000
  H   H160      1.0  0.10794  0.20896  0.80200  1.0000
  C   C94       1.0  0.13496  0.22917  0.77675  1.0000
  C   C95       1.0  0.35070  0.12309  0.91741  1.0000
  Fe  Fe23      1.0  0.18782  0.99283  0.90776  1.0000
  S   S40       1.0  0.24679  0.02968  0.96692  1.0000
  C   C96       1.0  0.13225  0.88677  0.89589  1.0000
  S   S41       1.0  0.18480  0.90844  0.86643  1.0000
  H   H161      1.0  0.21079  0.25299  0.90350  1.0000
  Fe  Fe24      1.0  0.14030  0.09399  0.91959  1.0000
  S   S42       1.0  0.19494  0.13939  0.98120  1.0000
  S   S43       1.0  0.13481  0.03426  0.98315  1.0000
  S   S44       1.0  0.18919  0.04912  0.84015  1.0000
  C   C97       1.0  0.17685  0.25106  0.88001  1.0000
  H   H162      1.0  0.34782  0.00564  0.95591  1.0000
  H   H163      1.0  0.32232  0.01321  0.84177  1.0000
  H   H164      1.0  0.31442  0.94788  0.95170  1.0000
  H   H165      1.0  0.16312  0.82928  0.93939  1.0000
  C   C98       1.0  0.35758  0.89269  0.83986  1.0000
  C   C99       1.0  0.32314  0.97077  0.82587  1.0000
  H   H166      1.0  0.36792  0.88013  0.78443  1.0000
  H   H167      1.0  0.22608  0.16896  0.82328  1.0000
  S   S45       1.0  0.08176  0.12632  0.87545  1.0000
  C   C100      1.0  0.09125  0.91027  0.88648  1.0000
  H   H168      1.0  0.16670  0.15084  0.82290  1.0000
  C   C101      1.0  0.08992  0.83128  0.95833  1.0000
  H   H169      1.0  0.24909  0.25164  0.79136  1.0000
  H   H170      1.0  0.35401  0.18044  0.76902  1.0000
  H   H171      1.0  0.12431  0.26970  0.78262  1.0000
  H   H172      1.0  0.08971  0.80128  0.98709  1.0000
  H   H173      1.0  0.20562  0.29255  0.77248  1.0000
  C   C102      1.0  0.21486  0.25207  0.76963  1.0000
  C   C103      1.0  0.05394  0.17791  0.92973  1.0000
  H   H174      1.0  0.33034  0.96112  0.76927  1.0000
  H   H175      1.0  0.58261  0.49652  0.14593  1.0000
  C   C104      1.0  0.55024  0.42773  0.16505  1.0000
  C   C105      1.0  0.58394  0.46621  0.17385  1.0000
  H   H176      1.0  0.66969  0.43869  0.01834  1.0000
  S   S46       1.0  0.64462  0.55823  0.05977  1.0000
  S   S47       1.0  0.64125  0.70484  0.06926  1.0000
  C   C106      1.0  0.42657  0.59830  0.04596  1.0000
  H   H177      1.0  0.52234  0.42997  0.13251  1.0000
  Fe  Fe25      1.0  0.68131  0.55013  0.15290  1.0000
  C   C107      1.0  0.53320  0.61940  0.13729  1.0000
  H   H178      1.0  0.60642  0.60380  0.20473  1.0000
  C   C108      1.0  0.39549  0.58167  0.17422  1.0000
  C   C109      1.0  0.40232  0.63649  0.09236  1.0000
  H   H179      1.0  0.52221  0.57853  0.12691  1.0000
  Fe  Fe26      1.0  0.47127  0.34312  0.09627  1.0000
  C   C110      1.0  0.55208  0.38765  0.19997  1.0000
  S   S48       1.0  0.65622  0.51762  0.24192  1.0000
  C   C111      1.0  0.55905  0.69200  0.22096  1.0000
  S   S49       1.0  0.71275  0.62836  0.17222  1.0000
  H   H180      1.0  0.67275  0.36131  0.06676  1.0000
  C   C112      1.0  0.41964  0.54329  0.12753  1.0000
  N   N12       1.0  0.54056  0.63938  0.21108  1.0000
  S   S50       1.0  0.41682  0.40232  0.11019  1.0000
  C   C113      1.0  0.57350  0.60678  0.23548  1.0000
  Fe  Fe27      1.0  0.68007  0.63475  0.07513  1.0000
  H   H181      1.0  0.59197  0.69318  0.19109  1.0000
  C   C114      1.0  0.67708  0.75101  0.04385  1.0000
  H   H182      1.0  0.47138  0.66550  0.23620  1.0000
  H   H183      1.0  0.39608  0.67240  0.07826  1.0000
  H   H184      1.0  0.48106  0.60038  0.24191  1.0000
  H   H185      1.0  0.62078  0.79552  0.02308  1.0000
  C   C115      1.0  0.43475  0.55138  0.06302  1.0000
  C   C116      1.0  0.65762  0.79188  0.02229  1.0000
  S   S51       1.0  0.51102  0.33825  0.18776  1.0000
  H   H186      1.0  0.55980  0.56747  0.23245  1.0000
  C   C117      1.0  0.61787  0.46632  0.22095  1.0000
  H   H187      1.0  0.56487  0.62220  0.10517  1.0000
  H   H188      1.0  0.53479  0.71808  0.20429  1.0000
  H   H189      1.0  0.50640  0.64153  0.11872  1.0000
  Fe  Fe28      1.0  0.44994  0.42425  0.01724  1.0000
  H   H190      1.0  0.42730  0.50792  0.14204  1.0000
  C   C118      1.0  0.49658  0.63930  0.25071  1.0000
  C   C119      1.0  0.61951  0.42657  0.25582  1.0000
  C   C120      1.0  0.58719  0.38693  0.24484  1.0000
  C   C121      1.0  0.69304  0.36328  0.02054  1.0000
  S   S52       1.0  0.38687  0.78288  0.11435  1.0000
  C   C122      1.0  0.38646  0.62818  0.15632  1.0000
  S   S53       1.0  0.67134  0.39607  0.40407  1.0000
  C   C123      1.0  0.49812  0.42996  0.36884  1.0000
  S   S54       1.0  0.49009  0.75953  0.34842  1.0000
  S   S55       1.0  0.42899  0.71500  0.50009  1.0000
  H   H191      1.0  0.69282  0.50329  0.42071  1.0000
  H   H192      1.0  0.58144  0.62219  0.29016  1.0000
  N   N13       1.0  0.50131  0.40439  0.42713  1.0000
  C   C124      1.0  0.53137  0.35921  0.40678  1.0000
  H   H193      1.0  0.53236  0.44316  0.35265  1.0000
  H   H194      1.0  0.58932  0.35629  0.27196  1.0000
  C   C125      1.0  0.45515  0.38791  0.44725  1.0000
  Fe  Fe29      1.0  0.49100  0.74811  0.45586  1.0000
  C   C126      1.0  0.67696  0.33001  0.37568  1.0000
  H   H195      1.0  0.56704  0.37051  0.39414  1.0000
  H   H196      1.0  0.51892  0.33198  0.36081  1.0000
  H   H197      1.0  0.53302  0.33786  0.44890  1.0000
  C   C127      1.0  0.52074  0.44064  0.48562  1.0000
  C   C128      1.0  0.70917  0.31018  0.32280  1.0000
  H   H198      1.0  0.55502  0.45467  0.47112  1.0000
  H   H199      1.0  0.70266  0.55797  0.38379  1.0000
  H   H200      1.0  0.43968  0.36027  0.40430  1.0000
  H   H201      1.0  0.49852  0.47471  0.50383  1.0000
  H   H202      1.0  0.43146  0.42088  0.46334  1.0000
  H   H203      1.0  0.45629  0.36854  0.49109  1.0000
  H   H204      1.0  0.47565  0.46416  0.38277  1.0000
  S   S56       1.0  0.53876  0.69346  0.48646  1.0000
  H   H205      1.0  0.64625  0.42644  0.29100  1.0000
  H   H206      1.0  0.48400  0.40370  0.32334  1.0000
  H   H207      1.0  0.56582  0.70799  0.27586  1.0000
  H   H208      1.0  0.62254  0.31226  0.44353  1.0000
  H   H209      1.0  0.50119  0.65207  0.30691  1.0000
  H   H210      1.0  0.40773  0.79452  0.31328  1.0000
  C   C129      1.0  0.71735  0.53506  0.41794  1.0000
  H   H211      1.0  0.71855  0.55968  0.47052  1.0000
  S   S57       1.0  0.62938  0.38131  0.59725  1.0000
  H   H212      1.0  0.42277  0.49207  0.56509  1.0000
  H   H213      1.0  0.48688  0.56153  0.67756  1.0000
  C   C130      1.0  0.46844  0.34204  0.61372  1.0000
  H   H214      1.0  0.43456  0.48057  0.70197  1.0000
  C   C131      1.0  0.62658  0.67533  0.62580  1.0000
  Fe  Fe30      1.0  0.47747  0.66602  0.54008  1.0000
  C   C132      1.0  0.50245  0.37790  0.63768  1.0000
  H   H215      1.0  0.47790  0.30344  0.58835  1.0000
  C   C133      1.0  0.50244  0.59693  0.70812  1.0000
  S   S58       1.0  0.48661  0.72184  0.63950  1.0000
  S   S59       1.0  0.62993  0.49564  0.56244  1.0000
  C   C134      1.0  0.42249  0.35649  0.61977  1.0000
  H   H216      1.0  0.50477  0.62493  0.67434  1.0000
  H   H217      1.0  0.71132  0.75799  0.59808  1.0000
  S   S60       1.0  0.66443  0.48257  0.71163  1.0000
  C   C135      1.0  0.70097  0.63463  0.61644  1.0000
  Fe  Fe31      1.0  0.44159  0.77303  0.59634  1.0000
  C   C136      1.0  0.40883  0.57142  0.56958  1.0000
  S   S61       1.0  0.61471  0.77551  0.61910  1.0000
  H   H218      1.0  0.53793  0.58753  0.71862  1.0000
  S   S62       1.0  0.46416  0.58336  0.53880  1.0000
  C   C137      1.0  0.64751  0.72078  0.61615  1.0000
  C   C138      1.0  0.41034  0.40622  0.65275  1.0000
  Fe  Fe32      1.0  0.54443  0.75351  0.58302  1.0000
  H   H219      1.0  0.42623  0.65307  0.72125  1.0000
  S   S63       1.0  0.53284  0.47421  0.69826  1.0000
  C   C139      1.0  0.44433  0.44194  0.67794  1.0000
  H   H220      1.0  0.61890  0.34115  0.75203  1.0000
  C   C140      1.0  0.49058  0.42809  0.66958  1.0000
  H   H221      1.0  0.58982  0.67363  0.63410  1.0000
  C   C141      1.0  0.69509  0.72290  0.60570  1.0000
  H   H222      1.0  0.57509  0.38049  0.73107  1.0000
  Fe  Fe33      1.0  0.69325  0.51216  0.62179  1.0000
  C   C142      1.0  0.65338  0.63253  0.62704  1.0000
  H   H223      1.0  0.41148  0.58895  0.72773  1.0000
  Fe  Fe34      1.0  0.60313  0.45917  0.64795  1.0000
  H   H224      1.0  0.55945  0.32468  0.76321  1.0000
  H   H225      1.0  0.63719  0.59842  0.63772  1.0000
  Fe  Fe35      1.0  0.69166  0.40626  0.65694  1.0000
  H   H226      1.0  0.53766  0.36634  0.63034  1.0000
  H   H227      1.0  0.52502  0.42240  0.52991  1.0000
  C   C143      1.0  0.39715  0.52172  0.57516  1.0000
  H   H228      1.0  0.70836  0.69991  0.74295  1.0000
  C   C144      1.0  0.42751  0.62516  0.75521  1.0000
  Fe  Fe36      1.0  0.66188  0.41984  0.51780  1.0000
  C   C145      1.0  0.47513  0.57935  0.81708  1.0000
  H   H229      1.0  0.52356  0.42989  0.82182  1.0000
  C   C146      1.0  0.58419  0.35719  0.76814  1.0000
  C   C147      1.0  0.59779  0.35725  0.88642  1.0000
  H   H230      1.0  0.68950  0.67646  0.91712  1.0000
  H   H231      1.0  0.47529  0.68144  0.85753  1.0000
  Fe  Fe37      1.0  0.46140  0.31266  0.94094  1.0000
  H   H232      1.0  0.43863  0.60505  0.99652  1.0000
  H   H233      1.0  0.60152  0.45957  0.81167  1.0000
  H   H234      1.0  0.53404  0.43313  0.91044  1.0000
  H   H235      1.0  0.51125  0.37567  0.85815  1.0000
  H   H236      1.0  0.49502  0.69507  0.77692  1.0000
  C   C148      1.0  0.49502  0.66559  0.80862  1.0000
  S   S64       1.0  0.50685  0.36805  0.00730  1.0000
  Fe  Fe38      1.0  0.70891  0.52860  0.99976  1.0000
  N   N14       1.0  0.47502  0.61676  0.77226  1.0000
  C   C149      1.0  0.42163  0.77774  0.88421  1.0000
  C   C150      1.0  0.42994  0.77745  0.81457  1.0000
  H   H237      1.0  0.59750  0.37974  0.94027  1.0000
  C   C151      1.0  0.69353  0.69525  0.87250  1.0000
  H   H238      1.0  0.45482  0.59320  0.86603  1.0000
  H   H239      1.0  0.69401  0.73733  0.89266  1.0000
  H   H240      1.0  0.63332  0.34300  0.87272  1.0000
  H   H241      1.0  0.40577  0.64034  0.80227  1.0000
  H   H242      1.0  0.57505  0.32342  0.88529  1.0000
  C   C152      1.0  0.69142  0.40719  0.99324  1.0000
  N   N15       1.0  0.58295  0.38857  0.83883  1.0000
  H   H243      1.0  0.61743  0.45468  0.89556  1.0000
  H   H244      1.0  0.64914  0.42005  0.82106  1.0000
  H   H245      1.0  0.66242  0.68617  0.84205  1.0000
  S   S65       1.0  0.46474  0.50413  0.00350  1.0000
  H   H246      1.0  0.41414  0.74875  0.77575  1.0000
  H   H247      1.0  0.70297  0.61214  0.77027  1.0000
  S   S66       1.0  0.40662  0.37089  0.94428  1.0000
  C   C153      1.0  0.53595  0.40758  0.85840  1.0000
  H   H248      1.0  0.46031  0.54204  0.79156  1.0000
  C   C154      1.0  0.61419  0.43266  0.84186  1.0000
  H   H249      1.0  0.51050  0.57151  0.83019  1.0000
  H   H250      1.0  0.53102  0.66065  0.82147  1.0000
  C   C155      1.0  0.71807  0.41051  0.93419  1.0000
  S   S67       1.0  0.71903  0.46766  0.90484  1.0000
  S   S68       1.0  0.38667  0.73025  0.90770  1.0000
  H   H251      1.0  0.44358  0.97555  0.25322  1.0000
  H   H252      1.0  0.65225  0.28852  0.14230  1.0000
  H   H253      1.0  0.50319  0.88774  0.20961  1.0000
  H   H254      1.0  0.49900  0.06331  0.15183  1.0000
  N   N16       1.0  0.44154  0.04365  0.21270  1.0000
  H   H255      1.0  0.56634  0.26762  0.23485  1.0000
  H   H256      1.0  0.59732  0.88564  0.19878  1.0000
  N   N17       1.0  0.66538  0.87350  0.22801  1.0000
  C   C156      1.0  0.49094  0.04236  0.19323  1.0000
  H   H257      1.0  0.70199  0.80470  0.18222  1.0000
  H   H258      1.0  0.68725  0.94460  0.20325  1.0000
  C   C157      1.0  0.42662  0.09732  0.23599  1.0000
  C   C158      1.0  0.70708  0.05015  0.08158  1.0000
  H   H259      1.0  0.62973  0.25577  0.06241  1.0000
  S   S69       1.0  0.64733  0.97053  0.08687  1.0000
  H   H260      1.0  0.51157  0.06028  0.23757  1.0000
  C   C159      1.0  0.70169  0.99910  0.08711  1.0000
  C   C160      1.0  0.59759  0.24368  0.22444  1.0000
  H   H261      1.0  0.57137  0.18840  0.06115  1.0000
  H   H262      1.0  0.61987  0.82278  0.16317  1.0000
  H   H263      1.0  0.59226  0.21135  0.25108  1.0000
  H   H264      1.0  0.38992  0.09953  0.25386  1.0000
  H   H265      1.0  0.63611  0.15409  0.16164  1.0000
  H   H266      1.0  0.67744  0.07331  0.08051  1.0000
  H   H267      1.0  0.55501  0.16716  0.13869  1.0000
  C   C161      1.0  0.56588  0.20100  0.11770  1.0000
  H   H268      1.0  0.50321  0.00241  0.17462  1.0000
  H   H269      1.0  0.42340  0.03598  0.10769  1.0000
  C   C162      1.0  0.62138  0.26867  0.11847  1.0000
  S   S70       1.0  0.46615  0.11696  0.06052  1.0000
  H   H270      1.0  0.53658  0.22812  0.12658  1.0000
  C   C163      1.0  0.41564  0.01852  0.15267  1.0000
  H   H271      1.0  0.67670  0.20504  0.16383  1.0000
  H   H272      1.0  0.43079  0.11869  0.19412  1.0000
  C   C164      1.0  0.64516  0.18775  0.13903  1.0000
  H   H273      1.0  0.65421  0.17368  0.08339  1.0000
  C   C165      1.0  0.67440  0.92906  0.24798  1.0000
  H   H274      1.0  0.62617  0.26750  0.24897  1.0000
  N   N18       1.0  0.60748  0.22524  0.14991  1.0000
  H   H275      1.0  0.71888  0.85952  0.14872  1.0000
  H   H276      1.0  0.63959  0.87713  0.13021  1.0000
  H   H277      1.0  0.42380  0.97704  0.13683  1.0000
  H   H278      1.0  0.59379  0.29739  0.12431  1.0000
  C   C166      1.0  0.62890  0.86411  0.17795  1.0000
  C   C167      1.0  0.70751  0.84682  0.19651  1.0000
  C   C168      1.0  0.50955  0.87924  0.25905  1.0000
  H   H279      1.0  0.48487  0.80194  0.23053  1.0000
  S   S71       1.0  0.43025  0.28189  0.02936  1.0000
  Fe  Fe39      1.0  0.60125  0.99770  0.01610  1.0000
  H   H280      1.0  0.40091  0.85022  0.27765  1.0000
  C   C169      1.0  0.40630  0.13313  0.41081  1.0000
  H   H281      1.0  0.43208  0.85032  0.42636  1.0000
  H   H282      1.0  0.44857  0.27367  0.45437  1.0000
  H   H283      1.0  0.53310  0.84809  0.43504  1.0000
  S   S72       1.0  0.51444  0.21045  0.49887  1.0000
  H   H284      1.0  0.39794  0.90469  0.46544  1.0000
  Fe  Fe40      1.0  0.55994  0.14298  0.46414  1.0000
  C   C170      1.0  0.46352  0.19569  0.45665  1.0000
  S   S73       1.0  0.57014  0.11645  0.35052  1.0000
  C   C171      1.0  0.53630  0.90579  0.37453  1.0000
  C   C172      1.0  0.52797  0.91676  0.31075  1.0000
  H   H285      1.0  0.42855  0.90343  0.38475  1.0000
  S   S74       1.0  0.55591  0.06313  0.48323  1.0000
  C   C173      1.0  0.65052  0.85414  0.28961  1.0000
  H   H286      1.0  0.67759  0.85977  0.32797  1.0000
  Fe  Fe41      1.0  0.63205  0.07151  0.49243  1.0000
  S   S75       1.0  0.54167  0.97599  0.29204  1.0000
  H   H287      1.0  0.46864  0.11500  0.45312  1.0000
  H   H288      1.0  0.39613  0.01665  0.28533  1.0000
  C   C174      1.0  0.43721  0.23436  0.44068  1.0000
  C   C175      1.0  0.68452  0.22407  0.32760  1.0000
  Fe  Fe42      1.0  0.64456  0.12172  0.36912  1.0000
  C   C176      1.0  0.52626  0.85678  0.38618  1.0000
  C   C177      1.0  0.65091  0.24428  0.37803  1.0000
  S   S76       1.0  0.63445  0.15310  0.48234  1.0000
  S   S77       1.0  0.64920  0.04070  0.38050  1.0000
  Fe  Fe43      1.0  0.57340  0.03754  0.37036  1.0000
  H   H289      1.0  0.62670  0.21942  0.39713  1.0000
  H   H290      1.0  0.55081  0.93481  0.41439  1.0000
  C   C178      1.0  0.49959  0.83059  0.27067  1.0000
  H   H291      1.0  0.61949  0.87446  0.31525  1.0000
  C   C179      1.0  0.44852  0.14493  0.44042  1.0000
  S   S78       1.0  0.68861  0.15779  0.29767  1.0000
  C   C180      1.0  0.40863  0.87949  0.41517  1.0000
  C   C181      1.0  0.50732  0.81945  0.33442  1.0000
  H   H292      1.0  0.45247  0.03398  0.31503  1.0000
  C   C182      1.0  0.39545  0.22231  0.40903  1.0000
  C   C183      1.0  0.71349  0.25708  0.29951  1.0000
  C   C184      1.0  0.43301  0.01632  0.26913  1.0000
  H   H293      1.0  0.64210  0.81259  0.27618  1.0000
  H   H294      1.0  0.39443  0.09405  0.39995  1.0000
  C   C185      1.0  0.64791  0.29710  0.40340  1.0000
  H   H295      1.0  0.44699  0.11790  0.27930  1.0000
  H   H296      1.0  0.70023  0.93820  0.28807  1.0000
  H   H297      1.0  0.64253  0.95043  0.26815  1.0000
  H   H298      1.0  0.60962  0.15415  0.72735  1.0000
  H   H299      1.0  0.54118  0.98113  0.75307  1.0000
  C   C186      1.0  0.43888  0.17308  0.70919  1.0000
  C   C187      1.0  0.54272  0.97281  0.69607  1.0000
  H   H300      1.0  0.59670  0.90795  0.74324  1.0000
  H   H301      1.0  0.68517  0.18014  0.67912  1.0000
  C   C188      1.0  0.62354  0.99104  0.69751  1.0000
  H   H302      1.0  0.51560  0.94398  0.67906  1.0000
  H   H303      1.0  0.53410  0.00878  0.68006  1.0000
  H   H304      1.0  0.61678  0.02967  0.68780  1.0000
  C   C189      1.0  0.59677  0.90413  0.68657  1.0000
  H   H305      1.0  0.46289  0.81603  0.74097  1.0000
  S   S79       1.0  0.67080  0.04150  0.56926  1.0000
  H   H306      1.0  0.43143  0.21014  0.59464  1.0000
  H   H307      1.0  0.62428  0.93311  0.56964  1.0000
  H   H308      1.0  0.56983  0.87541  0.66745  1.0000
  H   H309      1.0  0.43846  0.13114  0.68717  1.0000
  N   N19       1.0  0.58830  0.95366  0.66808  1.0000
  H   H310      1.0  0.56403  0.91838  0.56881  1.0000
  H   H311      1.0  0.58362  0.98345  0.57681  1.0000
  C   C190      1.0  0.40051  0.19147  0.61322  1.0000
  C   C191      1.0  0.41976  0.90296  0.63959  1.0000
  H   H312      1.0  0.63028  0.88768  0.66442  1.0000
  H   H313      1.0  0.45143  0.97460  0.62968  1.0000
  H   H314      1.0  0.43174  0.27208  0.70472  1.0000
  H   H315      1.0  0.55163  0.22129  0.72987  1.0000
  C   C192      1.0  0.59003  0.94675  0.59244  1.0000
  H   H316      1.0  0.62431  0.99543  0.75413  1.0000
  H   H317      1.0  0.68880  0.29437  0.58384  1.0000
  H   H318      1.0  0.40127  0.15028  0.58717  1.0000
  H   H319      1.0  0.47143  0.18891  0.69095  1.0000
  H   H320      1.0  0.71189  0.13415  0.54353  1.0000
  S   S80       1.0  0.50018  0.81020  0.54878  1.0000
  C   C193      1.0  0.41979  0.95322  0.62961  1.0000
  H   H321      1.0  0.45125  0.88578  0.64934  1.0000
  H   H322      1.0  0.70064  0.24664  0.69894  1.0000
  H   H323      1.0  0.65826  0.97940  0.67490  1.0000
  C   C194      1.0  0.39991  0.25356  0.72075  1.0000
  N   N20       1.0  0.39885  0.19838  0.68883  1.0000
  C   C195      1.0  0.71467  0.20718  0.68760  1.0000
  H   H324      1.0  0.51721  0.22232  0.94218  1.0000
  Fe  Fe44      1.0  0.51955  0.06289  0.00369  1.0000
  S   S81       1.0  0.52517  0.04302  0.88921  1.0000
  H   H325      1.0  0.68434  0.18815  0.80853  1.0000
  C   C196      1.0  0.43177  0.12614  0.93838  1.0000
  C   C197      1.0  0.57019  0.16980  0.89376  1.0000
  C   C198      1.0  0.71588  0.21176  0.80967  1.0000
  C   C199      1.0  0.44095  0.81603  0.93424  1.0000
  S   S82       1.0  0.50993  0.90107  0.81720  1.0000
  H   H326      1.0  0.46678  0.13006  0.92038  1.0000
  C   C200      1.0  0.42193  0.12142  0.00604  1.0000
  C   C201      1.0  0.55704  0.20725  0.77589  1.0000
  H   H327      1.0  0.67040  0.85926  0.98138  1.0000
  C   C202      1.0  0.68567  0.82777  0.99840  1.0000
  H   H328      1.0  0.40388  0.12956  0.84140  1.0000
  Fe  Fe45      1.0  0.60019  0.05524  0.90094  1.0000
  C   C203      1.0  0.46915  0.85373  0.91430  1.0000
  C   C204      1.0  0.53768  0.20799  0.89553  1.0000
  H   H329      1.0  0.43057  0.95547  0.87501  1.0000
  C   C205      1.0  0.59633  0.15043  0.83337  1.0000
  H   H330      1.0  0.43460  0.81629  0.98819  1.0000
  H   H331      1.0  0.57477  0.15514  0.93916  1.0000
  C   C206      1.0  0.47732  0.85333  0.84446  1.0000
  S   S83       1.0  0.63478  0.10034  0.83107  1.0000
  S   S84       1.0  0.61354  0.97345  0.90188  1.0000
  C   C207      1.0  0.39615  0.12683  0.89401  1.0000
  H   H332      1.0  0.70520  0.25257  0.82132  1.0000
  C   C208      1.0  0.53061  0.22613  0.83627  1.0000
  H   H333      1.0  0.71260  0.00092  0.94324  1.0000
  C   C209      1.0  0.59010  0.16959  0.77453  1.0000
  S   S85       1.0  0.48853  0.27191  0.83642  1.0000
  H   H334      1.0  0.39860  0.26024  0.77783  1.0000
  Fe  Fe46      1.0  0.53770  0.96295  0.89913  1.0000
  H   H335      1.0  0.48437  0.88298  0.95285  1.0000
  C   C210      1.0  0.45756  0.81539  0.79483  1.0000
  H   H336      1.0  0.69558  0.03145  0.87638  1.0000
  C   C211      1.0  0.40367  0.96923  0.84597  1.0000
  H   H337      1.0  0.40450  0.01183  0.85940  1.0000
  S   S86       1.0  0.52573  0.98130  0.01374  1.0000
  H   H338      1.0  0.41358  0.95695  0.79026  1.0000
  H   H339      1.0  0.70881  0.94591  0.79514  1.0000
  S   S87       1.0  0.59403  0.08048  0.01527  1.0000
  H   H340      1.0  0.43974  0.17885  0.76604  1.0000
  C   C212      1.0  0.84787  0.45437  0.14776  1.0000
  H   H341      1.0  0.03896  0.36819  0.25615  1.0000
  H   H342      1.0  0.88348  0.46262  0.13109  1.0000
  H   H343      1.0  0.99234  0.40424  0.10238  1.0000
  C   C213      1.0  0.94095  0.50065  0.01768  1.0000
  H   H344      1.0  0.97587  0.49073  0.02412  1.0000
  H   H345      1.0  0.93939  0.76763  0.05462  1.0000
  H   H346      1.0  0.84629  0.46200  0.20461  1.0000
  H   H347      1.0  0.98730  0.40403  0.25673  1.0000
  C   C214      1.0  0.02282  0.76291  0.26193  1.0000
  H   H348      1.0  0.76206  0.41610  0.13195  1.0000
  H   H349      1.0  0.91355  0.66272  0.07893  1.0000
  H   H350      1.0  0.86790  0.36879  0.19189  1.0000
  H   H351      1.0  0.99080  0.77597  0.10081  1.0000
  S   S88       1.0  0.84556  0.59842  0.12205  1.0000
  H   H352      1.0  0.02471  0.46291  0.11108  1.0000
  H   H353      1.0  0.77733  0.35029  0.12223  1.0000
  H   H354      1.0  0.94078  0.74931  0.13617  1.0000
  H   H355      1.0  0.81073  0.42183  0.02642  1.0000
  H   H356      1.0  0.74005  0.71589  0.06126  1.0000
  C   C215      1.0  0.72478  0.74662  0.04287  1.0000
  H   H357      1.0  0.03502  0.69861  0.11288  1.0000
  C   C216      1.0  0.93554  0.66555  0.03279  1.0000
  C   C217      1.0  0.83407  0.39425  0.04190  1.0000
  C   C218      1.0  0.86764  0.36582  0.13537  1.0000
  H   H358      1.0  0.78729  0.39442  0.20124  1.0000
  C   C219      1.0  0.00745  0.43629  0.14030  1.0000
  C   C220      1.0  0.78822  0.39023  0.14451  1.0000
  C   C221      1.0  0.00331  0.67590  0.09900  1.0000
  N   N21       1.0  0.97603  0.69816  0.05219  1.0000
  H   H359      1.0  0.90304  0.37389  0.11748  1.0000
  N   N22       1.0  0.03997  0.41717  0.18335  1.0000
  C   C222      1.0  0.96098  0.74997  0.08759  1.0000
  C   C223      1.0  0.87350  0.55136  0.05950  1.0000
  H   H360      1.0  0.85975  0.32545  0.11129  1.0000
  C   C224      1.0  0.75290  0.78223  0.01799  1.0000
  H   H361      1.0  0.82537  0.48257  0.13257  1.0000
  H   H362      1.0  0.97880  0.45756  0.17226  1.0000
  Fe  Fe47      1.0  0.77102  0.59223  0.10274  1.0000
  C   C225      1.0  0.91896  0.53904  0.06706  1.0000
  H   H363      1.0  0.93705  0.55886  0.11125  1.0000
  H   H364      1.0  0.00008  0.34969  0.18857  1.0000
  N   N23       1.0  0.83436  0.40122  0.11743  1.0000
  H   H365      1.0  0.01379  0.63596  0.07548  1.0000
  C   C226      1.0  0.01551  0.38342  0.22302  1.0000
  S   S89       1.0  0.74208  0.51371  0.09178  1.0000
  H   H366      1.0  0.98371  0.67487  0.14795  1.0000
  H   H367      1.0  0.86889  0.39944  0.01923  1.0000
  H   H368      1.0  0.78974  0.77870  0.01678  1.0000
  H   H369      1.0  0.82208  0.35535  0.01768  1.0000
  H   H370      1.0  0.03359  0.48388  0.26567  1.0000
  H   H371      1.0  0.81604  0.46993  0.42019  1.0000
  C   C227      1.0  0.97099  0.57499  0.44348  1.0000
  C   C228      1.0  0.78080  0.48384  0.43713  1.0000
  S   S90       1.0  0.87463  0.36595  0.45745  1.0000
  C   C229      1.0  0.95106  0.53675  0.47323  1.0000
  H   H372      1.0  0.78190  0.50595  0.49115  1.0000
  H   H373      1.0  0.92759  0.74054  0.35647  1.0000
  C   C230      1.0  0.93750  0.53678  0.33514  1.0000
  H   H374      1.0  0.75894  0.44937  0.43680  1.0000
  C   C231      1.0  0.94981  0.75844  0.32354  1.0000
  H   H375      1.0  0.79333  0.46592  0.30211  1.0000
  H   H376      1.0  0.73443  0.45182  0.32097  1.0000
  H   H377      1.0  0.95095  0.72680  0.47096  1.0000
  S   S91       1.0  0.89368  0.44422  0.31266  1.0000
  H   H378      1.0  0.78245  0.58338  0.35620  1.0000
  H   H379      1.0  0.03957  0.34854  0.50754  1.0000
  Fe  Fe48      1.0  0.94458  0.35257  0.49008  1.0000
  C   C232      1.0  0.99325  0.73801  0.30157  1.0000
  C   C233      1.0  0.96334  0.57576  0.37493  1.0000
  H   H380      1.0  0.91235  0.46676  0.45583  1.0000
  H   H381      1.0  0.97735  0.60634  0.35254  1.0000
  C   C234      1.0  0.92620  0.49722  0.43315  1.0000
  H   H382      1.0  0.79853  0.58294  0.44208  1.0000
  C   C235      1.0  0.97662  0.75474  0.49662  1.0000
  S   S92       1.0  0.00825  0.61907  0.49079  1.0000
  Fe  Fe49      1.0  0.90972  0.37875  0.36060  1.0000
  H   H383      1.0  0.93241  0.53682  0.28174  1.0000
  H   H384      1.0  0.99523  0.77090  0.45603  1.0000
  H   H385      1.0  0.73150  0.33574  0.30108  1.0000
  H   H386      1.0  0.00429  0.70389  0.31683  1.0000
  C   C236      1.0  0.79483  0.55860  0.38975  1.0000
  C   C237      1.0  0.92014  0.49676  0.36388  1.0000
  S   S93       1.0  0.98019  0.37224  0.39727  1.0000
  H   H387      1.0  0.74855  0.50635  0.28507  1.0000
  N   N24       1.0  0.76317  0.51529  0.39165  1.0000
  H   H388      1.0  0.82960  0.54491  0.36942  1.0000
  C   C238      1.0  0.75980  0.48345  0.32168  1.0000
  C   C239      1.0  0.85534  0.43826  0.64297  1.0000
  H   H389      1.0  0.03537  0.46133  0.62139  1.0000
  H   H390      1.0  0.95621  0.53663  0.52652  1.0000
  H   H391      1.0  0.95314  0.74972  0.62654  1.0000
  H   H392      1.0  0.00031  0.36321  0.72136  1.0000
  C   C240      1.0  0.72172  0.67961  0.60469  1.0000
  C   C241      1.0  0.84495  0.52302  0.71339  1.0000
  H   H393      1.0  0.82238  0.43891  0.61767  1.0000
  S   S94       1.0  0.73524  0.58288  0.62310  1.0000
  H   H394      1.0  0.76955  0.69126  0.73745  1.0000
  N   N25       1.0  0.95479  0.79543  0.54992  1.0000
  H   H395      1.0  0.01887  0.51630  0.59017  1.0000
  S   S95       1.0  0.73124  0.35249  0.70298  1.0000
  H   H396      1.0  0.97465  0.71050  0.72585  1.0000
  S   S96       1.0  0.72643  0.43807  0.57318  1.0000
  H   H397      1.0  0.78173  0.45197  0.73073  1.0000
  H   H398      1.0  0.82398  0.32184  0.65978  1.0000
  H   H399      1.0  0.90406  0.42371  0.74842  1.0000
  C   C242      1.0  0.94276  0.64806  0.76290  1.0000
  C   C243      1.0  0.02545  0.35313  0.67909  1.0000
  N   N26       1.0  0.85313  0.46878  0.71425  1.0000
  H   H400      1.0  0.92639  0.47743  0.71725  1.0000
  C   C244      1.0  0.80165  0.30568  0.61893  1.0000
  C   C245      1.0  0.89694  0.46416  0.74649  1.0000
  S   S97       1.0  0.96178  0.38166  0.59955  1.0000
  H   H401      1.0  0.82032  0.40869  0.75559  1.0000
  H   H402      1.0  0.87327  0.53911  0.68496  1.0000
  H   H403      1.0  0.88262  0.45265  0.61100  1.0000
  H   H404      1.0  0.86332  0.39752  0.64143  1.0000
  C   C246      1.0  0.04766  0.34512  0.55869  1.0000
  C   C247      1.0  0.98014  0.67663  0.74534  1.0000
  C   C248      1.0  0.81530  0.44954  0.75387  1.0000
  H   H405      1.0  0.81262  0.52766  0.68804  1.0000
  C   C249      1.0  0.01499  0.35777  0.61309  1.0000
  C   C250      1.0  0.92982  0.77209  0.60180  1.0000
  H   H406      1.0  0.75852  0.68150  0.59682  1.0000
  H   H407      1.0  0.03886  0.52374  0.67543  1.0000
  H   H408      1.0  0.90250  0.74552  0.57833  1.0000
  C   C251      1.0  0.04400  0.50195  0.62158  1.0000
  C   C252      1.0  0.02485  0.66131  0.75270  1.0000
  S   S98       1.0  0.88709  0.67114  0.76330  1.0000
  C   C253      1.0  0.75431  0.31204  0.62881  1.0000
  H   H409      1.0  0.00155  0.73266  0.51903  1.0000
  S   S99       1.0  0.02940  0.54219  0.93658  1.0000
  S   S100      1.0  0.94695  0.43160  0.89462  1.0000
  H   H410      1.0  0.74416  0.74728  0.79196  1.0000
  C   C254      1.0  0.73970  0.70530  0.77305  1.0000
  H   H411      1.0  0.00021  0.55182  0.80777  1.0000
  H   H412      1.0  0.73027  0.60092  0.84468  1.0000
  C   C255      1.0  0.91790  0.47531  0.96003  1.0000
  N   N27       1.0  0.73558  0.67829  0.83032  1.0000
  H   H413      1.0  0.80768  0.67455  0.84370  1.0000
  C   C256      1.0  0.74571  0.36940  0.90165  1.0000
  H   H414      1.0  0.78116  0.73240  0.88926  1.0000
  C   C257      1.0  0.77597  0.69039  0.87273  1.0000
  H   H415      1.0  0.03463  0.72641  0.00252  1.0000
  H   H416      1.0  0.85394  0.46651  0.90969  1.0000
  C   C258      1.0  0.73306  0.62250  0.80273  1.0000
  H   H417      1.0  0.01639  0.66310  0.96162  1.0000
  Fe  Fe50      1.0  0.88939  0.75432  0.81441  1.0000
  H   H418      1.0  0.81226  0.47169  0.80790  1.0000
  H   H419      1.0  0.77268  0.67434  0.91963  1.0000
  H   H420      1.0  0.98447  0.71814  0.95336  1.0000
  C   C259      1.0  0.03213  0.61715  0.77726  1.0000
  C   C260      1.0  0.99480  0.58706  0.79137  1.0000
  C   C261      1.0  0.74822  0.32590  0.93004  1.0000
  C   C262      1.0  0.95011  0.60267  0.78458  1.0000
  C   C263      1.0  0.00414  0.70141  0.98963  1.0000
  S   S101      1.0  0.88185  0.77785  0.92919  1.0000
  H   H421      1.0  0.89690  0.48689  0.80024  1.0000
  H   H422      1.0  0.76627  0.37187  0.85586  1.0000
  Fe  Fe51      1.0  0.01988  0.45808  0.89696  1.0000
  C   C264      1.0  0.87214  0.48668  0.95344  1.0000
  H   H423      1.0  0.92139  0.58058  0.79855  1.0000
  H   H424      1.0  0.81496  0.53382  0.99656  1.0000
  C   C265      1.0  0.72218  0.32307  0.98987  1.0000
  S   S102      1.0  0.74123  0.60550  0.00681  1.0000
  C   C266      1.0  0.85004  0.52480  0.00294  1.0000
  H   H425      1.0  0.94562  0.62600  0.00637  1.0000
  H   H426      1.0  0.91417  0.68109  0.99743  1.0000
  H   H427      1.0  0.76401  0.60861  0.76969  1.0000
  H   H428      1.0  0.84243  0.54712  0.76638  1.0000
  C   C267      1.0  0.00814  0.80640  0.24128  1.0000
  S   S103      1.0  0.83477  0.21796  0.09568  1.0000
  H   H429      1.0  0.84929  0.04321  0.20798  1.0000
  H   H430      1.0  0.92876  0.99352  0.02768  1.0000
  C   C268      1.0  0.82343  0.04510  0.25116  1.0000
  H   H431      1.0  0.99358  0.98143  0.09929  1.0000
  S   S104      1.0  0.84475  0.06654  0.07333  1.0000
  C   C269      1.0  0.80591  0.13311  0.25214  1.0000
  C   C270      1.0  0.75106  0.07144  0.07819  1.0000
  H   H432      1.0  0.94142  0.10596  0.09303  1.0000
  H   H433      1.0  0.95531  0.86287  0.25172  1.0000
  C   C271      1.0  0.03738  0.23055  0.04335  1.0000
  H   H434      1.0  0.04329  0.09589  0.04526  1.0000
  H   H435      1.0  0.79004  0.03232  0.22867  1.0000
  Fe  Fe52      1.0  0.84403  0.13836  0.03342  1.0000
  S   S105      1.0  0.72667  0.27066  0.02878  1.0000
  H   H436      1.0  0.83189  0.13576  0.21053  1.0000
  H   H437      1.0  0.75508  0.11099  0.07439  1.0000
  Fe  Fe53      1.0  0.89533  0.23843  0.03348  1.0000
  H   H438      1.0  0.73637  0.93030  0.09423  1.0000
  C   C272      1.0  0.74027  0.96993  0.09108  1.0000
  H   H439      1.0  0.94110  0.05460  0.13794  1.0000
  H   H440      1.0  0.77307  0.12084  0.22751  1.0000
  S   S106      1.0  0.95691  0.28339  0.07477  1.0000
  H   H441      1.0  0.81384  0.96755  0.08821  1.0000
  H   H442      1.0  0.03300  0.98012  0.02705  1.0000
  H   H443      1.0  0.73930  0.24169  0.26014  1.0000
  H   H444      1.0  0.04355  0.24026  0.09777  1.0000
  C   C273      1.0  0.78415  0.99098  0.08727  1.0000
  H   H445      1.0  0.98839  0.09879  0.14440  1.0000
  C   C274      1.0  0.01488  0.00590  0.07123  1.0000
  H   H446      1.0  0.04127  0.02472  0.10671  1.0000
  C   C275      1.0  0.96341  0.07722  0.10860  1.0000
  C   C276      1.0  0.78957  0.04155  0.08021  1.0000
  H   H447      1.0  0.73621  0.85423  0.23212  1.0000
  N   N28       1.0  0.98674  0.04396  0.04825  1.0000
  H   H448      1.0  0.03059  0.82540  0.21015  1.0000
  C   C277      1.0  0.96530  0.82731  0.26428  1.0000
  C   C278      1.0  0.99947  0.25089  0.01836  1.0000
  S   S107      1.0  0.87389  0.09848  0.49929  1.0000
  H   H449      1.0  0.79605  0.07188  0.38489  1.0000
  H   H450      1.0  0.75164  0.08510  0.33175  1.0000
  C   C279      1.0  0.78589  0.09754  0.35120  1.0000
  S   S108      1.0  0.81416  0.23714  0.41792  1.0000
  H   H451      1.0  0.78153  0.13653  0.38410  1.0000
  Fe  Fe54      1.0  0.92388  0.91512  0.38946  1.0000
  C   C280      1.0  0.02968  0.18225  0.27311  1.0000
  Fe  Fe55      1.0  0.99336  0.99117  0.35311  1.0000
  C   C281      1.0  0.99741  0.15939  0.31127  1.0000
  Fe  Fe56      1.0  0.87651  0.28317  0.40586  1.0000
  H   H452      1.0  0.80054  0.17234  0.28412  1.0000
  S   S109      1.0  0.99051  0.03957  0.45969  1.0000
  C   C282      1.0  0.74398  0.26410  0.51269  1.0000
  C   C283      1.0  0.99907  0.10666  0.30874  1.0000
  H   H453      1.0  0.94043  0.84247  0.47877  1.0000
  H   H454      1.0  0.72171  0.24839  0.47153  1.0000
  Fe  Fe57      1.0  0.91493  0.02825  0.45610  1.0000
  H   H455      1.0  0.97151  0.18232  0.34349  1.0000
  S   S110      1.0  0.89060  0.83902  0.35163  1.0000
  C   C284      1.0  0.93673  0.80426  0.30710  1.0000
  C   C285      1.0  0.79135  0.26122  0.50090  1.0000
  H   H456      1.0  0.86378  0.15189  0.35647  1.0000
  S   S111      1.0  0.91727  0.98511  0.34612  1.0000
  H   H457      1.0  0.97443  0.08938  0.33910  1.0000
  S   S112      1.0  0.00070  0.91831  0.39012  1.0000
  S   S113      1.0  0.91459  0.95749  0.49850  1.0000
  S   S114      1.0  0.94406  0.26846  0.44562  1.0000
  Fe  Fe58      1.0  0.99028  0.96612  0.49618  1.0000
  S   S115      1.0  0.03154  0.24887  0.28188  1.0000
  Fe  Fe59      1.0  0.97365  0.28882  0.34899  1.0000
  H   H458      1.0  0.87717  0.08689  0.35364  1.0000
  S   S116      1.0  0.90562  0.29689  0.30539  1.0000
  N   N29       1.0  0.82014  0.09732  0.29420  1.0000
  C   C286      1.0  0.86524  0.11324  0.32221  1.0000
  H   H459      1.0  0.83343  0.01710  0.28164  1.0000
  H   H460      1.0  0.89173  0.11437  0.28067  1.0000
  H   H461      1.0  0.89540  0.79889  0.49115  1.0000
  S   S117      1.0  0.03629  0.01114  0.26617  1.0000
  C   C287      1.0  0.03278  0.07663  0.26754  1.0000
  H   H462      1.0  0.93405  0.11508  0.62523  1.0000
  H   H463      1.0  0.75479  0.98719  0.56963  1.0000
  C   C288      1.0  0.75602  0.14402  0.73010  1.0000
  C   C289      1.0  0.96953  0.12504  0.64152  1.0000
  C   C290      1.0  0.78425  0.23092  0.74737  1.0000
  C   C291      1.0  0.89406  0.97295  0.73314  1.0000
  H   H464      1.0  0.01484  0.81089  0.60932  1.0000
  S   S118      1.0  0.89856  0.90615  0.71111  1.0000
  N   N30       1.0  0.98078  0.17890  0.64027  1.0000
  C   C292      1.0  0.97409  0.18791  0.57080  1.0000
  H   H465      1.0  0.97498  0.86292  0.62257  1.0000
  H   H466      1.0  0.77535  0.27221  0.75692  1.0000
  H   H467      1.0  0.93780  0.18118  0.55638  1.0000
  H   H468      1.0  0.01013  0.84855  0.54520  1.0000
  H   H469      1.0  0.87411  0.97751  0.63247  1.0000
  C   C293      1.0  0.87551  0.05199  0.69962  1.0000
  C   C294      1.0  0.78387  0.11983  0.52924  1.0000
  C   C295      1.0  0.02897  0.18963  0.65802  1.0000
  C   C296      1.0  0.88098  0.99883  0.68335  1.0000
  H   H470      1.0  0.95741  0.25408  0.69063  1.0000
  H   H471      1.0  0.91372  0.20521  0.67936  1.0000
  C   C297      1.0  0.95038  0.21308  0.69076  1.0000
  H   H472      1.0  0.85698  0.27812  0.54558  1.0000
  C   C298      1.0  0.99034  0.83083  0.58326  1.0000
  H   H473      1.0  0.77768  0.13323  0.68175  1.0000
  H   H474      1.0  0.97197  0.11736  0.69398  1.0000
  H   H475      1.0  0.91323  0.80174  0.64316  1.0000
  C   C299      1.0  0.81851  0.08410  0.52642  1.0000
  H   H476      1.0  0.86499  0.07156  0.66078  1.0000
  H   H477      1.0  0.80559  0.22159  0.69858  1.0000
  S   S119      1.0  0.02447  0.96192  0.59237  1.0000
  C   C300      1.0  0.76282  0.02433  0.55879  1.0000
  H   H478      1.0  0.99303  0.09807  0.60637  1.0000
  H   H479      1.0  0.95471  0.20756  0.74390  1.0000
  H   H480      1.0  0.04799  0.04315  0.70681  1.0000
  C   C301      1.0  0.82027  0.28100  0.55442  1.0000
  C   C302      1.0  0.72789  0.05904  0.55762  1.0000
  C   C303      1.0  0.73851  0.10687  0.54344  1.0000
  H   H481      1.0  0.79797  0.99615  0.76263  1.0000
  H   H482      1.0  0.98307  0.22798  0.56775  1.0000
  C   C304      1.0  0.80805  0.03657  0.54194  1.0000
  H   H483      1.0  0.90535  0.85519  0.55681  1.0000
  H   H484      1.0  0.72543  0.11837  0.72486  1.0000
  H   H485      1.0  0.99550  0.16174  0.53104  1.0000
  C   C305      1.0  0.72547  0.29040  0.57619  1.0000
  N   N31       1.0  0.74272  0.19845  0.74369  1.0000
  H   H486      1.0  0.83461  0.00908  0.54076  1.0000
  H   H487      1.0  0.73524  0.20218  0.63824  1.0000
  H   H488      1.0  0.03549  0.18170  0.70931  1.0000
  H   H489      1.0  0.03830  0.23030  0.65936  1.0000
  H   H490      1.0  0.79183  0.15670  0.51742  1.0000
  C   C306      1.0  0.92251  0.82417  0.51785  1.0000
  H   H491      1.0  0.05289  0.16555  0.61974  1.0000
  S   S120      1.0  0.94934  0.80579  0.80501  1.0000
  S   S121      1.0  0.85413  0.25643  0.94987  1.0000
  S   S122      1.0  0.89205  0.89698  0.91069  1.0000
  H   H492      1.0  0.03379  0.05223  0.96484  1.0000
  C   C307      1.0  0.04948  0.89343  0.91173  1.0000
  S   S123      1.0  0.79856  0.14893  0.95054  1.0000
  C   C308      1.0  0.79999  0.98358  0.89347  1.0000
  H   H493      1.0  0.91217  0.98073  0.83827  1.0000
  C   C309      1.0  0.01781  0.20061  0.90427  1.0000
  N   N32       1.0  0.75950  0.99154  0.85556  1.0000
  H   H494      1.0  0.90103  0.07450  0.86783  1.0000
  H   H495      1.0  0.79051  0.96444  0.93654  1.0000
  H   H496      1.0  0.01783  0.91143  0.90421  1.0000
  H   H497      1.0  0.72820  0.91999  0.86466  1.0000
  S   S124      1.0  0.87371  0.14574  0.78624  1.0000
  H   H498      1.0  0.80602  0.22554  0.78950  1.0000
  Fe  Fe60      1.0  0.93890  0.83319  0.91887  1.0000
  C   C310      1.0  0.01640  0.07566  0.01174  1.0000
  C   C311      1.0  0.89533  0.05362  0.81643  1.0000
  Fe  Fe61      1.0  0.83572  0.83931  0.91171  1.0000
  C   C312      1.0  0.95225  0.01713  0.00139  1.0000
  H   H499      1.0  0.96132  0.25261  0.92911  1.0000
  H   H500      1.0  0.82562  0.95910  0.85914  1.0000
  H   H501      1.0  0.00924  0.18807  0.85104  1.0000
  Fe  Fe62      1.0  0.86203  0.17368  0.89958  1.0000
  H   H502      1.0  0.96865  0.99134  0.95558  1.0000
  S   S125      1.0  0.99783  0.83727  0.98763  1.0000
  H   H503      1.0  0.93068  0.04467  0.98257  1.0000
  C   C313      1.0  0.04896  0.85470  0.94903  1.0000
  Fe  Fe63      1.0  0.79405  0.23040  0.00787  1.0000
  H   H504      1.0  0.79008  0.05615  0.82237  1.0000
  S   S126      1.0  0.90786  0.15739  0.97838  1.0000
  C   C314      1.0  0.90150  0.00040  0.79977  1.0000
  C   C315      1.0  0.73931  0.94141  0.82450  1.0000
  S   S127      1.0  0.83833  0.81094  0.79776  1.0000
  H   H505      1.0  0.73577  0.20545  0.85332  1.0000
  C   C316      1.0  0.99071  0.23715  0.94848  1.0000
  C   C317      1.0  0.73322  0.82222  0.99449  1.0000
  H   H506      1.0  0.76449  0.91696  0.78883  1.0000
  H   H507      1.0  0.81700  0.02043  0.91626  1.0000
  C   C318      1.0  0.77325  0.01897  0.80086  1.0000
  S   S128      1.0  0.76676  0.86496  0.95807  1.0000
  Fe  Fe64      1.0  0.89751  0.86469  0.79723  1.0000
  H   H508      1.0  0.99644  0.10544  0.99483  1.0000
  H   H509      1.0  0.74017  0.05877  0.93116  1.0000
  H   H510      1.0  0.74329  0.02703  0.77252  1.0000
  H   H511      1.0  0.77614  0.13583  0.77233  1.0000
  C   C319      1.0  0.72542  0.02203  0.90365  1.0000
  H   H512      1.0  0.77046  0.29480  0.90577  1.0000
  C   C320      1.0  0.88264  0.07948  0.76617  1.0000
