data_image0
_chemical_formula_structural       HCH2S2Fe2H2C3HSHCHCHSC2S4HNHC3H3SC2H2SHCFeCHC3FeHFeHCH3FeHC2SHC2FeNC3HSH6CSH2CH3SHCHSHC3H3CH2CHFeHCH2CSHC3HFeCH3FeHSCSH7C3HFeH5FeHCH2CHNS2C3HSCSHC3HSH4CHNSHFeCHSCHFe2H2SCS2HCFeHCSH3CNH2C2SHCH2FeHNCHC2H2C2HSH5C2H4C2SHCHC3SHCH2CH2CSH2SH2FeC2FeHCH4CSHC2SFeH3NCH2SCH5CHCFeHCHSNHCH3CSCHNH2CHSH2SFeSCH3C4HC2SHCSFeSH4CH3SC3HNHC3HNH4C2HCH2FeCH5S2CH3CFeCH2CNC2HSCHC2H2CH2C2HCH3SCHCHCH2NHCHSHSCSH2CH3CHS2H5C2H2CHCHCHFeH2CH5CHC4HCSH3CSH2C2H3CSH3CHCFeCFeNH3SHFeSHCSFeC2HFeHCFeHFeCHSH2CH2CFeH3SCSH2C2SCSH2C2HCHSHC2FeCHCFeCHSHNHCHSHCNCSHSH3CH4CHCH2CH2CSCHFe2CHNH4CHFeSHCHCH2CFeHCHFeHC2H6CH3SH4CHSCHSNH2S2CHSCHC2SCS2FeC2HSHCHCH5CH2CHSH5C3H3NSFeHCH3FeCH2C2HNHSHSNH3CHSCHSHSC2SH3C2Fe2H2CH3NCHSH2CS2CNHSHCHC2HCH2C2SHCHSHCH3CHC2SHCSHCHCFeH3SHCHC3H2CHCFeCHC2FeSHFeSHCHCHCHCH3NCH2C3SH2NHCH2CHSH3S2H5FeH2FeH2FeHCHSC2HSHCHFeC2H2C2FeNHSC2SHSCHSHC2FeCH3CSCSCFeH5CHSH2SHNC2H2SCHCHC3H2CNH3CHC2H5SCH3C2H2NHCHNCSH9C2HC2NHCHCH2CHCHCSH2FeHCFeC2FeHCHCHC2HCH3SCH2S2HN2SCH2SHCH5CHCHFeC2SH3FeCH2SHC2H2CH4CHCH5CNHFeHSC2H3NSCFeSFeC3SCHSH2CH2CH2SCSHC3SCHSCHCH3C2HSHCHCHFeCH2FeHC2H2CH2CFeH3Fe2H2SH3S2H2CHFeHCFeH4SCHFeCH2CH5NHCHC4H5CH2SHNCHCH2C2HC2H2SCHCH3CSC3H4CH2CH3CH3SH2SC2HSCH2CH2CFeCHCSHSCSHC2HCHCFeC4SH2CH2CH2NHNHCH2CHFeH2SH2SH3FeH3FeHCHFeH3C2FeCHS2CH2FeCH5C2HCSHCSHSNHCSHSC3HSH2CHCH2SH2FeSCH2CNH2S2C3SH2CH3FeH6FeHC2HCHFeHC2HSC2SH3CHCHSCSNCNHCH2CNHC2H3SHC3H2CH4FeC2HC2H2SCH2C3HCH2CHCHFeH8NHNH6C3FeHCSH3CFeNHC3S2H2SC2H3FeSH3SFeHCHCFeHCHCSCH2SCHCH2SH2CHCH4CH2C2H3SFeHCH2C3H3SCHNFeHCNFeC2HCH2CSC3HC3HSH3CH2NCHCH2CHFeH3NH2C2S3HCH2CH4S2HCSHC2H4CSCFeHSC2H4FeH3S2CFeCFeH3SH2FeH2SHCHCHSHC2NSH2CH2CH2CHCH3SHCH2C3FeC3SCHSCH6CH3CHCFeCSC2HCSCH2C2H2SHSHSHC2H2SHSCNHC3HSHSNHSCSH2C4H2CHSHCH2C2HCSFeHFeCH3CHSFeH2CFeH4FeH2CHCHSCHCNC3FeH4CHCHCSC2H3CSCH6SCH4CH2FeHFeH3CHFe2HSC3S2HC3FeH2FeHCSHCSCHC2HCSFeCH2SCHSCFeC2H2C2FeH2SC3HSNHNHCSHSCH2FeH4CHNHCH2SH2C2H4SNHCFeHCSCHC2H2SHFeHCH2SCH2CHCHSH2CHFeSC3H2S2CS2CSCSH5CHC2H2Fe2CH2FeHCNHCH2CHC2HC2SH4SHCNHCH4FeH2FeH2CH2CHC2FeCHC3HNC2SH3SH3C2HCHS2H2SCH2SNH2C2H2C3HCH5CSH3NHCHC2H6CSH2
_chemical_formula_sum              "H1024 C640 S256 Fe128 N64"
_cell_length_a       37.1293
_cell_length_b       44.358
_cell_length_c       21.4385
_cell_angle_alpha    68.9716
_cell_angle_beta     77.8237
_cell_angle_gamma    80.3315

_space_group_name_H-M_alt    "P 1"
_space_group_IT_number       1

loop_
  _space_group_symop_operation_xyz
  'x, y, z'

loop_
  _atom_site_type_symbol
  _atom_site_label
  _atom_site_symmetry_multiplicity
  _atom_site_fract_x
  _atom_site_fract_y
  _atom_site_fract_z
  _atom_site_occupancy
  H   H1        1.0  0.40341  0.10744  0.20170  1.0000
  C   C1        1.0  0.38425  0.15834  0.18046  1.0000
  H   H2        1.0  0.30055  0.13809  0.00435  1.0000
  H   H3        1.0  0.15667  0.26869  0.06539  1.0000
  S   S1        1.0  0.04185  0.23191  0.92050  1.0000
  S   S2        1.0  0.25799  0.21387  0.15552  1.0000
  Fe  Fe1       1.0  0.24068  0.26193  0.08207  1.0000
  Fe  Fe2       1.0  0.01640  0.23376  0.16389  1.0000
  H   H4        1.0  0.37835  0.15490  0.99951  1.0000
  H   H5        1.0  0.37213  0.06863  0.03798  1.0000
  C   C2        1.0  0.12318  0.12083  0.96755  1.0000
  C   C3        1.0  0.95705  0.08694  0.13839  1.0000
  C   C4        1.0  0.42829  0.02385  0.03756  1.0000
  H   H6        1.0  0.27757  0.26804  0.17596  1.0000
  S   S3        1.0  0.31482  0.19966  0.02722  1.0000
  H   H7        1.0  0.10165  0.22880  0.99084  1.0000
  C   C5        1.0  0.32219  0.13826  0.95950  1.0000
  H   H8        1.0  0.12200  0.09418  0.98225  1.0000
  C   C6        1.0  0.96702  0.07457  0.08470  1.0000
  H   H9        1.0  0.01539  0.14610  0.08124  1.0000
  S   S4        1.0  0.03816  0.19289  0.12337  1.0000
  C   C7        1.0  0.37104  0.12955  0.02525  1.0000
  C   C8        1.0  0.00166  0.12632  0.08235  1.0000
  S   S5        1.0  0.96176  0.12924  0.20264  1.0000
  S   S6        1.0  0.22452  0.15131  0.09635  1.0000
  S   S7        1.0  0.96121  0.20998  0.06012  1.0000
  S   S8        1.0  0.00093  0.26889  0.06596  1.0000
  H   H10       1.0  0.16289  0.12153  0.05937  1.0000
  N   N1        1.0  0.35648  0.11798  0.97971  1.0000
  H   H11       1.0  0.36832  0.15947  0.14275  1.0000
  C   C9        1.0  0.38462  0.12014  0.91865  1.0000
  C   C10       1.0  0.34822  0.08398  0.01539  1.0000
  C   C11       1.0  0.14141  0.27063  0.11292  1.0000
  H   H12       1.0  0.41161  0.10701  0.93193  1.0000
  H   H13       1.0  0.16131  0.25347  0.94945  1.0000
  H   H14       1.0  0.03375  0.12354  0.98804  1.0000
  S   S9        1.0  0.23345  0.24172  0.00435  1.0000
  C   C12       1.0  0.17803  0.11272  0.01750  1.0000
  C   C13       1.0  0.30337  0.08685  0.19040  1.0000
  H   H15       1.0  0.34114  0.07304  0.98088  1.0000
  H   H16       1.0  0.21023  0.08506  0.13781  1.0000
  S   S10       1.0  0.43939  0.03625  0.19979  1.0000
  H   H17       1.0  0.17743  0.08590  0.03551  1.0000
  C   C14       1.0  0.01189  0.11374  0.02926  1.0000
  Fe  Fe3       1.0  0.97985  0.17921  0.15769  1.0000
  C   C15       1.0  0.40429  0.12905  0.21343  1.0000
  H   H18       1.0  0.32457  0.08206  0.05779  1.0000
  C   C16       1.0  0.23619  0.08579  0.15210  1.0000
  C   C17       1.0  0.24886  0.11545  0.14112  1.0000
  C   C18       1.0  0.10568  0.26041  0.13667  1.0000
  Fe  Fe4       1.0  0.31596  0.22336  0.10293  1.0000
  H   H19       1.0  0.29151  0.13903  0.15454  1.0000
  Fe  Fe5       1.0  0.25506  0.19426  0.07440  1.0000
  H   H20       1.0  0.09355  0.25040  0.10765  1.0000
  C   C19       1.0  0.99444  0.08807  0.03013  1.0000
  H   H21       1.0  0.95307  0.05493  0.08525  1.0000
  H   H22       1.0  0.32750  0.16394  0.93018  1.0000
  H   H23       1.0  0.31035  0.12947  0.92639  1.0000
  Fe  Fe6       1.0  0.29329  0.24866  0.96284  1.0000
  H   H24       1.0  0.35053  0.12868  0.07165  1.0000
  C   C20       1.0  0.97434  0.11292  0.13703  1.0000
  C   C21       1.0  0.12762  0.16912  0.22544  1.0000
  S   S11       1.0  0.00713  0.07307  0.96278  1.0000
  H   H25       1.0  0.24796  0.03401  0.18646  1.0000
  C   C22       1.0  0.38516  0.18620  0.19621  1.0000
  C   C23       1.0  0.25760  0.05678  0.17983  1.0000
  Fe  Fe7       1.0  0.01775  0.22665  0.02834  1.0000
  N   N2        1.0  0.16175  0.12876  0.95495  1.0000
  C   C24       1.0  0.10801  0.24441  0.93876  1.0000
  C   C25       1.0  0.28200  0.11607  0.16181  1.0000
  C   C26       1.0  0.08614  0.26259  0.19862  1.0000
  H   H26       1.0  0.10591  0.12881  0.00911  1.0000
  S   S12       1.0  0.04269  0.24799  0.23238  1.0000
  H   H27       1.0  0.10993  0.13291  0.92153  1.0000
  H   H28       1.0  0.39668  0.11426  0.04179  1.0000
  H   H29       1.0  0.11975  0.02931  0.02642  1.0000
  H   H30       1.0  0.20745  0.11749  0.00946  1.0000
  H   H31       1.0  0.14554  0.17388  0.97448  1.0000
  H   H32       1.0  0.43895  0.24972  0.11365  1.0000
  C   C27       1.0  0.40565  0.18473  0.24506  1.0000
  S   S13       1.0  0.36280  0.22372  0.15364  1.0000
  H   H33       1.0  0.32964  0.08735  0.20396  1.0000
  H   H34       1.0  0.19071  0.17116  0.92574  1.0000
  C   C28       1.0  0.29156  0.05722  0.19754  1.0000
  H   H35       1.0  0.00849  0.17799  0.92337  1.0000
  H   H36       1.0  0.11357  0.19356  0.20142  1.0000
  H   H37       1.0  0.15314  0.16541  0.18971  1.0000
  S   S14       1.0  0.95945  0.21735  0.20543  1.0000
  H   H38       1.0  0.10879  0.15092  0.23122  1.0000
  C   C29       1.0  0.16207  0.16432  0.93456  1.0000
  H   H39       1.0  0.96297  0.22694  0.91612  1.0000
  S   S15       1.0  0.29877  0.27286  0.03508  1.0000
  H   H40       1.0  0.44705  0.20362  0.07260  1.0000
  C   C30       1.0  0.44549  0.04866  0.91664  1.0000
  C   C31       1.0  0.22656  0.09137  0.42272  1.0000
  C   C32       1.0  0.37559  0.11619  0.46002  1.0000
  H   H41       1.0  0.15135  0.21504  0.25487  1.0000
  H   H42       1.0  0.08909  0.19756  0.31543  1.0000
  H   H43       1.0  0.35533  0.06256  0.35844  1.0000
  C   C33       1.0  0.36861  0.04158  0.34225  1.0000
  H   H44       1.0  0.32597  0.24430  0.43456  1.0000
  H   H45       1.0  0.96168  0.06131  0.29307  1.0000
  C   C34       1.0  0.10239  0.17246  0.33658  1.0000
  H   H46       1.0  0.99776  0.06069  0.33773  1.0000
  Fe  Fe8       1.0  0.22412  0.22209  0.41614  1.0000
  H   H47       1.0  0.97326  0.23647  0.31813  1.0000
  C   C35       1.0  0.31118  0.13063  0.49776  1.0000
  H   H48       1.0  0.13475  0.11425  0.33242  1.0000
  H   H49       1.0  0.99373  0.04322  0.48519  1.0000
  C   C36       1.0  0.01332  0.25797  0.48095  1.0000
  S   S16       1.0  0.25675  0.21468  0.49810  1.0000
  H   H50       1.0  0.36069  0.04541  0.29250  1.0000
  C   C37       1.0  0.37315  0.26056  0.35822  1.0000
  C   C38       1.0  0.34167  0.26460  0.40486  1.0000
  C   C39       1.0  0.33251  0.13536  0.38064  1.0000
  H   H51       1.0  0.40594  0.20623  0.25765  1.0000
  Fe  Fe9       1.0  0.05265  0.12719  0.53071  1.0000
  C   C40       1.0  0.21502  0.11088  0.46343  1.0000
  H   H52       1.0  0.40012  0.12253  0.41967  1.0000
  H   H53       1.0  0.35700  0.17592  0.47062  1.0000
  H   H54       1.0  0.10445  0.25236  0.41171  1.0000
  Fe  Fe10      1.0  0.20131  0.21351  0.56485  1.0000
  H   H55       1.0  0.32135  0.11181  0.39255  1.0000
  S   S17       1.0  0.43610  0.18384  0.45699  1.0000
  C   C41       1.0  0.24837  0.13805  0.32879  1.0000
  S   S18       1.0  0.05561  0.16928  0.56359  1.0000
  H   H56       1.0  0.16857  0.18928  0.33050  1.0000
  H   H57       1.0  0.44095  0.15467  0.31639  1.0000
  H   H58       1.0  0.37129  0.09073  0.46842  1.0000
  H   H59       1.0  0.00907  0.06031  0.25232  1.0000
  H   H60       1.0  0.09446  0.23128  0.56912  1.0000
  H   H61       1.0  0.31742  0.13313  0.54411  1.0000
  H   H62       1.0  0.17958  0.12705  0.28998  1.0000
  C   C42       1.0  0.42532  0.15557  0.27835  1.0000
  C   C43       1.0  0.24309  0.10497  0.35522  1.0000
  C   C44       1.0  0.02246  0.04065  0.49070  1.0000
  H   H63       1.0  0.32611  0.19006  0.40928  1.0000
  Fe  Fe11      1.0  0.16605  0.27089  0.45956  1.0000
  H   H64       1.0  0.35662  0.13709  0.33961  1.0000
  H   H65       1.0  0.39909  0.04219  0.33386  1.0000
  H   H66       1.0  0.25184  0.08991  0.32352  1.0000
  H   H67       1.0  0.35636  0.02576  0.47790  1.0000
  H   H68       1.0  0.12509  0.03275  0.51257  1.0000
  Fe  Fe12      1.0  0.23245  0.03196  0.56325  1.0000
  H   H69       1.0  0.20093  0.10070  0.51478  1.0000
  C   C45       1.0  0.15383  0.13288  0.32274  1.0000
  H   H70       1.0  0.38276  0.11687  0.50735  1.0000
  H   H71       1.0  0.10826  0.16954  0.38741  1.0000
  C   C46       1.0  0.23719  0.15743  0.36995  1.0000
  H   H72       1.0  0.16106  0.12972  0.37268  1.0000
  N   N3        1.0  0.34240  0.13863  0.44103  1.0000
  S   S19       1.0  0.19417  0.26704  0.54496  1.0000
  S   S20       1.0  0.22148  0.04990  0.45683  1.0000
  C   C47       1.0  0.07679  0.06571  0.48505  1.0000
  C   C48       1.0  0.03992  0.06839  0.47690  1.0000
  C   C49       1.0  0.16265  0.18985  0.28132  1.0000
  H   H73       1.0  0.26133  0.14849  0.27668  1.0000
  S   S21       1.0  0.97487  0.23606  0.50620  1.0000
  C   C50       1.0  0.42454  0.12767  0.26287  1.0000
  S   S22       1.0  0.99598  0.14464  0.50276  1.0000
  H   H74       1.0  0.38180  0.23714  0.35199  1.0000
  C   C51       1.0  0.22047  0.14384  0.43718  1.0000
  C   C52       1.0  0.09650  0.03490  0.50610  1.0000
  C   C53       1.0  0.99040  0.05086  0.30149  1.0000
  H   H75       1.0  0.28553  0.14675  0.48454  1.0000
  S   S23       1.0  0.24521  0.19839  0.33776  1.0000
  H   H76       1.0  0.37428  0.17890  0.38434  1.0000
  H   H77       1.0  0.31131  0.15504  0.35901  1.0000
  H   H78       1.0  0.30498  0.10517  0.51110  1.0000
  H   H79       1.0  0.21174  0.15859  0.46927  1.0000
  C   C54       1.0  0.35022  0.17236  0.42572  1.0000
  H   H80       1.0  0.29240  0.25518  0.25629  1.0000
  N   N4        1.0  0.13660  0.16608  0.29150  1.0000
  S   S24       1.0  0.16904  0.21699  0.48441  1.0000
  H   H81       1.0  0.02476  0.09197  0.45957  1.0000
  Fe  Fe13      1.0  0.24695  0.26852  0.47186  1.0000
  C   C55       1.0  0.04673  0.24592  0.44979  1.0000
  H   H82       1.0  0.04803  0.22442  0.43636  1.0000
  S   S25       1.0  0.09631  0.10101  0.47435  1.0000
  C   C56       1.0  0.07862  0.26168  0.43590  1.0000
  H   H83       1.0  0.08183  0.15525  0.34480  1.0000
  Fe  Fe14      1.0  0.99686  0.18390  0.54492  1.0000
  Fe  Fe15      1.0  0.43789  0.16573  0.56813  1.0000
  H   H84       1.0  0.30231  0.03102  0.42226  1.0000
  H   H85       1.0  0.18958  0.18480  0.25050  1.0000
  S   S26       1.0  0.44698  0.09097  0.30912  1.0000
  C   C57       1.0  0.08293  0.25048  0.89427  1.0000
  S   S27       1.0  0.39855  0.13028  0.63837  1.0000
  S   S28       1.0  0.42692  0.19729  0.63327  1.0000
  H   H86       1.0  0.03516  0.20650  0.68721  1.0000
  C   C58       1.0  0.29908  0.07902  0.74044  1.0000
  Fe  Fe16      1.0  0.39222  0.15883  0.70805  1.0000
  H   H87       1.0  0.31364  0.09579  0.84018  1.0000
  C   C59       1.0  0.18375  0.11706  0.90050  1.0000
  S   S29       1.0  0.04569  0.13721  0.76200  1.0000
  H   H88       1.0  0.28602  0.06422  0.72085  1.0000
  H   H89       1.0  0.96405  0.20044  0.77023  1.0000
  H   H90       1.0  0.27653  0.09591  0.75685  1.0000
  C   C60       1.0  0.08733  0.26896  0.64770  1.0000
  N   N5        1.0  0.08052  0.23446  0.66919  1.0000
  H   H91       1.0  0.43391  0.03637  0.59543  1.0000
  H   H92       1.0  0.20654  0.18555  0.79582  1.0000
  C   C61       1.0  0.26550  0.16642  0.66798  1.0000
  C   C62       1.0  0.42250  0.02945  0.90609  1.0000
  S   S30       1.0  0.03248  0.09528  0.63565  1.0000
  H   H93       1.0  0.10210  0.11695  0.66549  1.0000
  C   C63       1.0  0.09743  0.09710  0.83556  1.0000
  H   H94       1.0  0.32474  0.15816  0.66033  1.0000
  H   H95       1.0  0.11660  0.27152  0.64816  1.0000
  Fe  Fe17      1.0  0.29918  0.02813  0.62592  1.0000
  H   H96       1.0  0.34995  0.06354  0.86488  1.0000
  N   N6        1.0  0.31865  0.05820  0.79676  1.0000
  C   C64       1.0  0.10292  0.21978  0.61989  1.0000
  H   H97       1.0  0.42012  0.03175  0.85524  1.0000
  C   C65       1.0  0.13062  0.07680  0.84332  1.0000
  C   C66       1.0  0.23221  0.17844  0.76759  1.0000
  H   H98       1.0  0.07375  0.22579  0.77621  1.0000
  H   H99       1.0  0.26536  0.16260  0.62104  1.0000
  C   C67       1.0  0.29905  0.16332  0.69083  1.0000
  C   C68       1.0  0.95512  0.22368  0.87189  1.0000
  H   H100      1.0  0.35462  0.26054  0.64685  1.0000
  S   S31       1.0  0.19074  0.18208  0.67394  1.0000
  H   H101      1.0  0.97338  0.11091  0.79349  1.0000
  H   H102      1.0  0.28389  0.22974  0.66394  1.0000
  H   H103      1.0  0.26572  0.17897  0.83784  1.0000
  H   H104      1.0  0.10051  0.19324  0.63643  1.0000
  H   H105      1.0  0.36866  0.05055  0.72964  1.0000
  C   C69       1.0  0.23215  0.17446  0.70586  1.0000
  C   C70       1.0  0.26568  0.17494  0.79095  1.0000
  H   H106      1.0  0.26896  0.05434  0.87117  1.0000
  H   H107      1.0  0.13807  0.06483  0.89318  1.0000
  H   H108      1.0  0.26168  0.26439  0.60685  1.0000
  H   H109      1.0  0.02308  0.24308  0.70877  1.0000
  C   C71       1.0  0.08718  0.11177  0.77147  1.0000
  C   C72       1.0  0.14329  0.08566  0.72288  1.0000
  S   S32       1.0  0.35527  0.04492  0.60125  1.0000
  H   H110      1.0  0.31839  0.09369  0.69728  1.0000
  C   C73       1.0  0.09108  0.27086  0.82723  1.0000
  H   H111      1.0  0.32978  0.23758  0.72701  1.0000
  C   C74       1.0  0.29913  0.16781  0.75209  1.0000
  C   C75       1.0  0.28769  0.25465  0.62834  1.0000
  C   C76       1.0  0.09120  0.21663  0.73660  1.0000
  S   S33       1.0  0.34068  0.16618  0.77954  1.0000
  H   H112      1.0  0.35563  0.09349  0.78182  1.0000
  C   C77       1.0  0.04092  0.23222  0.67206  1.0000
  H   H113      1.0  0.97225  0.08382  0.74847  1.0000
  H   H114      1.0  0.31020  0.25298  0.58592  1.0000
  C   C78       1.0  0.29205  0.03868  0.85212  1.0000
  H   H115      1.0  0.17184  0.12796  0.85267  1.0000
  H   H116      1.0  0.13262  0.22272  0.61398  1.0000
  C   C79       1.0  0.33513  0.07871  0.82216  1.0000
  S   S34       1.0  0.24986  0.06436  0.60904  1.0000
  H   H117      1.0  0.12070  0.21882  0.73643  1.0000
  H   H118      1.0  0.00318  0.14991  0.88374  1.0000
  S   S35       1.0  0.43920  0.12972  0.76006  1.0000
  H   H119      1.0  0.95206  0.16047  0.82013  1.0000
  H   H120      1.0  0.01720  0.18933  0.83288  1.0000
  Fe  Fe18      1.0  0.97622  0.11467  0.60982  1.0000
  C   C80       1.0  0.10990  0.10578  0.71521  1.0000
  C   C81       1.0  0.15382  0.07150  0.78686  1.0000
  Fe  Fe19      1.0  0.03004  0.13879  0.66606  1.0000
  H   H121      1.0  0.07922  0.10074  0.87937  1.0000
  C   C82       1.0  0.14176  0.25821  0.91530  1.0000
  H   H122      1.0  0.08828  0.19022  0.75238  1.0000
  H   H123      1.0  0.26485  0.25129  0.76033  1.0000
  H   H124      1.0  0.16101  0.08146  0.67913  1.0000
  H   H125      1.0  0.98556  0.06847  0.83078  1.0000
  C   C83       1.0  0.34848  0.03652  0.77222  1.0000
  S   S36       1.0  0.97160  0.15560  0.64981  1.0000
  H   H126      1.0  0.38975  0.14579  0.88861  1.0000
  C   C84       1.0  0.96622  0.08665  0.79919  1.0000
  C   C85       1.0  0.33160  0.26228  0.68838  1.0000
  S   S37       1.0  0.19568  0.04684  0.79763  1.0000
  Fe  Fe20      1.0  0.22230  0.03186  0.70790  1.0000
  H   H127      1.0  0.97291  0.23830  0.82603  1.0000
  H   H128      1.0  0.15021  0.17731  0.88720  1.0000
  H   H129      1.0  0.37596  0.10982  0.88464  1.0000
  N   N7        1.0  0.95960  0.18907  0.87766  1.0000
  C   C86       1.0  0.99882  0.17604  0.87940  1.0000
  H   H130      1.0  0.21281  0.12317  0.88881  1.0000
  H   H131      1.0  0.03225  0.24524  0.62170  1.0000
  S   S38       1.0  0.31597  0.27130  0.85305  1.0000
  C   C87       1.0  0.94780  0.18607  0.81866  1.0000
  H   H132      1.0  0.18489  0.09015  0.91532  1.0000
  H   H133      1.0  0.42678  0.30960  0.94868  1.0000
  H   H134      1.0  0.34870  0.28407  0.20212  1.0000
  H   H135      1.0  0.35958  0.32833  0.96753  1.0000
  H   H136      1.0  0.95171  0.40450  0.03343  1.0000
  C   C88       1.0  0.09089  0.39742  0.14747  1.0000
  H   H137      1.0  0.09816  0.49913  0.92426  1.0000
  C   C89       1.0  0.27679  0.27527  0.22055  1.0000
  Fe  Fe21      1.0  0.38798  0.37506  0.05724  1.0000
  H   H138      1.0  0.10934  0.33292  0.98914  1.0000
  C   C90       1.0  0.05427  0.35706  0.14705  1.0000
  H   H139      1.0  0.32870  0.51437  0.21371  1.0000
  S   S39       1.0  0.41956  0.32619  0.06972  1.0000
  N   N8        1.0  0.14726  0.36825  0.92864  1.0000
  H   H140      1.0  0.22044  0.51873  0.23140  1.0000
  C   C91       1.0  0.15698  0.28388  0.15019  1.0000
  H   H141      1.0  0.35739  0.44616  0.99962  1.0000
  H   H142      1.0  0.94833  0.32715  0.00425  1.0000
  H   H143      1.0  0.24081  0.33333  0.17406  1.0000
  C   C92       1.0  0.30840  0.42142  0.02413  1.0000
  S   S40       1.0  0.10536  0.47758  0.23688  1.0000
  C   C93       1.0  0.33152  0.30308  0.16728  1.0000
  H   H144      1.0  0.19030  0.34005  0.98449  1.0000
  N   N9        1.0  0.29261  0.30645  0.20028  1.0000
  H   H145      1.0  0.33064  0.41868  0.20865  1.0000
  H   H146      1.0  0.41463  0.45827  0.03002  1.0000
  C   C94       1.0  0.41872  0.47917  0.04085  1.0000
  H   H147      1.0  0.10033  0.39143  0.97838  1.0000
  S   S41       1.0  0.24414  0.51820  0.02767  1.0000
  H   H148      1.0  0.18402  0.38226  0.97653  1.0000
  H   H149      1.0  0.30087  0.50715  0.16204  1.0000
  S   S42       1.0  0.19201  0.46033  0.18202  1.0000
  Fe  Fe22      1.0  0.13737  0.45523  0.16053  1.0000
  S   S43       1.0  0.97936  0.36419  0.15775  1.0000
  C   C95       1.0  0.16919  0.36123  0.98320  1.0000
  H   H150      1.0  0.33372  0.29604  0.12169  1.0000
  H   H151      1.0  0.05266  0.33277  0.14779  1.0000
  H   H152      1.0  0.34410  0.32628  0.15066  1.0000
  C   C96       1.0  0.08849  0.36658  0.14610  1.0000
  C   C97       1.0  0.30766  0.47839  0.00982  1.0000
  C   C98       1.0  0.02207  0.37822  0.15034  1.0000
  C   C99       1.0  0.10188  0.27562  0.23586  1.0000
  H   H153      1.0  0.40151  0.36804  0.94352  1.0000
  C   C100      1.0  0.44036  0.47598  0.08926  1.0000
  C   C101      1.0  0.00060  0.36855  0.97009  1.0000
  S   S44       1.0  0.13682  0.50136  0.07156  1.0000
  H   H154      1.0  0.00606  0.36479  0.02158  1.0000
  C   C102      1.0  0.11934  0.39625  0.92892  1.0000
  S   S45       1.0  0.20108  0.29751  0.12082  1.0000
  Fe  Fe23      1.0  0.43131  0.32825  0.16571  1.0000
  S   S46       1.0  0.39500  0.37464  0.15851  1.0000
  H   H155      1.0  0.25475  0.40397  0.04650  1.0000
  H   H156      1.0  0.18949  0.48257  0.95436  1.0000
  H   H157      1.0  0.96034  0.28546  0.21477  1.0000
  H   H158      1.0  0.38510  0.51193  0.96899  1.0000
  C   C103      1.0  0.05904  0.41939  0.14697  1.0000
  H   H159      1.0  0.14898  0.29683  0.24023  1.0000
  H   H160      1.0  0.24723  0.27673  0.24476  1.0000
  H   H161      1.0  0.15143  0.35520  0.03399  1.0000
  S   S47       1.0  0.13366  0.40656  0.15463  1.0000
  C   C104      1.0  0.40167  0.50957  0.00671  1.0000
  C   C105      1.0  0.12853  0.33941  0.93985  1.0000
  C   C106      1.0  0.32893  0.44516  0.17983  1.0000
  H   H162      1.0  0.99978  0.42635  0.15034  1.0000
  N   N10       1.0  0.96068  0.37682  0.96615  1.0000
  H   H163      1.0  0.27353  0.32740  0.10412  1.0000
  C   C107      1.0  0.25002  0.45423  0.03834  1.0000
  C   C108      1.0  0.32731  0.49919  0.18285  1.0000
  C   C109      1.0  0.13710  0.28651  0.21142  1.0000
  H   H164      1.0  0.30290  0.45189  0.15777  1.0000
  N   N11       1.0  0.32998  0.46424  0.22343  1.0000
  H   H165      1.0  0.14904  0.31786  0.94071  1.0000
  H   H166      1.0  0.01707  0.38833  0.93359  1.0000
  H   H167      1.0  0.35030  0.50483  0.13895  1.0000
  H   H168      1.0  0.22014  0.45620  0.04910  1.0000
  C   C110      1.0  0.26892  0.48123  0.02462  1.0000
  C   C111      1.0  0.32747  0.44834  0.01064  1.0000
  H   H169      1.0  0.38945  0.45984  0.20938  1.0000
  C   C112      1.0  0.27088  0.33201  0.15274  1.0000
  H   H170      1.0  0.06098  0.44359  0.14619  1.0000
  H   H171      1.0  0.32233  0.49926  0.99885  1.0000
  Fe  Fe24      1.0  0.19002  0.50756  0.09729  1.0000
  C   C113      1.0  0.02445  0.40963  0.14929  1.0000
  H   H172      1.0  0.01142  0.34587  0.95841  1.0000
  H   H173      1.0  0.35246  0.44940  0.13670  1.0000
  H   H174      1.0  0.96275  0.42775  0.94549  1.0000
  H   H175      1.0  0.06409  0.45658  0.92135  1.0000
  H   H176      1.0  0.11309  0.34967  0.14620  1.0000
  S   S48       1.0  0.33221  0.38342  0.02681  1.0000
  S   S49       1.0  0.43684  0.40256  0.00018  1.0000
  C   C114      1.0  0.26967  0.42457  0.03693  1.0000
  H   H177      1.0  0.28013  0.35630  0.14063  1.0000
  H   H178      1.0  0.26012  0.30454  0.92644  1.0000
  H   H179      1.0  0.20205  0.52345  0.92089  1.0000
  C   C115      1.0  0.94755  0.40711  0.98176  1.0000
  Fe  Fe25      1.0  0.44644  0.39861  0.10299  1.0000
  C   C116      1.0  0.44512  0.50335  0.10339  1.0000
  H   H180      1.0  0.13274  0.41844  0.91963  1.0000
  H   H181      1.0  0.30671  0.33691  0.24837  1.0000
  C   C117      1.0  0.01134  0.28638  0.49614  1.0000
  N   N12       1.0  0.18887  0.38100  0.37771  1.0000
  C   C118      1.0  0.02543  0.39461  0.56306  1.0000
  C   C119      1.0  0.05641  0.39737  0.38291  1.0000
  H   H182      1.0  0.14593  0.42070  0.35944  1.0000
  S   S50       1.0  0.28835  0.30182  0.46207  1.0000
  C   C120      1.0  0.30203  0.46003  0.53800  1.0000
  H   H183      1.0  0.99027  0.42905  0.28262  1.0000
  C   C121      1.0  0.19857  0.35207  0.43476  1.0000
  C   C122      1.0  0.04336  0.30182  0.48325  1.0000
  H   H184      1.0  0.99397  0.28810  0.30057  1.0000
  H   H185      1.0  0.05372  0.37540  0.28375  1.0000
  C   C123      1.0  0.18225  0.37100  0.32262  1.0000
  H   H186      1.0  0.15935  0.35509  0.34026  1.0000
  H   H187      1.0  0.29231  0.47246  0.57435  1.0000
  C   C124      1.0  0.06361  0.39675  0.54577  1.0000
  C   C125      1.0  0.07696  0.28939  0.45335  1.0000
  H   H188      1.0  0.20685  0.35908  0.47416  1.0000
  C   C126      1.0  0.28189  0.43600  0.53810  1.0000
  H   H189      1.0  0.96170  0.32227  0.30474  1.0000
  H   H190      1.0  0.39561  0.51595  0.35660  1.0000
  H   H191      1.0  0.00497  0.37118  0.30233  1.0000
  S   S51       1.0  0.98457  0.48858  0.51530  1.0000
  C   C127      1.0  0.96647  0.29545  0.32669  1.0000
  H   H192      1.0  0.06300  0.47856  0.46990  1.0000
  C   C128      1.0  0.34658  0.45168  0.44398  1.0000
  H   H193      1.0  0.37206  0.45714  0.40879  1.0000
  C   C129      1.0  0.29859  0.45765  0.28026  1.0000
  H   H194      1.0  0.99679  0.36651  0.45345  1.0000
  H   H195      1.0  0.98504  0.40927  0.43705  1.0000
  N   N13       1.0  0.02280  0.39691  0.35678  1.0000
  H   H196      1.0  0.08093  0.40162  0.34190  1.0000
  C   C130      1.0  0.29463  0.41903  0.49267  1.0000
  H   H197      1.0  0.00728  0.44837  0.32945  1.0000
  S   S52       1.0  0.17620  0.47900  0.35002  1.0000
  H   H198      1.0  0.21438  0.48658  0.44710  1.0000
  S   S53       1.0  0.11693  0.30791  0.44088  1.0000
  C   C131      1.0  0.05234  0.45526  0.49591  1.0000
  S   S54       1.0  0.09427  0.36154  0.56744  1.0000
  H   H199      1.0  0.96555  0.38909  0.39522  1.0000
  H   H200      1.0  0.34238  0.34470  0.38011  1.0000
  C   C132      1.0  0.29141  0.31543  0.26067  1.0000
  H   H201      1.0  0.03833  0.43584  0.26483  1.0000
  H   H202      1.0  0.03483  0.34700  0.36187  1.0000
  H   H203      1.0  0.39798  0.33750  0.29727  1.0000
  C   C133      1.0  0.02925  0.37154  0.32482  1.0000
  H   H204      1.0  0.36841  0.42864  0.28078  1.0000
  S   S55       1.0  0.27126  0.38697  0.49672  1.0000
  S   S56       1.0  0.17172  0.41503  0.56538  1.0000
  H   H205      1.0  0.13170  0.38358  0.42395  1.0000
  H   H206      1.0  0.04244  0.32268  0.49863  1.0000
  H   H207      1.0  0.24620  0.38808  0.33832  1.0000
  H   H208      1.0  0.98169  0.52131  0.34659  1.0000
  H   H209      1.0  0.17430  0.39229  0.27911  1.0000
  C   C134      1.0  0.22611  0.50133  0.39675  1.0000
  C   C135      1.0  0.21971  0.40170  0.35289  1.0000
  H   H210      1.0  0.22400  0.41083  0.39271  1.0000
  H   H211      1.0  0.98553  0.29550  0.52083  1.0000
  C   C136      1.0  0.15493  0.39917  0.40137  1.0000
  H   H212      1.0  0.27158  0.46380  0.26167  1.0000
  C   C137      1.0  0.21282  0.50148  0.34019  1.0000
  H   H213      1.0  0.17486  0.33721  0.45943  1.0000
  C   C138      1.0  0.33023  0.29511  0.41167  1.0000
  H   H214      1.0  0.05280  0.41692  0.40539  1.0000
  Fe  Fe26      1.0  0.22243  0.37960  0.58119  1.0000
  H   H215      1.0  0.32180  0.30968  0.57113  1.0000
  H   H216      1.0  0.15956  0.40812  0.44095  1.0000
  C   C139      1.0  0.38212  0.31726  0.32668  1.0000
  H   H217      1.0  0.06316  0.37393  0.42289  1.0000
  H   H218      1.0  0.96856  0.28908  0.38092  1.0000
  H   H219      1.0  0.26256  0.32139  0.28304  1.0000
  H   H220      1.0  0.21401  0.42340  0.30885  1.0000
  H   H221      1.0  0.22233  0.33643  0.41798  1.0000
  C   C140      1.0  0.39264  0.28711  0.31775  1.0000
  H   H222      1.0  0.30413  0.29515  0.30018  1.0000
  C   C141      1.0  0.33454  0.46772  0.49140  1.0000
  C   C142      1.0  0.07704  0.42708  0.51170  1.0000
  C   C143      1.0  0.32682  0.42706  0.44512  1.0000
  C   C144      1.0  0.01437  0.42894  0.30607  1.0000
  H   H223      1.0  0.20720  0.35731  0.30322  1.0000
  C   C145      1.0  0.35105  0.32120  0.37409  1.0000
  S   S57       1.0  0.36175  0.49513  0.49688  1.0000
  H   H224      1.0  0.33701  0.41359  0.41070  1.0000
  H   H225      1.0  0.07036  0.48460  0.57818  1.0000
  H   H226      1.0  0.29813  0.47211  0.31363  1.0000
  C   C146      1.0  0.99123  0.39003  0.41314  1.0000
  S   S58       1.0  0.42934  0.28273  0.25468  1.0000
  H   H227      1.0  0.30016  0.43164  0.31286  1.0000
  H   H228      1.0  0.10642  0.42899  0.49782  1.0000
  C   C147      1.0  0.01433  0.45330  0.51811  1.0000
  C   C148      1.0  0.00082  0.42296  0.55070  1.0000
  H   H229      1.0  0.43245  0.28301  0.43615  1.0000
  H   H230      1.0  0.08677  0.27749  0.28358  1.0000
  H   H231      1.0  0.36662  0.46877  0.28424  1.0000
  C   C149      1.0  0.22892  0.51981  0.27539  1.0000
  S   S59       1.0  0.21837  0.27624  0.38478  1.0000
  H   H232      1.0  0.97139  0.42141  0.56805  1.0000
  H   H233      1.0  0.25682  0.43029  0.57427  1.0000
  H   H234      1.0  0.26535  0.51975  0.43187  1.0000
  C   C150      1.0  0.25478  0.52020  0.38817  1.0000
  H   H235      1.0  0.10755  0.52200  0.47740  1.0000
  C   C151      1.0  0.36515  0.45496  0.25070  1.0000
  Fe  Fe27      1.0  0.16030  0.48732  0.24936  1.0000
  C   C152      1.0  0.08241  0.50436  0.88388  1.0000
  Fe  Fe28      1.0  0.97510  0.46544  0.76502  1.0000
  N   N14       1.0  0.21113  0.49882  0.84813  1.0000
  H   H236      1.0  0.33424  0.32811  0.73640  1.0000
  H   H237      1.0  0.16490  0.48020  0.83296  1.0000
  H   H238      1.0  0.39118  0.33373  0.78709  1.0000
  S   S60       1.0  0.19161  0.33528  0.61780  1.0000
  H   H239      1.0  0.43462  0.48257  0.78700  1.0000
  Fe  Fe29      1.0  0.31615  0.44823  0.74627  1.0000
  S   S61       1.0  0.39326  0.50550  0.65104  1.0000
  H   H240      1.0  0.19773  0.44976  0.87771  1.0000
  C   C153      1.0  0.16594  0.48811  0.66834  1.0000
  S   S62       1.0  0.22224  0.37881  0.68658  1.0000
  Fe  Fe30      1.0  0.14086  0.37075  0.60775  1.0000
  C   C154      1.0  0.25009  0.48787  0.85733  1.0000
  C   C155      1.0  0.19484  0.47348  0.83645  1.0000
  H   H241      1.0  0.96409  0.35902  0.88368  1.0000
  Fe  Fe31      1.0  0.35588  0.48663  0.60745  1.0000
  H   H242      1.0  0.31512  0.38666  0.71733  1.0000
  C   C156      1.0  0.29911  0.30881  0.61472  1.0000
  Fe  Fe32      1.0  0.95764  0.47937  0.62362  1.0000
  H   H243      1.0  0.27324  0.31899  0.59293  1.0000
  Fe  Fe33      1.0  0.34223  0.51266  0.72408  1.0000
  C   C157      1.0  0.31414  0.33555  0.77388  1.0000
  H   H244      1.0  0.43542  0.37757  0.86867  1.0000
  S   S63       1.0  0.01824  0.45497  0.83203  1.0000
  H   H245      1.0  0.20077  0.47335  0.58798  1.0000
  H   H246      1.0  0.26999  0.29282  0.74483  1.0000
  C   C158      1.0  0.06304  0.48019  0.88233  1.0000
  H   H247      1.0  0.30422  0.32554  0.63940  1.0000
  H   H248      1.0  0.38808  0.39519  0.86634  1.0000
  C   C159      1.0  0.18866  0.49359  0.60494  1.0000
  Fe  Fe34      1.0  0.16926  0.41103  0.67333  1.0000
  H   H249      1.0  0.33847  0.35614  0.89825  1.0000
  H   H250      1.0  0.13082  0.30027  0.75179  1.0000
  H   H251      1.0  0.37515  0.37458  0.78417  1.0000
  S   S64       1.0  0.36464  0.43535  0.67547  1.0000
  C   C160      1.0  0.39692  0.35429  0.80043  1.0000
  S   S65       1.0  0.15426  0.44954  0.72107  1.0000
  H   H252      1.0  0.07111  0.27646  0.79364  1.0000
  H   H253      1.0  0.09202  0.49590  0.63256  1.0000
  C   C161      1.0  0.04008  0.51744  0.78189  1.0000
  C   C162      1.0  0.06846  0.50272  0.60378  1.0000
  S   S66       1.0  0.13339  0.37023  0.71427  1.0000
  C   C163      1.0  0.27951  0.37835  0.81395  1.0000
  S   S67       1.0  0.26933  0.41912  0.80686  1.0000
  H   H254      1.0  0.11250  0.34342  0.89864  1.0000
  H   H255      1.0  0.33929  0.27783  0.71316  1.0000
  C   C164      1.0  0.17207  0.37597  0.86247  1.0000
  C   C165      1.0  0.27297  0.32220  0.88155  1.0000
  H   H256      1.0  0.42392  0.36265  0.77016  1.0000
  C   C166      1.0  0.04186  0.48651  0.83139  1.0000
  H   H257      1.0  0.19190  0.35468  0.85848  1.0000
  S   S68       1.0  0.35068  0.46353  0.80145  1.0000
  H   H258      1.0  0.26301  0.50597  0.86824  1.0000
  C   C167      1.0  0.36041  0.33555  0.91194  1.0000
  C   C168      1.0  0.14995  0.27849  0.84791  1.0000
  Fe  Fe35      1.0  0.18655  0.33804  0.72166  1.0000
  C   C169      1.0  0.95487  0.38145  0.89706  1.0000
  H   H259      1.0  0.24556  0.36261  0.91174  1.0000
  C   C170      1.0  0.30400  0.36868  0.76374  1.0000
  Fe  Fe36      1.0  0.39847  0.45472  0.72446  1.0000
  C   C171      1.0  0.40600  0.37263  0.88850  1.0000
  H   H260      1.0  0.26696  0.48389  0.81126  1.0000
  S   S69       1.0  0.19113  0.29698  0.81915  1.0000
  H   H261      1.0  0.16073  0.51453  0.90341  1.0000
  N   N15       1.0  0.29619  0.27538  0.66291  1.0000
  H   H262      1.0  0.04274  0.49978  0.64177  1.0000
  C   C172      1.0  0.29911  0.31231  0.83363  1.0000
  H   H263      1.0  0.01495  0.37119  0.58935  1.0000
  S   S70       1.0  0.30439  0.49805  0.67410  1.0000
  H   H264      1.0  0.13239  0.51005  0.73835  1.0000
  C   C173      1.0  0.12460  0.28476  0.80392  1.0000
  N   N16       1.0  0.39722  0.34487  0.87373  1.0000
  C   C174      1.0  0.26391  0.35513  0.87250  1.0000
  S   S71       1.0  0.97257  0.43328  0.70596  1.0000
  H   H265      1.0  0.97068  0.40113  0.85855  1.0000
  S   S72       1.0  0.96448  0.51146  0.68001  1.0000
  H   H266      1.0  0.15618  0.38326  0.82010  1.0000
  H   H267      1.0  0.35275  0.31472  0.90198  1.0000
  H   H268      1.0  0.41958  0.29578  0.88343  1.0000
  C   C175      1.0  0.42555  0.31713  0.89386  1.0000
  H   H269      1.0  0.18845  0.39644  0.85332  1.0000
  H   H270      1.0  0.20876  0.46951  0.78820  1.0000
  H   H271      1.0  0.25258  0.46440  0.89948  1.0000
  H   H272      1.0  0.23868  0.28301  0.70372  1.0000
  C   C176      1.0  0.15047  0.51417  0.69004  1.0000
  H   H273      1.0  0.10225  0.40217  0.88825  1.0000
  C   C177      1.0  0.26618  0.27562  0.72027  1.0000
  H   H274      1.0  0.08195  0.28262  0.59520  1.0000
  H   H275      1.0  0.06933  0.28160  0.68109  1.0000
  C   C178      1.0  0.18993  0.50509  0.90947  1.0000
  H   H276      1.0  0.02330  0.52266  0.74316  1.0000
  H   H277      1.0  0.42295  0.73794  0.03357  1.0000
  C   C179      1.0  0.98195  0.71991  0.13616  1.0000
  S   S73       1.0  0.38206  0.58794  0.15623  1.0000
  C   C180      1.0  0.06563  0.58101  0.20465  1.0000
  H   H278      1.0  0.03931  0.62841  0.15504  1.0000
  Fe  Fe37      1.0  0.10879  0.52455  0.14950  1.0000
  Fe  Fe38      1.0  0.32319  0.59469  0.20490  1.0000
  C   C181      1.0  0.19779  0.72047  0.09570  1.0000
  H   H279      1.0  0.99485  0.59074  0.07194  1.0000
  N   N17       1.0  0.36513  0.75269  0.05960  1.0000
  H   H280      1.0  0.39010  0.72950  0.14930  1.0000
  H   H281      1.0  0.14701  0.74067  0.14230  1.0000
  H   H282      1.0  0.39809  0.75391  0.96344  1.0000
  H   H283      1.0  0.18542  0.71849  0.05608  1.0000
  C   C182      1.0  0.42743  0.53371  0.07018  1.0000
  H   H284      1.0  0.23133  0.62623  0.94215  1.0000
  Fe  Fe39      1.0  0.38146  0.64151  0.12780  1.0000
  S   S74       1.0  0.42844  0.66561  0.13207  1.0000
  H   H285      1.0  0.96213  0.57626  0.04132  1.0000
  C   C183      1.0  0.02942  0.55170  0.99984  1.0000
  H   H286      1.0  0.32433  0.72925  0.04078  1.0000
  C   C184      1.0  0.16746  0.63512  0.24512  1.0000
  H   H287      1.0  0.06575  0.60338  0.91758  1.0000
  H   H288      1.0  0.99163  0.76985  0.93647  1.0000
  C   C185      1.0  0.98306  0.70495  0.08829  1.0000
  Fe  Fe40      1.0  0.30578  0.65494  0.08618  1.0000
  H   H289      1.0  0.03193  0.63362  0.93917  1.0000
  C   C186      1.0  0.39581  0.73904  0.01805  1.0000
  H   H290      1.0  0.17823  0.61908  0.21414  1.0000
  Fe  Fe41      1.0  0.35977  0.59971  0.06025  1.0000
  H   H291      1.0  0.30595  0.76341  0.06809  1.0000
  C   C187      1.0  0.24819  0.60266  0.94502  1.0000
  C   C188      1.0  0.95479  0.71325  0.19421  1.0000
  H   H292      1.0  0.97683  0.57474  0.92195  1.0000
  H   H293      1.0  0.23098  0.58689  0.93579  1.0000
  H   H294      1.0  0.31074  0.56296  0.95534  1.0000
  H   H295      1.0  0.35703  0.70731  0.13988  1.0000
  H   H296      1.0  0.39200  0.71390  0.02312  1.0000
  H   H297      1.0  0.95948  0.67040  0.06320  1.0000
  C   C189      1.0  0.17598  0.73270  0.14485  1.0000
  H   H298      1.0  0.03993  0.54643  0.04783  1.0000
  H   H299      1.0  0.31173  0.61815  0.96086  1.0000
  H   H300      1.0  0.43174  0.55491  0.08010  1.0000
  S   S75       1.0  0.38002  0.57360  0.98574  1.0000
  H   H301      1.0  0.00383  0.71018  0.04308  1.0000
  H   H302      1.0  0.05574  0.60372  0.00284  1.0000
  H   H303      1.0  0.00834  0.53469  0.00992  1.0000
  H   H304      1.0  0.24183  0.72765  0.23799  1.0000
  C   C190      1.0  0.05133  0.61295  0.19913  1.0000
  H   H305      1.0  0.05305  0.54589  0.96316  1.0000
  S   S76       1.0  0.26137  0.69202  0.04096  1.0000
  C   C191      1.0  0.32983  0.75384  0.03693  1.0000
  H   H306      1.0  0.44137  0.54745  0.21992  1.0000
  S   S77       1.0  0.09096  0.69998  0.23052  1.0000
  N   N18       1.0  0.01377  0.58591  0.97367  1.0000
  H   H307      1.0  0.25382  0.59072  0.99789  1.0000
  H   H308      1.0  0.97024  0.61830  0.00654  1.0000
  S   S78       1.0  0.01497  0.74640  0.12362  1.0000
  S   S79       1.0  0.36314  0.65299  0.02822  1.0000
  C   C192      1.0  0.36321  0.73216  0.13161  1.0000
  H   H309      1.0  0.34168  0.74254  0.16513  1.0000
  S   S80       1.0  0.06344  0.56526  0.14144  1.0000
  C   C193      1.0  0.23523  0.70999  0.09893  1.0000
  H   H310      1.0  0.28031  0.70621  0.15101  1.0000
  C   C194      1.0  0.25123  0.71317  0.14951  1.0000
  C   C195      1.0  0.04307  0.60764  0.95753  1.0000
  S   S81       1.0  0.30051  0.60225  0.11067  1.0000
  C   C196      1.0  0.19173  0.73480  0.19672  1.0000
  S   S82       1.0  0.41140  0.77060  0.20928  1.0000
  S   S83       1.0  0.32427  0.64764  0.18397  1.0000
  Fe  Fe42      1.0  0.03818  0.73300  0.21961  1.0000
  C   C197      1.0  0.98393  0.59314  0.02562  1.0000
  C   C198      1.0  0.22953  0.72573  0.19822  1.0000
  H   H311      1.0  0.33015  0.76963  0.98313  1.0000
  S   S84       1.0  0.16199  0.53535  0.16605  1.0000
  H   H312      1.0  0.17239  0.66046  0.21219  1.0000
  C   C199      1.0  0.40517  0.53668  0.02271  1.0000
  H   H313      1.0  0.26846  0.55346  0.21681  1.0000
  C   C200      1.0  0.95812  0.68229  0.09990  1.0000
  H   H314      1.0  0.95309  0.72551  0.23034  1.0000
  H   H315      1.0  0.04147  0.64974  0.24626  1.0000
  H   H316      1.0  0.26176  0.56239  0.50574  1.0000
  H   H317      1.0  0.43145  0.59244  0.34270  1.0000
  H   H318      1.0  0.03618  0.56999  0.48322  1.0000
  C   C201      1.0  0.03804  0.54414  0.51643  1.0000
  H   H319      1.0  0.29014  0.64580  0.45010  1.0000
  H   H320      1.0  0.14766  0.58940  0.36488  1.0000
  C   C202      1.0  0.22558  0.62678  0.28525  1.0000
  H   H321      1.0  0.01107  0.53990  0.55071  1.0000
  S   S85       1.0  0.42632  0.62800  0.51988  1.0000
  H   H322      1.0  0.00884  0.54901  0.35486  1.0000
  H   H323      1.0  0.33854  0.76508  0.28621  1.0000
  H   H324      1.0  0.38366  0.55512  0.29818  1.0000
  H   H325      1.0  0.19101  0.58288  0.39454  1.0000
  H   H326      1.0  0.13696  0.63411  0.25904  1.0000
  C   C203      1.0  0.10433  0.53875  0.50688  1.0000
  C   C204      1.0  0.17788  0.59138  0.34819  1.0000
  C   C205      1.0  0.08183  0.57307  0.31382  1.0000
  H   H327      1.0  0.38572  0.55082  0.38342  1.0000
  H   H328      1.0  0.44661  0.53919  0.42255  1.0000
  H   H329      1.0  0.18285  0.64028  0.39166  1.0000
  N   N19       1.0  0.95412  0.56931  0.33411  1.0000
  S   S86       1.0  0.06947  0.61954  0.37324  1.0000
  Fe  Fe43      1.0  0.06205  0.67387  0.33407  1.0000
  H   H330      1.0  0.35013  0.57550  0.54257  1.0000
  C   C206      1.0  0.08100  0.56119  0.26193  1.0000
  H   H331      1.0  0.09360  0.55747  0.35796  1.0000
  H   H332      1.0  0.25389  0.62272  0.45398  1.0000
  H   H333      1.0  0.13953  0.64583  0.36295  1.0000
  Fe  Fe44      1.0  0.10685  0.73242  0.27748  1.0000
  C   C207      1.0  0.98792  0.54712  0.32651  1.0000
  H   H334      1.0  0.21154  0.52997  0.51318  1.0000
  H   H335      1.0  0.12818  0.53221  0.53409  1.0000
  C   C208      1.0  0.06779  0.60501  0.30819  1.0000
  C   C209      1.0  0.31347  0.69180  0.50222  1.0000
  H   H336      1.0  0.09174  0.53644  0.26711  1.0000
  N   N20       1.0  0.43880  0.54786  0.32087  1.0000
  H   H337      1.0  0.23999  0.61859  0.32998  1.0000
  S   S87       1.0  0.34643  0.68918  0.43219  1.0000
  H   H338      1.0  0.06859  0.58462  0.55570  1.0000
  S   S88       1.0  0.08214  0.70348  0.38240  1.0000
  N   N21       1.0  0.06908  0.53619  0.55474  1.0000
  H   H339      1.0  0.42618  0.59740  0.25838  1.0000
  H   H340      1.0  0.00085  0.55258  0.27239  1.0000
  H   H341      1.0  0.17430  0.67270  0.31511  1.0000
  C   C210      1.0  0.28439  0.62205  0.45001  1.0000
  H   H342      1.0  0.97605  0.61093  0.25493  1.0000
  S   S89       1.0  0.05671  0.76799  0.25742  1.0000
  C   C211      1.0  0.27598  0.69807  0.49630  1.0000
  H   H343      1.0  0.30241  0.54282  0.54221  1.0000
  S   S90       1.0  0.99759  0.76187  0.43054  1.0000
  H   H344      1.0  0.29774  0.61994  0.39992  1.0000
  S   S91       1.0  0.30435  0.56415  0.31259  1.0000
  C   C212      1.0  0.24902  0.69618  0.55371  1.0000
  C   C213      1.0  0.26969  0.53956  0.32323  1.0000
  S   S92       1.0  0.00807  0.70467  0.32078  1.0000
  H   H345      1.0  0.97837  0.72871  0.56835  1.0000
  H   H346      1.0  0.30597  0.56093  0.45260  1.0000
  H   H347      1.0  0.07724  0.76045  0.41037  1.0000
  C   C214      1.0  0.29181  0.56395  0.50155  1.0000
  C   C215      1.0  0.27898  0.59799  0.57169  1.0000
  Fe  Fe45      1.0  0.03073  0.73708  0.35970  1.0000
  Fe  Fe46      1.0  0.40455  0.67677  0.45438  1.0000
  H   H348      1.0  0.34439  0.61889  0.50539  1.0000
  H   H349      1.0  0.18869  0.57422  0.31985  1.0000
  C   C216      1.0  0.96373  0.60310  0.30963  1.0000
  H   H350      1.0  0.04138  0.52924  0.48325  1.0000
  H   H351      1.0  0.35418  0.59424  0.45203  1.0000
  H   H352      1.0  0.10636  0.56389  0.47054  1.0000
  N   N22       1.0  0.18522  0.62505  0.30605  1.0000
  C   C217      1.0  0.16988  0.64694  0.34558  1.0000
  H   H353      1.0  0.26771  0.70370  0.44755  1.0000
  S   S93       1.0  0.16396  0.74687  0.26199  1.0000
  H   H354      1.0  0.95602  0.56259  0.43787  1.0000
  H   H355      1.0  0.98395  0.60605  0.33815  1.0000
  C   C218      1.0  0.25679  0.53917  0.26700  1.0000
  S   S94       1.0  0.43213  0.70487  0.49638  1.0000
  S   S95       1.0  0.18139  0.59224  0.53063  1.0000
  C   C219      1.0  0.39929  0.54219  0.34055  1.0000
  N   N23       1.0  0.29846  0.59495  0.50618  1.0000
  H   H356      1.0  0.23206  0.65200  0.25441  1.0000
  S   S96       1.0  0.15661  0.67486  0.57921  1.0000
  H   H357      1.0  0.28307  0.62143  0.57617  1.0000
  C   C220      1.0  0.33860  0.59588  0.50123  1.0000
  H   H358      1.0  0.22035  0.70130  0.54834  1.0000
  C   C221      1.0  0.32401  0.68599  0.56466  1.0000
  C   C222      1.0  0.44213  0.58301  0.29988  1.0000
  H   H359      1.0  0.23790  0.61102  0.25421  1.0000
  C   C223      1.0  0.19504  0.52559  0.56291  1.0000
  H   H360      1.0  0.35303  0.68195  0.56867  1.0000
  H   H361      1.0  0.24865  0.59704  0.57771  1.0000
  C   C224      1.0  0.05273  0.62506  0.25067  1.0000
  C   C225      1.0  0.06009  0.54165  0.78275  1.0000
  S   S97       1.0  0.12208  0.65848  0.74202  1.0000
  H   H362      1.0  0.25942  0.60612  0.81311  1.0000
  C   C226      1.0  0.42266  0.61381  0.69884  1.0000
  H   H363      1.0  0.33143  0.63233  0.87314  1.0000
  S   S98       1.0  0.95769  0.72598  0.89080  1.0000
  H   H364      1.0  0.97380  0.75356  0.61968  1.0000
  C   C227      1.0  0.15671  0.54573  0.64841  1.0000
  H   H365      1.0  0.10524  0.73549  0.69705  1.0000
  H   H366      1.0  0.99486  0.67154  0.85434  1.0000
  H   H367      1.0  0.03828  0.55948  0.62474  1.0000
  C   C228      1.0  0.29691  0.68454  0.62213  1.0000
  H   H368      1.0  0.29984  0.62724  0.78832  1.0000
  C   C229      1.0  0.99869  0.59103  0.91168  1.0000
  C   C230      1.0  0.16785  0.75828  0.61832  1.0000
  S   S99       1.0  0.05949  0.71630  0.62295  1.0000
  H   H369      1.0  0.19801  0.76086  0.60884  1.0000
  C   C231      1.0  0.98860  0.72363  0.81863  1.0000
  S   S100      1.0  0.09653  0.62139  0.65205  1.0000
  H   H370      1.0  0.18042  0.53799  0.78174  1.0000
  C   C232      1.0  0.25934  0.68811  0.61722  1.0000
  H   H371      1.0  0.38639  0.65563  0.65434  1.0000
  C   C233      1.0  0.02514  0.69092  0.75358  1.0000
  Fe  Fe47      1.0  0.17802  0.65906  0.67739  1.0000
  H   H372      1.0  0.22467  0.52494  0.74165  1.0000
  H   H373      1.0  0.39736  0.53697  0.77655  1.0000
  H   H374      1.0  0.33198  0.62462  0.68206  1.0000
  S   S101      1.0  0.10617  0.56464  0.83885  1.0000
  H   H375      1.0  0.25666  0.64577  0.81973  1.0000
  C   C234      1.0  0.16532  0.74237  0.73923  1.0000
  H   H376      1.0  0.30512  0.67935  0.67073  1.0000
  C   C235      1.0  0.10917  0.76075  0.69102  1.0000
  C   C236      1.0  0.00224  0.69323  0.81293  1.0000
  C   C237      1.0  0.96254  0.73293  0.61511  1.0000
  H   H377      1.0  0.43089  0.75390  0.84575  1.0000
  H   H378      1.0  0.15224  0.74734  0.78673  1.0000
  C   C238      1.0  0.36096  0.57911  0.73200  1.0000
  H   H379      1.0  0.02072  0.58611  0.87134  1.0000
  C   C239      1.0  0.35785  0.61249  0.69808  1.0000
  Fe  Fe48      1.0  0.12218  0.60724  0.74548  1.0000
  C   C240      1.0  0.02001  0.74962  0.70493  1.0000
  H   H380      1.0  0.14295  0.56531  0.66537  1.0000
  C   C241      1.0  0.42582  0.58035  0.73405  1.0000
  C   C242      1.0  0.39488  0.56291  0.75040  1.0000
  Fe  Fe49      1.0  0.10068  0.67255  0.64418  1.0000
  S   S102      1.0  0.32240  0.55791  0.74870  1.0000
  H   H381      1.0  0.96885  0.71089  0.65842  1.0000
  Fe  Fe50      1.0  0.15550  0.62199  0.59768  1.0000
  S   S103      1.0  0.18088  0.60650  0.69165  1.0000
  H   H382      1.0  0.03523  0.66735  0.74899  1.0000
  C   C243      1.0  0.30472  0.62874  0.90894  1.0000
  H   H383      1.0  0.19561  0.74405  0.73183  1.0000
  C   C244      1.0  0.03353  0.71913  0.69917  1.0000
  H   H384      1.0  0.28928  0.57815  0.61525  1.0000
  C   C245      1.0  0.08144  0.53507  0.83378  1.0000
  H   H385      1.0  0.16180  0.71676  0.74707  1.0000
  C   C246      1.0  0.99781  0.75189  0.76497  1.0000
  H   H386      1.0  0.08720  0.55303  0.62406  1.0000
  H   H387      1.0  0.28923  0.65305  0.90397  1.0000
  H   H388      1.0  0.16502  0.73305  0.62217  1.0000
  N   N24       1.0  0.14884  0.76511  0.68048  1.0000
  C   C247      1.0  0.30482  0.57545  0.90285  1.0000
  H   H389      1.0  0.05847  0.56546  0.74473  1.0000
  H   H390      1.0  0.33196  0.57807  0.86833  1.0000
  C   C248      1.0  0.06563  0.55936  0.59140  1.0000
  C   C249      1.0  0.38859  0.62986  0.68178  1.0000
  C   C250      1.0  0.27426  0.62225  0.82634  1.0000
  S   S104      1.0  0.22562  0.68042  0.69074  1.0000
  H   H391      1.0  0.09355  0.76594  0.73696  1.0000
  H   H392      1.0  0.28991  0.55891  0.89099  1.0000
  N   N25       1.0  0.28298  0.60727  0.89578  1.0000
  H   H393      1.0  0.98594  0.61630  0.89091  1.0000
  C   C251      1.0  0.20957  0.52895  0.78919  1.0000
  H   H394      1.0  0.22217  0.54848  0.79568  1.0000
  H   H395      1.0  0.02618  0.77145  0.66257  1.0000
  C   C252      1.0  0.17836  0.55179  0.58435  1.0000
  H   H396      1.0  0.42977  0.02194  0.08843  1.0000
  S   S105      1.0  0.19449  0.01833  0.05051  1.0000
  H   H397      1.0  0.43256  0.93800  0.95742  1.0000
  H   H398      1.0  0.05143  0.81881  0.97142  1.0000
  H   H399      1.0  0.39236  0.91852  0.96495  1.0000
  S   S106      1.0  0.29599  0.01617  0.06488  1.0000
  S   S107      1.0  0.00166  0.99112  0.10816  1.0000
  H   H400      1.0  0.22230  0.83740  0.21690  1.0000
  H   H401      1.0  0.34733  0.88077  0.14439  1.0000
  H   H402      1.0  0.97442  0.79240  0.02926  1.0000
  H   H403      1.0  0.39766  0.78516  0.07102  1.0000
  H   H404      1.0  0.98760  0.83113  0.01904  1.0000
  Fe  Fe51      1.0  0.32794  0.97293  0.04326  1.0000
  H   H405      1.0  0.38891  0.98907  0.07005  1.0000
  H   H406      1.0  0.13448  0.91466  0.92891  1.0000
  Fe  Fe52      1.0  0.96561  0.96774  0.97775  1.0000
  H   H407      1.0  0.40143  0.84029  0.13965  1.0000
  H   H408      1.0  0.03585  0.84609  0.22151  1.0000
  Fe  Fe53      1.0  0.24597  0.99014  0.08842  1.0000
  H   H409      1.0  0.19240  0.80991  0.21561  1.0000
  C   C253      1.0  0.14379  0.93646  0.10745  1.0000
  H   H410      1.0  0.98750  0.84996  0.21721  1.0000
  S   S108      1.0  0.27719  0.94862  0.05734  1.0000
  C   C254      1.0  0.37579  0.83248  0.17146  1.0000
  C   C255      1.0  0.10019  0.98209  0.06070  1.0000
  H   H411      1.0  0.07399  0.99173  0.04386  1.0000
  S   S109      1.0  0.27454  0.87461  0.22683  1.0000
  H   H412      1.0  0.15084  0.91057  0.12820  1.0000
  C   C256      1.0  0.37336  0.79979  0.21125  1.0000
  H   H413      1.0  0.10659  0.98330  0.92947  1.0000
  Fe  Fe54      1.0  0.99390  0.02171  0.00277  1.0000
  C   C257      1.0  0.16997  0.95790  0.09731  1.0000
  C   C258      1.0  0.31243  0.84603  0.21895  1.0000
  H   H414      1.0  0.96840  0.91844  0.22829  1.0000
  H   H415      1.0  0.34898  0.79722  0.08147  1.0000
  C   C259      1.0  0.10889  0.94855  0.08898  1.0000
  C   C260      1.0  0.40467  0.00540  0.02701  1.0000
  Fe  Fe55      1.0  0.02528  0.95195  0.06441  1.0000
  N   N26       1.0  0.00407  0.81661  0.93068  1.0000
  H   H416      1.0  0.11996  0.84819  0.24376  1.0000
  S   S110      1.0  0.97050  0.93273  0.08229  1.0000
  C   C261      1.0  0.16137  0.99142  0.06773  1.0000
  C   C262      1.0  0.34527  0.85557  0.17499  1.0000
  S   S111      1.0  0.33867  0.94732  0.14986  1.0000
  H   H417      1.0  0.43778  0.81548  0.24562  1.0000
  S   S112      1.0  0.07701  0.92179  0.09737  1.0000
  C   C263      1.0  0.12639  0.00348  0.04987  1.0000
  H   H418      1.0  0.43566  0.89512  0.98225  1.0000
  S   S113      1.0  0.36989  0.98664  0.94895  1.0000
  H   H419      1.0  0.18233  0.85291  0.17611  1.0000
  C   C264      1.0  0.37188  0.78580  0.05190  1.0000
  C   C265      1.0  0.40156  0.00821  0.96142  1.0000
  Fe  Fe56      1.0  0.28512  0.92628  0.16627  1.0000
  C   C266      1.0  0.97785  0.81731  0.99260  1.0000
  H   H420      1.0  0.14883  0.96063  0.95665  1.0000
  H   H421      1.0  0.03432  0.91475  0.23097  1.0000
  H   H422      1.0  0.19694  0.94847  0.11151  1.0000
  C   C267      1.0  0.19282  0.83400  0.22055  1.0000
  S   S114      1.0  0.02211  0.98400  0.95722  1.0000
  C   C268      1.0  0.04152  0.80388  0.94762  1.0000
  S   S115      1.0  0.25031  0.96646  0.19833  1.0000
  C   C269      1.0  0.42288  0.91771  0.94837  1.0000
  Fe  Fe57      1.0  0.30331  0.98956  0.17237  1.0000
  H   H423      1.0  0.95424  0.89584  0.00120  1.0000
  H   H424      1.0  0.04194  0.77853  0.98383  1.0000
  H   H425      1.0  0.37516  0.80178  0.99789  1.0000
  H   H426      1.0  0.01459  0.88350  0.17056  1.0000
  H   H427      1.0  0.95001  0.82894  0.98069  1.0000
  C   C270      1.0  0.01011  0.86313  0.21911  1.0000
  H   H428      1.0  0.00392  0.01064  0.22807  1.0000
  S   S116      1.0  0.32080  0.02108  0.22005  1.0000
  H   H429      1.0  0.16020  0.88808  0.24665  1.0000
  H   H430      1.0  0.15593  0.77499  0.57305  1.0000
  S   S117      1.0  0.01282  0.88798  0.57754  1.0000
  H   H431      1.0  0.95743  0.90451  0.31879  1.0000
  N   N27       1.0  0.17052  0.83597  0.28508  1.0000
  C   C271      1.0  0.08788  0.79046  0.46235  1.0000
  C   C272      1.0  0.99705  0.84655  0.34065  1.0000
  H   H432      1.0  0.17087  0.81236  0.39182  1.0000
  H   H433      1.0  0.97192  0.01371  0.42923  1.0000
  S   S118      1.0  0.10104  0.83210  0.52053  1.0000
  C   C273      1.0  0.44632  0.83733  0.37747  1.0000
  H   H434      1.0  0.37588  0.83666  0.29949  1.0000
  C   C274      1.0  0.96598  0.89631  0.27394  1.0000
  H   H435      1.0  0.39684  0.87131  0.29426  1.0000
  C   C275      1.0  0.01112  0.79892  0.49934  1.0000
  C   C276      1.0  0.98433  0.00318  0.27665  1.0000
  C   C277      1.0  0.13185  0.83060  0.28817  1.0000
  H   H436      1.0  0.42942  0.83679  0.42720  1.0000
  H   H437      1.0  0.09393  0.98306  0.53731  1.0000
  C   C278      1.0  0.02660  0.77911  0.46033  1.0000
  N   N28       1.0  0.99346  0.01501  0.32719  1.0000
  H   H438      1.0  0.11754  0.78660  0.44898  1.0000
  H   H439      1.0  0.11393  0.83322  0.33494  1.0000
  H   H440      1.0  0.21569  0.81377  0.33999  1.0000
  C   C279      1.0  0.18617  0.81086  0.34228  1.0000
  H   H441      1.0  0.36705  0.95967  0.40482  1.0000
  C   C280      1.0  0.96727  0.00386  0.39107  1.0000
  C   C281      1.0  0.17126  0.86839  0.28943  1.0000
  H   H442      1.0  0.97017  0.97690  0.41415  1.0000
  H   H443      1.0  0.98149  0.80291  0.51249  1.0000
  H   H444      1.0  0.02531  0.90124  0.32206  1.0000
  H   H445      1.0  0.03466  0.97520  0.36105  1.0000
  H   H446      1.0  0.40528  0.78102  0.35010  1.0000
  S   S119      1.0  0.01836  0.97614  0.52734  1.0000
  C   C282      1.0  0.37506  0.98353  0.36811  1.0000
  H   H447      1.0  0.30698  0.98782  0.44037  1.0000
  H   H448      1.0  0.97467  0.83213  0.34276  1.0000
  H   H449      1.0  0.36679  0.98626  0.31920  1.0000
  C   C283      1.0  0.04169  0.00985  0.51306  1.0000
  C   C284      1.0  0.03164  0.00220  0.33970  1.0000
  H   H450      1.0  0.95598  0.01303  0.26495  1.0000
  H   H451      1.0  0.99040  0.85400  0.38643  1.0000
  N   N29       1.0  0.00102  0.87478  0.27770  1.0000
  H   H452      1.0  0.18500  0.78597  0.34186  1.0000
  C   C285      1.0  0.07881  0.00684  0.52070  1.0000
  H   H453      1.0  0.39997  0.78963  0.42757  1.0000
  N   N30       1.0  0.35739  0.01050  0.39287  1.0000
  C   C286      1.0  0.39175  0.84586  0.32629  1.0000
  S   S120      1.0  0.28396  0.99761  0.57463  1.0000
  H   H454      1.0  0.37350  0.84651  0.37423  1.0000
  H   H455      1.0  0.36149  0.98260  0.49695  1.0000
  H   H456      1.0  0.13003  0.80575  0.28836  1.0000
  H   H457      1.0  0.05802  0.87767  0.27863  1.0000
  H   H458      1.0  0.03945  0.01110  0.37699  1.0000
  H   H459      1.0  0.98491  0.97625  0.29544  1.0000
  H   H460      1.0  0.02295  0.82978  0.34436  1.0000
  H   H461      1.0  0.30649  0.01494  0.35564  1.0000
  H   H462      1.0  0.02176  0.82960  0.54995  1.0000
  C   C287      1.0  0.31663  0.01105  0.40341  1.0000
  C   C288      1.0  0.03397  0.81450  0.51971  1.0000
  H   H463      1.0  0.40585  0.98246  0.35922  1.0000
  C   C289      1.0  0.36933  0.00594  0.45755  1.0000
  C   C290      1.0  0.07235  0.81057  0.50055  1.0000
  N   N31       1.0  0.42681  0.82512  0.33933  1.0000
  H   H464      1.0  0.15454  0.87064  0.33754  1.0000
  C   C291      1.0  0.41872  0.79133  0.37885  1.0000
  H   H465      1.0  0.28474  0.80587  0.29290  1.0000
  C   C292      1.0  0.06502  0.77518  0.44132  1.0000
  H   H466      1.0  0.19996  0.87313  0.28801  1.0000
  H   H467      1.0  0.05218  0.00974  0.29237  1.0000
  C   C293      1.0  0.03103  0.89292  0.27740  1.0000
  H   H468      1.0  0.39990  0.00570  0.45134  1.0000
  C   C294      1.0  0.30998  0.81335  0.25850  1.0000
  H   H469      1.0  0.44450  0.77520  0.39073  1.0000
  C   C295      1.0  0.34041  0.79028  0.25471  1.0000
  S   S121      1.0  0.20017  0.00225  0.66112  1.0000
  H   H470      1.0  0.13862  0.80494  0.71918  1.0000
  H   H471      1.0  0.98518  0.97594  0.65949  1.0000
  Fe  Fe58      1.0  0.03804  0.92663  0.59321  1.0000
  H   H472      1.0  0.43275  0.86886  0.89642  1.0000
  C   C296      1.0  0.17627  0.86100  0.81292  1.0000
  Fe  Fe59      1.0  0.25356  0.97027  0.67540  1.0000
  C   C297      1.0  0.42416  0.01269  0.61173  1.0000
  C   C298      1.0  0.14905  0.87652  0.77251  1.0000
  Fe  Fe60      1.0  0.99955  0.86764  0.69086  1.0000
  H   H473      1.0  0.19674  0.97723  0.82005  1.0000
  C   C299      1.0  0.39884  0.95124  0.65903  1.0000
  H   H474      1.0  0.38559  0.95286  0.84662  1.0000
  C   C300      1.0  0.43670  0.95396  0.65016  1.0000
  H   H475      1.0  0.98658  0.77547  0.76867  1.0000
  C   C301      1.0  0.37374  0.97920  0.64404  1.0000
  C   C302      1.0  0.18169  0.95523  0.83758  1.0000
  H   H476      1.0  0.12653  0.92111  0.84506  1.0000
  C   C303      1.0  0.41988  0.89276  0.86628  1.0000
  H   H477      1.0  0.43236  0.82546  0.68057  1.0000
  H   H478      1.0  0.18256  0.80293  0.66536  1.0000
  H   H479      1.0  0.19708  0.93660  0.65357  1.0000
  S   S122      1.0  0.10524  0.86255  0.79647  1.0000
  C   C304      1.0  0.13644  0.97737  0.91212  1.0000
  H   H480      1.0  0.96287  0.00834  0.68900  1.0000
  H   H481      1.0  0.38880  0.92752  0.67799  1.0000
  S   S123      1.0  0.02084  0.90822  0.70611  1.0000
  S   S124      1.0  0.26066  0.91624  0.72216  1.0000
  H   H482      1.0  0.13902  0.00914  0.77882  1.0000
  N   N32       1.0  0.43329  0.91992  0.87656  1.0000
  N   N33       1.0  0.14166  0.96287  0.85838  1.0000
  S   S125      1.0  0.09482  0.89961  0.59637  1.0000
  C   C305      1.0  0.38646  0.00995  0.62012  1.0000
  H   H483      1.0  0.01035  0.79500  0.85318  1.0000
  H   H484      1.0  0.02453  0.85017  0.83384  1.0000
  S   S126      1.0  0.27344  0.99785  0.72820  1.0000
  H   H485      1.0  0.09540  0.99271  0.81401  1.0000
  C   C306      1.0  0.12551  0.98616  0.79972  1.0000
  H   H486      1.0  0.17039  0.84011  0.85778  1.0000
  H   H487      1.0  0.14982  0.00029  0.89437  1.0000
  H   H488      1.0  0.96552  0.96744  0.74753  1.0000
  H   H489      1.0  0.96345  0.80373  0.88875  1.0000
  H   H490      1.0  0.23216  0.86059  0.82703  1.0000
  C   C307      1.0  0.21861  0.89990  0.73837  1.0000
  H   H491      1.0  0.12887  0.97595  0.75809  1.0000
  C   C308      1.0  0.15292  0.79884  0.67337  1.0000
  H   H492      1.0  0.01458  0.86647  0.90166  1.0000
  Fe  Fe61      1.0  0.06859  0.85974  0.58738  1.0000
  C   C309      1.0  0.41633  0.95103  0.83390  1.0000
  C   C310      1.0  0.12305  0.93275  0.88443  1.0000
  S   S127      1.0  0.94796  0.84905  0.76143  1.0000
  H   H493      1.0  0.42549  0.97209  0.84094  1.0000
  H   H494      1.0  0.19452  0.93687  0.87999  1.0000
  H   H495      1.0  0.13546  0.91599  0.68393  1.0000
  Fe  Fe62      1.0  0.07522  0.87765  0.70825  1.0000
  C   C311      1.0  0.19135  0.91548  0.69792  1.0000
  H   H496      1.0  0.42684  0.89427  0.81217  1.0000
  H   H497      1.0  0.34458  0.97675  0.65166  1.0000
  S   S128      1.0  0.05308  0.83589  0.69924  1.0000
  H   H498      1.0  0.09594  0.77699  0.64695  1.0000
  C   C312      1.0  0.15659  0.90365  0.71479  1.0000
  C   C313      1.0  0.99186  0.79538  0.90111  1.0000
  H   H499      1.0  0.42386  0.95389  0.77934  1.0000
  H   H500      1.0  0.14084  0.81663  0.62942  1.0000
  C   C314      1.0  0.21120  0.87246  0.79541  1.0000
  H   H501      1.0  0.18682  0.94536  0.79541  1.0000
  H   H502      1.0  0.38930  0.89288  0.88114  1.0000
  H   H503      1.0  0.97738  0.86032  0.86704  1.0000
  H   H504      1.0  0.06209  0.80386  0.90155  1.0000
  C   C315      1.0  0.00514  0.84988  0.88122  1.0000
  H   H505      1.0  0.36451  0.02102  0.81267  1.0000
  C   C316      1.0  0.96138  0.98257  0.69492  1.0000
  H   H506      1.0  0.09280  0.93762  0.90095  1.0000
  H   H507      1.0  0.33735  0.02018  0.75364  1.0000
  H   H508      1.0  0.27917  0.02275  0.83503  1.0000
  H   H509      1.0  0.30567  0.02277  0.89579  1.0000
  H   H510      1.0  0.94455  0.17247  0.98613  1.0000
  C   C317      1.0  0.44800  0.04604  0.98269  1.0000
  N   N34       1.0  0.68606  0.16607  0.21787  1.0000
  H   H511      1.0  0.74350  0.07680  0.97234  1.0000
  Fe  Fe63      1.0  0.73928  0.15044  0.00622  1.0000
  H   H512      1.0  0.46214  0.22547  0.18277  1.0000
  S   S129      1.0  0.81588  0.10898  0.19239  1.0000
  C   C318      1.0  0.84992  0.06020  0.14461  1.0000
  C   C319      1.0  0.86325  0.27225  0.92215  1.0000
  H   H513      1.0  0.52510  0.19638  0.16109  1.0000
  H   H514      1.0  0.69771  0.10405  0.12252  1.0000
  H   H515      1.0  0.93545  0.07682  0.18000  1.0000
  N   N35       1.0  0.49167  0.22510  0.08532  1.0000
  S   S130      1.0  0.51061  0.07982  0.14782  1.0000
  C   C320      1.0  0.46676  0.24173  0.12920  1.0000
  Fe  Fe64      1.0  0.80681  0.10968  0.96120  1.0000
  S   S131      1.0  0.47379  0.07169  0.99740  1.0000
  Fe  Fe65      1.0  0.54595  0.03304  0.18542  1.0000
  C   C321      1.0  0.72126  0.14530  0.21169  1.0000
  C   C322      1.0  0.65458  0.14629  0.23742  1.0000
  C   C323      1.0  0.93660  0.17047  0.94071  1.0000
  S   S132      1.0  0.84600  0.13250  0.99365  1.0000
  C   C324      1.0  0.75009  0.05314  0.96693  1.0000
  H   H516      1.0  0.61142  0.13467  0.00127  1.0000
  S   S133      1.0  0.82181  0.06844  0.92014  1.0000
  H   H517      1.0  0.51561  0.23614  0.98001  1.0000
  H   H518      1.0  0.54086  0.23516  0.10952  1.0000
  C   C325      1.0  0.49705  0.24779  0.01484  1.0000
  H   H519      1.0  0.68366  0.18159  0.11163  1.0000
  H   H520      1.0  0.54774  0.20264  0.07551  1.0000
  C   C326      1.0  0.87134  0.03066  0.14898  1.0000
  H   H521      1.0  0.47829  0.26354  0.12829  1.0000
  H   H522      1.0  0.62761  0.16151  0.23740  1.0000
  S   S134      1.0  0.76724  0.10162  0.05791  1.0000
  C   C327      1.0  0.86578  0.23384  0.05726  1.0000
  S   S135      1.0  0.67776  0.15843  0.00817  1.0000
  H   H523      1.0  0.47103  0.17870  0.14076  1.0000
  C   C328      1.0  0.62455  0.11668  0.04147  1.0000
  C   C329      1.0  0.68289  0.19195  0.15211  1.0000
  C   C330      1.0  0.65729  0.12244  0.05595  1.0000
  S   S136      1.0  0.66374  0.27019  0.16927  1.0000
  C   C331      1.0  0.47488  0.19653  0.08835  1.0000
  H   H524      1.0  0.58415  0.08266  0.06648  1.0000
  S   S137      1.0  0.60750  0.02718  0.17748  1.0000
  C   C332      1.0  0.84215  0.07152  0.19956  1.0000
  H   H525      1.0  0.72301  0.13413  0.17219  1.0000
  C   C333      1.0  0.67397  0.09911  0.10807  1.0000
  H   H526      1.0  0.50982  0.26955  0.01082  1.0000
  H   H527      1.0  0.93998  0.14414  0.94759  1.0000
  H   H528      1.0  0.69396  0.04063  0.00363  1.0000
  C   C334      1.0  0.85356  0.24041  0.94598  1.0000
  C   C335      1.0  0.52791  0.21439  0.10882  1.0000
  H   H529      1.0  0.67265  0.05145  0.18323  1.0000
  S   S138      1.0  0.77209  0.17682  0.04309  1.0000
  H   H530      1.0  0.49253  0.18363  0.05497  1.0000
  C   C336      1.0  0.72186  0.03279  0.98376  1.0000
  H   H531      1.0  0.89109  0.16769  0.23558  1.0000
  C   C337      1.0  0.60906  0.08732  0.07846  1.0000
  H   H532      1.0  0.74559  0.15936  0.19793  1.0000
  Fe  Fe66      1.0  0.81281  0.17954  0.94820  1.0000
  C   C338      1.0  0.65915  0.06955  0.14372  1.0000
  H   H533      1.0  0.89234  0.07955  0.92562  1.0000
  H   H534      1.0  0.65566  0.13288  0.20199  1.0000
  Fe  Fe67      1.0  0.80318  0.12830  0.08669  1.0000
  H   H535      1.0  0.84786  0.19647  0.03223  1.0000
  C   C339      1.0  0.87532  0.26572  0.03344  1.0000
  C   C340      1.0  0.85465  0.22126  0.01372  1.0000
  H   H536      1.0  0.47027  0.25652  0.99567  1.0000
  H   H537      1.0  0.86747  0.21874  0.10913  1.0000
  C   C341      1.0  0.78617  0.04325  0.94129  1.0000
  H   H538      1.0  0.65619  0.20758  0.15464  1.0000
  H   H539      1.0  0.83930  0.07396  0.09856  1.0000
  C   C342      1.0  0.62647  0.06373  0.12958  1.0000
  Fe  Fe68      1.0  0.48212  0.05233  0.10609  1.0000
  H   H540      1.0  0.70580  0.20776  0.13586  1.0000
  H   H541      1.0  0.85264  0.16082  0.20549  1.0000
  H   H542      1.0  0.94072  0.07026  0.92899  1.0000
  Fe  Fe69      1.0  0.47117  0.06026  0.24402  1.0000
  Fe  Fe70      1.0  0.94563  0.24950  0.10467  1.0000
  H   H543      1.0  0.57043  0.03553  0.97948  1.0000
  H   H544      1.0  0.90674  0.17942  0.94109  1.0000
  S   S139      1.0  0.75267  0.25913  0.23732  1.0000
  H   H545      1.0  0.50993  0.22790  0.23488  1.0000
  H   H546      1.0  0.81457  0.20631  0.23738  1.0000
  H   H547      1.0  0.75064  0.27235  0.08041  1.0000
  S   S140      1.0  0.58510  0.21674  0.25225  1.0000
  S   S141      1.0  0.64474  0.25706  0.33140  1.0000
  H   H548      1.0  0.53084  0.24907  0.43269  1.0000
  H   H549      1.0  0.88378  0.16753  0.35340  1.0000
  C   C343      1.0  0.47788  0.20733  0.33314  1.0000
  H   H550      1.0  0.76303  0.04210  0.36790  1.0000
  Fe  Fe71      1.0  0.75085  0.11260  0.56040  1.0000
  H   H551      1.0  0.54943  0.11548  0.42702  1.0000
  C   C344      1.0  0.52570  0.27159  0.38948  1.0000
  Fe  Fe72      1.0  0.70791  0.08219  0.49751  1.0000
  H   H552      1.0  0.81436  0.11902  0.34184  1.0000
  H   H553      1.0  0.57133  0.18916  0.39952  1.0000
  H   H554      1.0  0.68848  0.16180  0.32009  1.0000
  H   H555      1.0  0.65891  0.19586  0.27745  1.0000
  S   S142      1.0  0.69501  0.09105  0.39446  1.0000
  C   C345      1.0  0.82859  0.19890  0.28247  1.0000
  H   H556      1.0  0.53106  0.08528  0.54977  1.0000
  Fe  Fe73      1.0  0.61478  0.25705  0.25100  1.0000
  C   C346      1.0  0.47834  0.19300  0.40252  1.0000
  H   H557      1.0  0.45794  0.26120  0.38220  1.0000
  H   H558      1.0  0.57097  0.07832  0.41378  1.0000
  C   C347      1.0  0.45973  0.26969  0.42429  1.0000
  H   H559      1.0  0.45188  0.21281  0.31440  1.0000
  H   H560      1.0  0.48737  0.03370  0.48893  1.0000
  H   H561      1.0  0.79189  0.15202  0.28151  1.0000
  H   H562      1.0  0.85274  0.17663  0.54423  1.0000
  H   H563      1.0  0.50520  0.05087  0.57551  1.0000
  N   N36       1.0  0.83988  0.16357  0.30620  1.0000
  H   H564      1.0  0.86677  0.12834  0.38578  1.0000
  C   C348      1.0  0.66083  0.06043  0.33637  1.0000
  H   H565      1.0  0.50116  0.05531  0.40041  1.0000
  C   C349      1.0  0.50938  0.04774  0.45132  1.0000
  C   C350      1.0  0.82836  0.13271  0.56354  1.0000
  C   C351      1.0  0.48027  0.09768  0.46863  1.0000
  C   C352      1.0  0.54522  0.19445  0.38101  1.0000
  H   H566      1.0  0.73398  0.02655  0.44827  1.0000
  H   H567      1.0  0.48366  0.11930  0.48083  1.0000
  H   H568      1.0  0.78695  0.15142  0.36736  1.0000
  H   H569      1.0  0.46355  0.24758  0.46913  1.0000
  H   H570      1.0  0.94683  0.23477  0.39881  1.0000
  C   C353      1.0  0.85837  0.15491  0.36592  1.0000
  H   H571      1.0  0.52579  0.26448  0.34471  1.0000
  H   H572      1.0  0.47095  0.10673  0.41842  1.0000
  S   S143      1.0  0.76825  0.07899  0.50046  1.0000
  H   H573      1.0  0.83040  0.03069  0.50981  1.0000
  N   N37       1.0  0.51514  0.07601  0.46789  1.0000
  C   C354      1.0  0.54430  0.09398  0.41613  1.0000
  H   H574      1.0  0.85281  0.21321  0.26767  1.0000
  C   C355      1.0  0.85510  0.05266  0.25988  1.0000
  H   H575      1.0  0.64816  0.04923  0.50465  1.0000
  H   H576      1.0  0.51275  0.17646  0.48018  1.0000
  C   C356      1.0  0.85670  0.15037  0.56150  1.0000
  C   C357      1.0  0.66497  0.06424  0.39650  1.0000
  H   H577      1.0  0.53511  0.03080  0.45068  1.0000
  C   C358      1.0  0.63793  0.03785  0.33854  1.0000
  C   C359      1.0  0.68547  0.18077  0.27009  1.0000
  H   H578      1.0  0.84906  0.06114  0.30276  1.0000
  H   H579      1.0  0.45761  0.08500  0.50710  1.0000
  S   S144      1.0  0.78593  0.15241  0.53987  1.0000
  C   C360      1.0  0.80677  0.14576  0.32515  1.0000
  H   H580      1.0  0.67587  0.07426  0.28830  1.0000
  C   C361      1.0  0.52657  0.06465  0.53531  1.0000
  H   H581      1.0  0.92467  0.23110  0.33590  1.0000
  H   H582      1.0  0.70827  0.19658  0.25617  1.0000
  H   H583      1.0  0.55290  0.04835  0.53657  1.0000
  C   C362      1.0  0.64606  0.04574  0.45836  1.0000
  S   S145      1.0  0.69103  0.11883  0.55094  1.0000
  C   C363      1.0  0.54440  0.20877  0.31145  1.0000
  C   C364      1.0  0.51205  0.18690  0.42667  1.0000
  C   C365      1.0  0.94571  0.24390  0.34373  1.0000
  H   H584      1.0  0.53642  0.10284  0.36471  1.0000
  H   H585      1.0  0.65402  0.12846  0.28934  1.0000
  H   H586      1.0  0.72433  0.12510  0.25992  1.0000
  H   H587      1.0  0.80883  0.20649  0.32242  1.0000
  C   C366      1.0  0.51069  0.21557  0.28798  1.0000
  H   H588      1.0  0.83970  0.16159  0.40808  1.0000
  H   H589      1.0  0.63468  0.03466  0.29242  1.0000
  C   C367      1.0  0.86572  0.15475  0.25128  1.0000
  H   H590      1.0  0.87487  0.12823  0.26700  1.0000
  H   H591      1.0  0.91189  0.14756  0.58150  1.0000
  H   H592      1.0  0.86985  0.05623  0.62603  1.0000
  C   C368      1.0  0.89466  0.09990  0.60678  1.0000
  H   H593      1.0  0.92388  0.04627  0.78641  1.0000
  H   H594      1.0  0.61454  0.11307  0.62494  1.0000
  H   H595      1.0  0.92593  0.23440  0.86896  1.0000
  S   S146      1.0  0.51801  0.18477  0.70935  1.0000
  H   H596      1.0  0.90737  0.13197  0.78050  1.0000
  H   H597      1.0  0.56465  0.04601  0.83029  1.0000
  S   S147      1.0  0.93512  0.07889  0.63655  1.0000
  C   C369      1.0  0.86652  0.08243  0.60794  1.0000
  C   C370      1.0  0.74581  0.12861  0.77841  1.0000
  H   H598      1.0  0.65722  0.14885  0.74688  1.0000
  S   S148      1.0  0.45137  0.05008  0.71692  1.0000
  C   C371      1.0  0.57282  0.14558  0.66132  1.0000
  H   H599      1.0  0.75949  0.11470  0.82340  1.0000
  H   H600      1.0  0.56543  0.15922  0.61191  1.0000
  C   C372      1.0  0.55451  0.15389  0.71789  1.0000
  H   H601      1.0  0.69606  0.17253  0.71061  1.0000
  H   H602      1.0  0.89081  0.04447  0.86149  1.0000
  C   C373      1.0  0.90241  0.10691  0.78709  1.0000
  Fe  Fe74      1.0  0.75740  0.03913  0.59988  1.0000
  C   C374      1.0  0.89006  0.13391  0.58282  1.0000
  H   H603      1.0  0.46077  0.06582  0.87370  1.0000
  C   C375      1.0  0.59089  0.10949  0.78948  1.0000
  S   S149      1.0  0.64452  0.06926  0.74234  1.0000
  H   H604      1.0  0.66351  0.09627  0.83858  1.0000
  S   S150      1.0  0.69828  0.03887  0.59221  1.0000
  C   C376      1.0  0.54379  0.03372  0.87376  1.0000
  S   S151      1.0  0.74380  0.07251  0.66035  1.0000
  H   H605      1.0  0.75651  0.11672  0.73940  1.0000
  C   C377      1.0  0.69411  0.09639  0.82593  1.0000
  C   C378      1.0  0.68804  0.14732  0.73495  1.0000
  H   H606      1.0  0.52307  0.07428  0.69627  1.0000
  C   C379      1.0  0.49593  0.03075  0.72484  1.0000
  H   H607      1.0  0.52873  0.05236  0.89599  1.0000
  C   C380      1.0  0.60964  0.10156  0.73269  1.0000
  Fe  Fe75      1.0  0.68533  0.07531  0.64621  1.0000
  C   C381      1.0  0.91969  0.04940  0.83677  1.0000
  C   C382      1.0  0.56357  0.13590  0.78197  1.0000
  C   C383      1.0  0.60070  0.11961  0.66862  1.0000
  C   C384      1.0  0.83373  0.09882  0.58552  1.0000
  S   S152      1.0  0.48781  0.13663  0.61049  1.0000
  H   H608      1.0  0.69674  0.13484  0.69661  1.0000
  H   H609      1.0  0.75512  0.15342  0.75738  1.0000
  C   C385      1.0  0.69196  0.14658  0.84669  1.0000
  H   H610      1.0  0.93851  0.03025  0.86746  1.0000
  H   H611      1.0  0.90656  0.10507  0.73584  1.0000
  C   C386      1.0  0.92027  0.08598  0.89750  1.0000
  H   H612      1.0  0.87276  0.10393  0.80915  1.0000
  H   H613      1.0  0.69982  0.17185  0.82682  1.0000
  N   N38       1.0  0.70500  0.12978  0.79641  1.0000
  H   H614      1.0  0.52341  0.02567  0.85321  1.0000
  N   N39       1.0  0.92711  0.08224  0.83015  1.0000
  H   H615      1.0  0.54875  0.14186  0.82592  1.0000
  C   C387      1.0  0.56244  0.03156  0.71050  1.0000
  H   H616      1.0  0.92256  0.11119  0.89360  1.0000
  H   H617      1.0  0.66127  0.14786  0.86158  1.0000
  C   C388      1.0  0.52666  0.04814  0.70997  1.0000
  H   H618      1.0  0.70445  0.08250  0.79057  1.0000
  Fe  Fe76      1.0  0.47452  0.16576  0.68046  1.0000
  H   H619      1.0  0.59734  0.09530  0.83929  1.0000
  H   H620      1.0  0.91794  0.19492  0.81697  1.0000
  S   S153      1.0  0.84144  0.22439  0.89026  1.0000
  H   H621      1.0  0.58645  0.04496  0.69537  1.0000
  H   H622      1.0  0.70536  0.08281  0.87327  1.0000
  S   S154      1.0  0.77731  0.15728  0.90700  1.0000
  H   H623      1.0  0.60817  0.03129  0.91406  1.0000
  H   H624      1.0  0.70393  0.13368  0.89397  1.0000
  H   H625      1.0  0.81270  0.08491  0.58573  1.0000
  Fe  Fe77      1.0  0.44780  0.10368  0.68579  1.0000
  H   H626      1.0  0.92592  0.02387  0.59911  1.0000
  H   H627      1.0  0.90945  0.35580  0.01465  1.0000
  H   H628      1.0  0.73851  0.41678  0.05045  1.0000
  Fe  Fe78      1.0  0.69175  0.27475  0.24714  1.0000
  H   H629      1.0  0.81379  0.33738  0.00950  1.0000
  C   C389      1.0  0.75921  0.47591  0.13203  1.0000
  H   H630      1.0  0.62044  0.45423  0.98438  1.0000
  Fe  Fe79      1.0  0.64097  0.32158  0.15312  1.0000
  H   H631      1.0  0.53739  0.48386  0.96713  1.0000
  H   H632      1.0  0.84449  0.32502  0.24308  1.0000
  H   H633      1.0  0.71791  0.32208  0.09847  1.0000
  C   C390      1.0  0.79368  0.33869  0.97648  1.0000
  C   C391      1.0  0.72278  0.47087  0.13439  1.0000
  Fe  Fe80      1.0  0.46882  0.35351  0.01939  1.0000
  C   C392      1.0  0.54768  0.47136  0.01599  1.0000
  H   H634      1.0  0.80879  0.32834  0.93695  1.0000
  S   S155      1.0  0.66926  0.44990  0.09479  1.0000
  S   S156      1.0  0.89221  0.28036  0.08635  1.0000
  C   C393      1.0  0.78832  0.46016  0.09890  1.0000
  H   H635      1.0  0.76471  0.49276  0.15412  1.0000
  H   H636      1.0  0.53670  0.30328  0.05978  1.0000
  Fe  Fe81      1.0  0.92941  0.39163  0.19834  1.0000
  C   C394      1.0  0.77420  0.28641  0.04922  1.0000
  H   H637      1.0  0.88211  0.30937  0.94684  1.0000
  H   H638      1.0  0.51359  0.42003  0.03537  1.0000
  H   H639      1.0  0.80390  0.42468  0.04843  1.0000
  H   H640      1.0  0.78847  0.27462  0.01145  1.0000
  H   H641      1.0  0.76070  0.33400  0.10352  1.0000
  C   C395      1.0  0.55705  0.31907  0.02603  1.0000
  C   C396      1.0  0.61321  0.34405  0.00836  1.0000
  H   H642      1.0  0.73171  0.40043  0.21834  1.0000
  C   C397      1.0  0.55142  0.33774  0.96020  1.0000
  S   S157      1.0  0.50836  0.33968  0.93771  1.0000
  H   H643      1.0  0.59201  0.30760  0.10069  1.0000
  C   C398      1.0  0.58819  0.32186  0.04965  1.0000
  S   S158      1.0  0.83285  0.47178  0.08393  1.0000
  H   H644      1.0  0.52346  0.47054  0.05688  1.0000
  S   S159      1.0  0.57711  0.51017  0.12301  1.0000
  N   N40       1.0  0.76145  0.32086  0.01581  1.0000
  H   H645      1.0  0.70067  0.48285  0.16078  1.0000
  C   C399      1.0  0.60894  0.36129  0.94093  1.0000
  S   S160      1.0  0.92020  0.44534  0.17530  1.0000
  H   H646      1.0  0.74937  0.31253  0.92971  1.0000
  S   S161      1.0  0.87324  0.38707  0.18202  1.0000
  C   C400      1.0  0.74435  0.43299  0.07375  1.0000
  C   C401      1.0  0.78112  0.43749  0.07255  1.0000
  C   C402      1.0  0.60106  0.44112  0.97265  1.0000
  H   H647      1.0  0.72534  0.34878  0.94394  1.0000
  S   S162      1.0  0.62689  0.47666  0.24379  1.0000
  H   H648      1.0  0.56720  0.48681  0.01975  1.0000
  H   H649      1.0  0.94410  0.34546  0.06810  1.0000
  C   C403      1.0  0.57318  0.42070  0.09022  1.0000
  H   H650      1.0  0.78114  0.43999  0.94065  1.0000
  C   C404      1.0  0.87397  0.28495  0.96591  1.0000
  H   H651      1.0  0.59635  0.45427  0.91965  1.0000
  H   H652      1.0  0.59160  0.43352  0.10489  1.0000
  S   S163      1.0  0.64689  0.35272  0.04393  1.0000
  H   H653      1.0  0.54704  0.41804  0.12765  1.0000
  H   H654      1.0  0.80933  0.48358  0.95385  1.0000
  Fe  Fe82      1.0  0.63592  0.48903  0.13185  1.0000
  S   S164      1.0  0.48335  0.35195  0.11703  1.0000
  C   C405      1.0  0.74217  0.33521  0.06786  1.0000
  H   H655      1.0  0.74057  0.48829  0.95635  1.0000
  H   H656      1.0  0.58720  0.39591  0.09504  1.0000
  C   C406      1.0  0.71513  0.45088  0.10215  1.0000
  N   N41       1.0  0.56576  0.43847  0.02051  1.0000
  H   H657      1.0  0.91755  0.41417  0.97916  1.0000
  H   H658      1.0  0.78509  0.36473  0.95009  1.0000
  S   S165      1.0  0.67184  0.32739  0.22653  1.0000
  S   S166      1.0  0.46030  0.43776  0.13436  1.0000
  C   C407      1.0  0.80539  0.29454  0.24171  1.0000
  C   C408      1.0  0.54120  0.42080  0.00294  1.0000
  C   C409      1.0  0.93974  0.35018  0.01547  1.0000
  S   S167      1.0  0.58933  0.30852  0.22932  1.0000
  H   H659      1.0  0.46227  0.50103  0.14024  1.0000
  H   H660      1.0  0.53672  0.43255  0.94936  1.0000
  C   C410      1.0  0.73574  0.32309  0.96980  1.0000
  H   H661      1.0  0.61552  0.41683  0.97472  1.0000
  H   H662      1.0  0.55298  0.39533  0.00952  1.0000
  H   H663      1.0  0.71095  0.31001  0.99782  1.0000
  Fe  Fe83      1.0  0.86241  0.43996  0.16803  1.0000
  H   H664      1.0  0.73140  0.36103  0.04456  1.0000
  H   H665      1.0  0.81964  0.29128  0.19463  1.0000
  H   H666      1.0  0.79400  0.28388  0.08375  1.0000
  H   H667      1.0  0.56707  0.43830  0.23022  1.0000
  H   H668      1.0  0.91210  0.27824  0.23700  1.0000
  H   H669      1.0  0.92544  0.31703  0.22611  1.0000
  Fe  Fe84      1.0  0.56989  0.50117  0.23458  1.0000
  H   H670      1.0  0.66560  0.41197  0.24850  1.0000
  C   C411      1.0  0.93344  0.29043  0.24595  1.0000
  C   C412      1.0  0.57793  0.35810  0.91674  1.0000
  H   H671      1.0  0.68313  0.37443  0.42738  1.0000
  C   C413      1.0  0.57292  0.36865  0.36524  1.0000
  H   H672      1.0  0.45570  0.50376  0.39699  1.0000
  Fe  Fe85      1.0  0.85482  0.37977  0.29224  1.0000
  H   H673      1.0  0.76056  0.38163  0.28176  1.0000
  C   C414      1.0  0.54123  0.43337  0.33292  1.0000
  C   C415      1.0  0.71002  0.42417  0.32187  1.0000
  H   H674      1.0  0.70892  0.44348  0.27184  1.0000
  S   S168      1.0  0.83979  0.43275  0.27742  1.0000
  C   C416      1.0  0.88903  0.47990  0.38595  1.0000
  C   C417      1.0  0.70441  0.36775  0.38819  1.0000
  S   S169      1.0  0.52588  0.47481  0.31492  1.0000
  H   H675      1.0  0.86380  0.50346  0.29640  1.0000
  H   H676      1.0  0.68869  0.43226  0.35920  1.0000
  H   H677      1.0  0.90300  0.28072  0.41259  1.0000
  C   C418      1.0  0.55109  0.37987  0.41580  1.0000
  H   H678      1.0  0.51860  0.42072  0.43904  1.0000
  C   C419      1.0  0.48412  0.31913  0.34571  1.0000
  H   H679      1.0  0.59436  0.38085  0.25851  1.0000
  S   S170      1.0  0.59546  0.32913  0.38855  1.0000
  C   C420      1.0  0.53623  0.48817  0.49007  1.0000
  S   S171      1.0  0.81617  0.34360  0.36337  1.0000
  N   N42       1.0  0.49037  0.29032  0.40568  1.0000
  C   C421      1.0  0.78906  0.45443  0.48474  1.0000
  N   N43       1.0  0.51485  0.47495  0.55866  1.0000
  H   H680      1.0  0.53935  0.47139  0.46068  1.0000
  C   C422      1.0  0.73131  0.45213  0.56246  1.0000
  H   H681      1.0  0.87825  0.27622  0.35340  1.0000
  H   H682      1.0  0.70332  0.48821  0.44838  1.0000
  C   C423      1.0  0.90124  0.28815  0.35774  1.0000
  N   N44       1.0  0.70338  0.39251  0.32039  1.0000
  H   H683      1.0  0.73207  0.36450  0.40357  1.0000
  C   C424      1.0  0.56231  0.42195  0.28192  1.0000
  C   C425      1.0  0.86482  0.50312  0.34672  1.0000
  H   H684      1.0  0.65976  0.37124  0.30418  1.0000
  H   H685      1.0  0.86940  0.50219  0.52657  1.0000
  H   H686      1.0  0.76881  0.51932  0.44791  1.0000
  S   S172      1.0  0.91199  0.37997  0.31004  1.0000
  H   H687      1.0  0.77158  0.50238  0.53664  1.0000
  C   C426      1.0  0.75512  0.50376  0.49767  1.0000
  C   C427      1.0  0.66669  0.39518  0.30130  1.0000
  C   C428      1.0  0.53485  0.41205  0.39954  1.0000
  H   H688      1.0  0.80503  0.46797  0.43520  1.0000
  H   H689      1.0  0.51516  0.31625  0.45054  1.0000
  C   C429      1.0  0.57772  0.38944  0.29789  1.0000
  H   H690      1.0  0.64422  0.40423  0.33565  1.0000
  H   H691      1.0  0.80544  0.45212  0.52455  1.0000
  H   H692      1.0  0.73776  0.42308  0.33503  1.0000
  H   H693      1.0  0.75534  0.30510  0.41166  1.0000
  Fe  Fe86      1.0  0.89868  0.43359  0.28634  1.0000
  C   C430      1.0  0.77228  0.28060  0.27406  1.0000
  C   C431      1.0  0.89043  0.47954  0.45084  1.0000
  H   H694      1.0  0.78774  0.42956  0.48478  1.0000
  C   C432      1.0  0.75411  0.28471  0.33499  1.0000
  C   C433      1.0  0.73127  0.47472  0.44182  1.0000
  H   H695      1.0  0.49709  0.27953  0.50890  1.0000
  H   H696      1.0  0.56453  0.49253  0.49234  1.0000
  S   S173      1.0  0.92001  0.45282  0.35326  1.0000
  C   C434      1.0  0.86801  0.50248  0.47647  1.0000
  H   H697      1.0  0.72856  0.42727  0.56407  1.0000
  H   H698      1.0  0.54958  0.28597  0.37752  1.0000
  C   C435      1.0  0.47764  0.46931  0.55334  1.0000
  C   C436      1.0  0.49213  0.30077  0.46302  1.0000
  C   C437      1.0  0.81941  0.31377  0.26896  1.0000
  H   H699      1.0  0.47931  0.45255  0.52445  1.0000
  C   C438      1.0  0.76901  0.30269  0.36363  1.0000
  H   H700      1.0  0.52244  0.51169  0.46063  1.0000
  H   H701      1.0  0.89313  0.31472  0.33975  1.0000
  C   C439      1.0  0.80100  0.31809  0.32974  1.0000
  H   H702      1.0  0.50698  0.33507  0.33001  1.0000
  C   C440      1.0  0.73239  0.38283  0.27030  1.0000
  H   H703      1.0  0.90926  0.46173  0.48122  1.0000
  Fe  Fe87      1.0  0.62227  0.30977  0.30454  1.0000
  H   H704      1.0  0.54731  0.36382  0.46791  1.0000
  H   H705      1.0  0.72895  0.35856  0.26932  1.0000
  H   H706      1.0  0.45442  0.50904  0.27959  1.0000
  H   H707      1.0  0.46595  0.31505  0.47663  1.0000
  H   H708      1.0  0.69874  0.34370  0.38910  1.0000
  H   H709      1.0  0.48255  0.31194  0.30163  1.0000
  H   H710      1.0  0.49712  0.52229  0.56738  1.0000
  H   H711      1.0  0.72766  0.51686  0.50891  1.0000
  N   N45       1.0  0.75168  0.47123  0.49668  1.0000
  H   H712      1.0  0.72732  0.45071  0.44047  1.0000
  N   N46       1.0  0.93671  0.27950  0.31848  1.0000
  H   H713      1.0  0.74611  0.48858  0.39128  1.0000
  H   H714      1.0  0.46153  0.49239  0.52777  1.0000
  H   H715      1.0  0.70282  0.46400  0.57269  1.0000
  H   H716      1.0  0.53834  0.42593  0.56970  1.0000
  H   H717      1.0  0.45769  0.33391  0.35593  1.0000
  H   H718      1.0  0.72879  0.27360  0.36063  1.0000
  C   C441      1.0  0.81664  0.42699  0.75042  1.0000
  C   C442      1.0  0.53447  0.44397  0.59621  1.0000
  C   C443      1.0  0.75906  0.40392  0.76605  1.0000
  Fe  Fe88      1.0  0.60881  0.49881  0.76975  1.0000
  H   H719      1.0  0.52690  0.41100  0.77401  1.0000
  C   C444      1.0  0.77736  0.37280  0.79047  1.0000
  S   S174      1.0  0.91528  0.46245  0.81212  1.0000
  H   H720      1.0  0.56631  0.44186  0.80405  1.0000
  H   H721      1.0  0.51878  0.43295  0.64775  1.0000
  H   H722      1.0  0.83976  0.49055  0.87413  1.0000
  C   C445      1.0  0.53769  0.45089  0.79998  1.0000
  Fe  Fe89      1.0  0.68127  0.45806  0.74047  1.0000
  N   N47       1.0  0.78278  0.48854  0.87015  1.0000
  H   H723      1.0  0.72336  0.49397  0.88012  1.0000
  C   C446      1.0  0.81130  0.49663  0.89864  1.0000
  C   C447      1.0  0.51533  0.43336  0.78336  1.0000
  C   C448      1.0  0.48539  0.49064  0.80950  1.0000
  S   S175      1.0  0.62791  0.47019  0.69905  1.0000
  S   S176      1.0  0.71146  0.40796  0.76317  1.0000
  H   H724      1.0  0.53863  0.50272  0.60126  1.0000
  H   H725      1.0  0.76507  0.45512  0.72574  1.0000
  S   S177      1.0  0.66002  0.48267  0.81789  1.0000
  C   C449      1.0  0.77886  0.43105  0.74522  1.0000
  C   C450      1.0  0.74566  0.49969  0.90031  1.0000
  H   H726      1.0  0.45368  0.32355  0.86590  1.0000
  H   H727      1.0  0.76672  0.50029  0.77272  1.0000
  H   H728      1.0  0.46120  0.45833  0.60421  1.0000
  Fe  Fe90      1.0  0.65213  0.51524  0.62677  1.0000
  S   S178      1.0  0.55137  0.50308  0.82762  1.0000
  H   H729      1.0  0.56227  0.44756  0.60268  1.0000
  H   H730      1.0  0.62857  0.37816  0.90831  1.0000
  H   H731      1.0  0.49451  0.48943  0.64644  1.0000
  S   S179      1.0  0.70690  0.50119  0.66328  1.0000
  Fe  Fe91      1.0  0.90478  0.50621  0.72284  1.0000
  H   H732      1.0  0.47376  0.51280  0.81952  1.0000
  C   C451      1.0  0.47840  0.44513  0.77723  1.0000
  H   H733      1.0  0.74570  0.44932  0.60520  1.0000
  C   C452      1.0  0.81494  0.36879  0.79606  1.0000
  Fe  Fe92      1.0  0.91155  0.43446  0.74583  1.0000
  H   H734      1.0  0.76238  0.35174  0.80527  1.0000
  C   C453      1.0  0.78845  0.50486  0.79596  1.0000
  H   H735      1.0  0.76483  0.44634  0.86382  1.0000
  C   C454      1.0  0.52289  0.47983  0.81189  1.0000
  S   S180      1.0  0.88079  0.38999  0.79038  1.0000
  C   C455      1.0  0.46323  0.47351  0.79126  1.0000
  H   H736      1.0  0.81584  0.49656  0.77133  1.0000
  H   H737      1.0  0.83162  0.44797  0.73520  1.0000
  S   S181      1.0  0.89659  0.47831  0.65929  1.0000
  C   C456      1.0  0.83457  0.39585  0.77705  1.0000
  H   H738      1.0  0.82890  0.34464  0.81490  1.0000
  C   C457      1.0  0.51113  0.49836  0.59494  1.0000
  H   H739      1.0  0.57342  0.37279  0.86589  1.0000
  H   H740      1.0  0.86278  0.28703  0.86963  1.0000
  S   S182      1.0  0.45260  0.42588  0.74582  1.0000
  H   H741      1.0  0.81378  0.44390  0.86446  1.0000
  H   H742      1.0  0.92511  0.38800  0.89185  1.0000
  C   C458      1.0  0.78579  0.45308  0.88540  1.0000
  H   H743      1.0  0.80817  0.52294  0.89134  1.0000
  C   C459      1.0  0.92935  0.69105  0.20520  1.0000
  H   H744      1.0  0.64807  0.75586  0.97695  1.0000
  H   H745      1.0  0.84158  0.77022  0.14572  1.0000
  H   H746      1.0  0.84648  0.72684  0.02319  1.0000
  H   H747      1.0  0.74043  0.60045  0.13260  1.0000
  C   C460      1.0  0.67226  0.69354  0.03368  1.0000
  H   H748      1.0  0.82256  0.73015  0.10249  1.0000
  H   H749      1.0  0.57184  0.70036  0.23878  1.0000
  C   C461      1.0  0.73215  0.75379  0.03818  1.0000
  C   C462      1.0  0.51421  0.60181  0.09708  1.0000
  H   H750      1.0  0.80857  0.53042  0.20188  1.0000
  H   H751      1.0  0.81553  0.54393  0.07604  1.0000
  H   H752      1.0  0.57309  0.64965  0.13221  1.0000
  S   S183      1.0  0.59419  0.74745  0.10670  1.0000
  Fe  Fe93      1.0  0.64417  0.52530  0.22339  1.0000
  H   H753      1.0  0.83506  0.59103  0.92243  1.0000
  C   C463      1.0  0.67947  0.62228  0.22702  1.0000
  H   H754      1.0  0.76649  0.55607  0.08406  1.0000
  H   H755      1.0  0.48954  0.69524  0.03492  1.0000
  C   C464      1.0  0.76914  0.60651  0.12636  1.0000
  C   C465      1.0  0.83407  0.58704  0.12058  1.0000
  C   C466      1.0  0.49628  0.66917  0.05192  1.0000
  H   H756      1.0  0.76984  0.61682  0.16638  1.0000
  H   H757      1.0  0.49475  0.67379  0.19295  1.0000
  H   H758      1.0  0.78940  0.56141  0.23902  1.0000
  S   S184      1.0  0.58612  0.54957  0.22315  1.0000
  C   C467      1.0  0.86775  0.77082  0.10883  1.0000
  H   H759      1.0  0.55315  0.69119  0.11405  1.0000
  N   N48       1.0  0.79638  0.57768  0.13035  1.0000
  Fe  Fe94      1.0  0.88367  0.62988  0.95008  1.0000
  H   H760      1.0  0.66866  0.66719  0.05523  1.0000
  C   C468      1.0  0.79403  0.56472  0.07684  1.0000
  N   N49       1.0  0.66062  0.70854  0.96640  1.0000
  Fe  Fe95      1.0  0.83200  0.68867  0.96658  1.0000
  C   C469      1.0  0.64912  0.77199  0.22309  1.0000
  C   C470      1.0  0.84977  0.73232  0.06819  1.0000
  H   H761      1.0  0.50821  0.60717  0.94722  1.0000
  C   C471      1.0  0.93146  0.67515  0.15858  1.0000
  H   H762      1.0  0.77480  0.62632  0.07684  1.0000
  H   H763      1.0  0.91932  0.74855  0.02266  1.0000
  C   C472      1.0  0.89709  0.76692  0.99979  1.0000
  S   S185      1.0  0.65678  0.53688  0.11115  1.0000
  C   C473      1.0  0.51247  0.65354  0.22419  1.0000
  C   C474      1.0  0.75991  0.73979  0.99873  1.0000
  C   C475      1.0  0.47015  0.64886  0.09661  1.0000
  H   H764      1.0  0.83703  0.59738  0.15917  1.0000
  C   C476      1.0  0.62152  0.70367  0.97174  1.0000
  C   C477      1.0  0.56892  0.67106  0.14941  1.0000
  C   C478      1.0  0.78834  0.55240  0.19732  1.0000
  H   H765      1.0  0.52128  0.57581  0.11541  1.0000
  S   S186      1.0  0.90074  0.64651  0.17277  1.0000
  H   H766      1.0  0.64294  0.72796  0.20665  1.0000
  H   H767      1.0  0.65618  0.70536  0.07024  1.0000
  H   H768      1.0  0.45834  0.59953  0.15036  1.0000
  C   C479      1.0  0.54470  0.69219  0.24112  1.0000
  H   H769      1.0  0.55137  0.67153  0.99437  1.0000
  H   H770      1.0  0.72269  0.74002  0.09064  1.0000
  N   N50       1.0  0.86200  0.76495  0.04814  1.0000
  C   C480      1.0  0.54063  0.62220  0.05383  1.0000
  H   H771      1.0  0.51485  0.63264  0.20605  1.0000
  C   C481      1.0  0.66458  0.74371  0.94118  1.0000
  H   H772      1.0  0.84103  0.60579  0.07018  1.0000
  H   H773      1.0  0.89381  0.76229  0.95361  1.0000
  C   C482      1.0  0.63572  0.75393  0.19232  1.0000
  H   H774      1.0  0.87010  0.71305  0.09461  1.0000
  Fe  Fe96      1.0  0.59749  0.55721  0.11162  1.0000
  H   H775      1.0  0.47271  0.56547  0.94219  1.0000
  H   H776      1.0  0.66793  0.64307  0.18916  1.0000
  H   H777      1.0  0.88863  0.75225  0.13538  1.0000
  N   N51       1.0  0.54927  0.66334  0.21987  1.0000
  H   H778      1.0  0.85543  0.56592  0.12324  1.0000
  H   H779      1.0  0.79838  0.58359  0.02596  1.0000
  C   C483      1.0  0.61309  0.76964  0.14291  1.0000
  C   C484      1.0  0.88893  0.56439  0.92271  1.0000
  S   S187      1.0  0.89932  0.57623  0.98595  1.0000
  S   S188      1.0  0.49209  0.75527  0.07352  1.0000
  S   S189      1.0  0.88529  0.66440  0.00385  1.0000
  H   H780      1.0  0.65638  0.58723  0.20235  1.0000
  C   C485      1.0  0.47865  0.61518  0.11706  1.0000
  H   H781      1.0  0.52864  0.71317  0.20810  1.0000
  H   H782      1.0  0.61734  0.67739  0.99141  1.0000
  C   C486      1.0  0.53126  0.65576  0.02916  1.0000
  H   H783      1.0  0.60286  0.71556  0.00597  1.0000
  H   H784      1.0  0.59669  0.67877  0.14428  1.0000
  H   H785      1.0  0.76019  0.54462  0.20586  1.0000
  H   H786      1.0  0.70195  0.69610  0.03075  1.0000
  S   S190      1.0  0.58612  0.60614  0.03482  1.0000
  S   S191      1.0  0.78051  0.70028  0.03415  1.0000
  H   H787      1.0  0.93902  0.57511  0.23865  1.0000
  C   C487      1.0  0.67306  0.59079  0.23437  1.0000
  S   S192      1.0  0.82806  0.65152  0.92188  1.0000
  H   H788      1.0  0.68099  0.66686  0.93540  1.0000
  C   C488      1.0  0.68414  0.69323  0.91884  1.0000
  C   C489      1.0  0.77137  0.75759  0.93093  1.0000
  H   H789      1.0  0.69386  0.74829  0.93456  1.0000
  H   H790      1.0  0.61228  0.71432  0.92137  1.0000
  H   H791      1.0  0.48542  0.54005  0.24754  1.0000
  H   H792      1.0  0.48821  0.53370  0.36540  1.0000
  C   C490      1.0  0.84556  0.52692  0.43608  1.0000
  S   S193      1.0  0.51147  0.74352  0.34039  1.0000
  C   C491      1.0  0.60563  0.54731  0.42238  1.0000
  Fe  Fe97      1.0  0.47986  0.70259  0.41346  1.0000
  H   H793      1.0  0.55794  0.63107  0.31873  1.0000
  S   S194      1.0  0.82180  0.70753  0.42389  1.0000
  C   C492      1.0  0.57103  0.63647  0.26477  1.0000
  C   C493      1.0  0.84359  0.52709  0.37137  1.0000
  H   H794      1.0  0.91061  0.57518  0.41432  1.0000
  H   H795      1.0  0.62795  0.53689  0.39257  1.0000
  H   H796      1.0  0.68639  0.67109  0.40400  1.0000
  H   H797      1.0  0.73409  0.60323  0.34759  1.0000
  Fe  Fe98      1.0  0.76867  0.65703  0.28981  1.0000
  H   H798      1.0  0.57336  0.61382  0.25249  1.0000
  H   H799      1.0  0.59961  0.64241  0.25995  1.0000
  H   H800      1.0  0.90111  0.58185  0.30094  1.0000
  S   S195      1.0  0.50794  0.65628  0.47644  1.0000
  S   S196      1.0  0.68573  0.52448  0.28579  1.0000
  C   C494      1.0  0.86529  0.75095  0.42277  1.0000
  Fe  Fe99      1.0  0.85267  0.64929  0.25378  1.0000
  C   C495      1.0  0.62614  0.65415  0.37686  1.0000
  Fe  Fe100     1.0  0.47495  0.63130  0.43740  1.0000
  H   H801      1.0  0.64124  0.64099  0.50058  1.0000
  H   H802      1.0  0.62288  0.67924  0.51026  1.0000
  H   H803      1.0  0.52488  0.58392  0.52942  1.0000
  S   S197      1.0  0.82052  0.55695  0.46773  1.0000
  H   H804      1.0  0.52965  0.68725  0.29385  1.0000
  H   H805      1.0  0.72326  0.54792  0.35984  1.0000
  Fe  Fe101     1.0  0.81617  0.67709  0.36412  1.0000
  H   H806      1.0  0.47153  0.58829  0.28207  1.0000
  H   H807      1.0  0.66514  0.70981  0.40900  1.0000
  S   S198      1.0  0.86048  0.63669  0.36092  1.0000
  H   H808      1.0  0.60234  0.71814  0.33390  1.0000
  C   C496      1.0  0.60975  0.54672  0.48610  1.0000
  H   H809      1.0  0.81367  0.64110  0.50284  1.0000
  C   C497      1.0  0.57238  0.56039  0.39781  1.0000
  H   H810      1.0  0.86934  0.60669  0.53203  1.0000
  S   S199      1.0  0.66358  0.76865  0.57055  1.0000
  H   H811      1.0  0.78441  0.65939  0.55987  1.0000
  C   C498      1.0  0.45568  0.53568  0.26438  1.0000
  C   C499      1.0  0.75037  0.77037  0.43858  1.0000
  N   N52       1.0  0.62723  0.67811  0.40953  1.0000
  S   S200      1.0  0.80977  0.61501  0.28025  1.0000
  H   H812      1.0  0.92377  0.71104  0.55083  1.0000
  H   H813      1.0  0.68330  0.75712  0.43788  1.0000
  C   C500      1.0  0.54333  0.57385  0.43577  1.0000
  H   H814      1.0  0.57023  0.69698  0.40516  1.0000
  H   H815      1.0  0.93107  0.53431  0.42684  1.0000
  C   C501      1.0  0.52044  0.75634  0.45122  1.0000
  H   H816      1.0  0.52948  0.76555  0.53808  1.0000
  H   H817      1.0  0.82560  0.54551  0.34062  1.0000
  C   C502      1.0  0.93715  0.56011  0.40638  1.0000
  H   H818      1.0  0.50443  0.73617  0.48112  1.0000
  C   C503      1.0  0.74512  0.75285  0.34674  1.0000
  H   H819      1.0  0.70158  0.62459  0.52911  1.0000
  H   H820      1.0  0.74445  0.74589  0.47547  1.0000
  H   H821      1.0  0.56915  0.55992  0.34939  1.0000
  S   S201      1.0  0.77018  0.64498  0.39999  1.0000
  H   H822      1.0  0.59838  0.72381  0.41388  1.0000
  C   C504      1.0  0.45816  0.53032  0.37922  1.0000
  H   H823      1.0  0.92157  0.54121  0.30844  1.0000
  H   H824      1.0  0.93889  0.62045  0.31471  1.0000
  C   C505      1.0  0.59833  0.70539  0.38968  1.0000
  C   C506      1.0  0.68964  0.56393  0.28124  1.0000
  C   C507      1.0  0.91487  0.77061  0.55889  1.0000
  Fe  Fe102     1.0  0.81438  0.60558  0.38786  1.0000
  C   C508      1.0  0.92775  0.56671  0.29385  1.0000
  C   C509      1.0  0.62064  0.66230  0.48393  1.0000
  C   C510      1.0  0.54748  0.57396  0.49918  1.0000
  S   S202      1.0  0.69619  0.69024  0.52778  1.0000
  C   C511      1.0  0.70245  0.62669  0.26643  1.0000
  H   H825      1.0  0.59892  0.64398  0.39259  1.0000
  S   S203      1.0  0.45063  0.67756  0.36789  1.0000
  C   C512      1.0  0.71120  0.56855  0.32249  1.0000
  H   H826      1.0  0.85709  0.73450  0.28342  1.0000
  H   H827      1.0  0.73156  0.75762  0.30202  1.0000
  H   H828      1.0  0.93138  0.77050  0.50944  1.0000
  H   H829      1.0  0.63137  0.66529  0.32068  1.0000
  H   H830      1.0  0.67021  0.70169  0.33148  1.0000
  H   H831      1.0  0.49747  0.64614  0.27712  1.0000
  C   C513      1.0  0.86574  0.74605  0.31362  1.0000
  H   H832      1.0  0.73874  0.72846  0.38349  1.0000
  H   H833      1.0  0.59263  0.65360  0.50255  1.0000
  H   H834      1.0  0.85620  0.74330  0.47700  1.0000
  C   C514      1.0  0.80264  0.63711  0.55714  1.0000
  H   H835      1.0  0.86715  0.66460  0.51961  1.0000
  C   C515      1.0  0.85383  0.73613  0.38383  1.0000
  Fe  Fe103     1.0  0.45777  0.65598  0.55569  1.0000
  C   C516      1.0  0.71747  0.59989  0.31529  1.0000
  S   S204      1.0  0.65130  0.52835  0.51590  1.0000
  C   C517      1.0  0.52766  0.76528  0.38070  1.0000
  C   C518      1.0  0.58063  0.56003  0.52476  1.0000
  H   H836      1.0  0.64790  0.63339  0.39075  1.0000
  C   C519      1.0  0.66387  0.69070  0.38756  1.0000
  S   S205      1.0  0.50191  0.58956  0.40322  1.0000
  C   C520      1.0  0.53478  0.77296  0.48350  1.0000
  H   H837      1.0  0.77559  0.75149  0.32922  1.0000
  H   H838      1.0  0.78101  0.77016  0.42479  1.0000
  C   C521      1.0  0.85392  0.65890  0.57364  1.0000
  C   C522      1.0  0.70648  0.62425  0.57730  1.0000
  H   H839      1.0  0.78524  0.61654  0.57547  1.0000
  H   H840      1.0  0.83552  0.68085  0.57811  1.0000
  S   S206      1.0  0.71478  0.66522  0.25177  1.0000
  H   H841      1.0  0.66718  0.76008  0.26021  1.0000
  S   S207      1.0  0.81143  0.69253  0.25419  1.0000
  H   H842      1.0  0.58363  0.55960  0.57421  1.0000
  S   S208      1.0  0.59659  0.72676  0.58069  1.0000
  H   H843      1.0  0.90844  0.68608  0.25011  1.0000
  C   C523      1.0  0.88718  0.77243  0.28198  1.0000
  C   C524      1.0  0.72466  0.74420  0.74264  1.0000
  H   H844      1.0  0.55182  0.58100  0.79936  1.0000
  H   H845      1.0  0.72089  0.73555  0.65159  1.0000
  S   S209      1.0  0.64579  0.70265  0.70198  1.0000
  H   H846      1.0  0.73685  0.74925  0.83167  1.0000
  S   S210      1.0  0.68049  0.76502  0.75036  1.0000
  C   C525      1.0  0.78145  0.72167  0.78762  1.0000
  N   N53       1.0  0.83289  0.63030  0.59670  1.0000
  H   H847      1.0  0.53671  0.62339  0.76183  1.0000
  C   C526      1.0  0.74681  0.73958  0.79091  1.0000
  C   C527      1.0  0.85589  0.57749  0.89753  1.0000
  C   C528      1.0  0.90938  0.71326  0.60040  1.0000
  H   H848      1.0  0.67678  0.70453  0.86704  1.0000
  S   S211      1.0  0.86521  0.54681  0.73990  1.0000
  H   H849      1.0  0.87602  0.65483  0.60448  1.0000
  S   S212      1.0  0.86009  0.72210  0.86878  1.0000
  N   N54       1.0  0.50347  0.59889  0.85638  1.0000
  H   H850      1.0  0.91360  0.76114  0.69157  1.0000
  S   S213      1.0  0.62942  0.54491  0.69405  1.0000
  C   C529      1.0  0.85786  0.60220  0.58651  1.0000
  S   S214      1.0  0.46185  0.63502  0.66590  1.0000
  H   H851      1.0  0.80180  0.60106  0.68907  1.0000
  H   H852      1.0  0.82353  0.58322  0.82126  1.0000
  C   C530      1.0  0.90795  0.53974  0.83517  1.0000
  C   C531      1.0  0.47779  0.72344  0.81575  1.0000
  C   C532      1.0  0.47104  0.62325  0.84304  1.0000
  C   C533      1.0  0.71921  0.62311  0.70238  1.0000
  H   H853      1.0  0.51155  0.59292  0.75898  1.0000
  H   H854      1.0  0.71777  0.67502  0.65715  1.0000
  C   C534      1.0  0.52699  0.59903  0.79138  1.0000
  H   H855      1.0  0.72364  0.62278  0.75093  1.0000
  S   S215      1.0  0.53860  0.69158  0.76204  1.0000
  H   H856      1.0  0.79753  0.71696  0.82678  1.0000
  C   C535      1.0  0.70789  0.65323  0.58803  1.0000
  H   H857      1.0  0.45242  0.56778  0.74579  1.0000
  H   H858      1.0  0.79760  0.64357  0.67820  1.0000
  C   C536      1.0  0.79496  0.70960  0.73435  1.0000
  C   C537      1.0  0.51923  0.75380  0.86690  1.0000
  H   H859      1.0  0.54991  0.58911  0.90881  1.0000
  C   C538      1.0  0.90286  0.74236  0.67915  1.0000
  S   S216      1.0  0.71353  0.55829  0.76202  1.0000
  Fe  Fe104     1.0  0.68199  0.52675  0.73730  1.0000
  H   H860      1.0  0.70678  0.57248  0.62299  1.0000
  Fe  Fe105     1.0  0.64892  0.75513  0.68329  1.0000
  C   C539      1.0  0.77322  0.71492  0.68472  1.0000
  H   H861      1.0  0.78750  0.53165  0.78251  1.0000
  H   H862      1.0  0.47974  0.64796  0.81349  1.0000
  H   H863      1.0  0.91437  0.68959  0.64087  1.0000
  C   C540      1.0  0.84923  0.57279  0.84027  1.0000
  H   H864      1.0  0.56660  0.72515  0.83166  1.0000
  S   S217      1.0  0.83889  0.68778  0.73115  1.0000
  Fe  Fe106     1.0  0.58622  0.71735  0.69239  1.0000
  H   H865      1.0  0.94050  0.53467  0.91137  1.0000
  H   H866      1.0  0.83923  0.61847  0.70043  1.0000
  C   C541      1.0  0.70947  0.59476  0.63045  1.0000
  Fe  Fe107     1.0  0.85931  0.68277  0.82628  1.0000
  H   H867      1.0  0.92840  0.52539  0.81077  1.0000
  H   H868      1.0  0.51435  0.54734  0.90354  1.0000
  H   H869      1.0  0.88154  0.59669  0.61447  1.0000
  H   H870      1.0  0.90642  0.71904  0.72114  1.0000
  Fe  Fe108     1.0  0.65672  0.71716  0.58863  1.0000
  H   H871      1.0  0.84297  0.58001  0.60478  1.0000
  H   H872      1.0  0.74235  0.52648  0.88863  1.0000
  C   C542      1.0  0.73781  0.73191  0.68937  1.0000
  H   H873      1.0  0.47414  0.55971  0.86308  1.0000
  C   C543      1.0  0.87520  0.55390  0.80906  1.0000
  H   H874      1.0  0.87259  0.74907  0.67882  1.0000
  S   S218      1.0  0.91503  0.65909  0.85135  1.0000
  C   C544      1.0  0.71488  0.59435  0.69342  1.0000
  H   H875      1.0  0.79143  0.74672  0.89956  1.0000
  C   C545      1.0  0.51619  0.71601  0.80997  1.0000
  N   N55       1.0  0.92241  0.73978  0.61341  1.0000
  C   C546      1.0  0.81715  0.62301  0.66925  1.0000
  C   C547      1.0  0.53686  0.73086  0.83629  1.0000
  C   C548      1.0  0.71546  0.65264  0.64967  1.0000
  Fe  Fe109     1.0  0.91280  0.69546  0.90310  1.0000
  H   H876      1.0  0.46185  0.71222  0.79480  1.0000
  H   H877      1.0  0.87912  0.71778  0.59890  1.0000
  H   H878      1.0  0.78339  0.70571  0.64324  1.0000
  H   H879      1.0  0.45376  0.61757  0.81293  1.0000
  C   C549      1.0  0.91482  0.54494  0.89225  1.0000
  H   H880      1.0  0.53520  0.63129  0.87159  1.0000
  C   C550      1.0  0.46035  0.74711  0.84429  1.0000
  H   H881      1.0  0.65518  0.75604  0.89130  1.0000
  C   C551      1.0  0.49062  0.56639  0.89309  1.0000
  S   S219      1.0  0.58838  0.76909  0.68170  1.0000
  C   C552      1.0  0.52510  0.60688  0.89793  1.0000
  C   C553      1.0  0.48111  0.76253  0.86918  1.0000
  H   H882      1.0  0.53538  0.76580  0.88578  1.0000
  H   H883      1.0  0.45299  0.62428  0.89092  1.0000
  H   H884      1.0  0.71397  0.69576  0.91463  1.0000
  C   C554      1.0  0.87518  0.93347  0.93947  1.0000
  S   S220      1.0  0.67061  0.88922  0.04552  1.0000
  C   C555      1.0  0.90078  0.87750  0.03825  1.0000
  H   H885      1.0  0.90689  0.79133  0.98293  1.0000
  H   H886      1.0  0.87669  0.02215  0.10645  1.0000
  H   H887      1.0  0.45544  0.85118  0.24128  1.0000
  H   H888      1.0  0.83796  0.96360  0.03888  1.0000
  H   H889      1.0  0.56890  0.96438  0.24111  1.0000
  H   H890      1.0  0.60011  0.99815  0.99225  1.0000
  S   S221      1.0  0.83240  0.85584  0.08792  1.0000
  C   C556      1.0  0.71698  0.78596  0.00999  1.0000
  H   H891      1.0  0.83093  0.00036  0.05874  1.0000
  H   H892      1.0  0.80633  0.78834  0.05036  1.0000
  H   H893      1.0  0.59745  0.96246  0.92812  1.0000
  H   H894      1.0  0.75052  0.95602  0.16397  1.0000
  C   C557      1.0  0.64038  0.80571  0.20348  1.0000
  H   H895      1.0  0.78786  0.96283  0.23760  1.0000
  H   H896      1.0  0.89459  0.78155  0.22742  1.0000
  Fe  Fe110     1.0  0.48651  0.79765  0.97879  1.0000
  H   H897      1.0  0.91062  0.85611  0.07714  1.0000
  Fe  Fe111     1.0  0.71113  0.92415  0.03204  1.0000
  H   H898      1.0  0.82855  0.78595  0.96931  1.0000
  H   H899      1.0  0.54456  0.96840  0.01827  1.0000
  H   H900      1.0  0.86545  0.96841  0.09351  1.0000
  C   C558      1.0  0.79395  0.01287  0.93257  1.0000
  H   H901      1.0  0.46193  0.95256  0.04631  1.0000
  Fe  Fe112     1.0  0.48027  0.99261  0.23395  1.0000
  Fe  Fe113     1.0  0.50415  0.84532  0.03960  1.0000
  H   H902      1.0  0.58785  0.81567  0.08420  1.0000
  S   S222      1.0  0.75622  0.90095  0.97193  1.0000
  C   C559      1.0  0.91247  0.92805  0.94648  1.0000
  C   C560      1.0  0.47884  0.92679  0.20813  1.0000
  C   C561      1.0  0.80931  0.97262  0.19300  1.0000
  S   S223      1.0  0.73087  0.89657  0.13143  1.0000
  S   S224      1.0  0.53907  0.81719  0.97592  1.0000
  H   H903      1.0  0.51353  0.97947  0.95804  1.0000
  C   C562      1.0  0.83335  0.78957  0.01557  1.0000
  C   C563      1.0  0.92537  0.90001  0.99560  1.0000
  C   C564      1.0  0.53242  0.98922  0.97854  1.0000
  Fe  Fe114     1.0  0.45966  0.78818  0.12825  1.0000
  H   H904      1.0  0.80367  0.99955  0.17447  1.0000
  H   H905      1.0  0.69557  0.79678  0.04065  1.0000
  Fe  Fe115     1.0  0.54181  0.77715  0.07581  1.0000
  H   H906      1.0  0.84134  0.81462  0.00061  1.0000
  C   C565      1.0  0.88442  0.01179  0.20893  1.0000
  S   S225      1.0  0.69360  0.97765  0.99605  1.0000
  H   H907      1.0  0.63785  0.95928  0.22392  1.0000
  C   C566      1.0  0.50121  0.89793  0.20889  1.0000
  S   S226      1.0  0.66105  0.82915  0.23393  1.0000
  C   C567      1.0  0.86327  0.88324  0.03214  1.0000
  H   H908      1.0  0.77220  0.96882  0.94394  1.0000
  C   C568      1.0  0.76579  0.99235  0.95003  1.0000
  C   C569      1.0  0.46494  0.94640  0.14938  1.0000
  H   H909      1.0  0.77099  0.95585  0.08064  1.0000
  C   C570      1.0  0.50957  0.88886  0.15051  1.0000
  S   S227      1.0  0.52041  0.00698  0.13711  1.0000
  Fe  Fe116     1.0  0.77355  0.87097  0.07149  1.0000
  C   C571      1.0  0.72983  0.80409  0.94265  1.0000
  H   H910      1.0  0.61170  0.84735  0.13771  1.0000
  H   H911      1.0  0.51500  0.00589  0.00367  1.0000
  S   S228      1.0  0.50615  0.89855  0.01737  1.0000
  C   C572      1.0  0.58613  0.01829  0.95386  1.0000
  H   H912      1.0  0.84716  0.91684  0.17780  1.0000
  S   S229      1.0  0.93697  0.00798  0.01547  1.0000
  C   C573      1.0  0.77218  0.96635  0.11994  1.0000
  Fe  Fe117     1.0  0.71753  0.86389  0.99307  1.0000
  C   C574      1.0  0.85056  0.91129  0.98292  1.0000
  C   C575      1.0  0.47317  0.93737  0.09133  1.0000
  H   H913      1.0  0.79913  0.91160  0.21181  1.0000
  H   H914      1.0  0.83643  0.96638  0.21098  1.0000
  C   C576      1.0  0.72960  0.00241  0.97526  1.0000
  C   C577      1.0  0.83713  0.97352  0.08004  1.0000
  Fe  Fe118     1.0  0.69415  0.85965  0.13982  1.0000
  H   H915      1.0  0.81731  0.91223  0.12714  1.0000
  H   H916      1.0  0.82166  0.91651  0.97935  1.0000
  S   S230      1.0  0.73844  0.83189  0.08808  1.0000
  C   C578      1.0  0.49551  0.90866  0.09165  1.0000
  C   C579      1.0  0.60452  0.80330  0.12348  1.0000
  C   C580      1.0  0.61824  0.82130  0.15350  1.0000
  H   H917      1.0  0.87772  0.79502  0.09544  1.0000
  S   S231      1.0  0.50967  0.80644  0.13941  1.0000
  N   N56       1.0  0.56138  0.00611  0.92447  1.0000
  H   H918      1.0  0.76447  0.99300  0.09907  1.0000
  N   N57       1.0  0.80934  0.95898  0.13953  1.0000
  H   H919      1.0  0.52753  0.86695  0.15063  1.0000
  C   C581      1.0  0.81861  0.92340  0.16531  1.0000
  S   S232      1.0  0.90974  0.97399  0.21527  1.0000
  H   H920      1.0  0.60528  0.92833  0.18138  1.0000
  S   S233      1.0  0.45155  0.82920  0.03349  1.0000
  C   C582      1.0  0.60624  0.90846  0.23090  1.0000
  H   H921      1.0  0.44745  0.96846  0.14918  1.0000
  H   H922      1.0  0.63262  0.89280  0.22586  1.0000
  Fe  Fe119     1.0  0.94668  0.97475  0.11801  1.0000
  H   H923      1.0  0.58321  0.89346  0.23982  1.0000
  H   H924      1.0  0.75659  0.84579  0.44719  1.0000
  H   H925      1.0  0.70137  0.99760  0.39860  1.0000
  H   H926      1.0  0.89507  0.78881  0.42126  1.0000
  C   C583      1.0  0.65960  0.89119  0.47300  1.0000
  H   H927      1.0  0.73100  0.81638  0.28205  1.0000
  N   N58       1.0  0.75959  0.99055  0.40298  1.0000
  H   H928      1.0  0.66211  0.92346  0.27563  1.0000
  C   C584      1.0  0.79499  0.98377  0.36113  1.0000
  H   H929      1.0  0.55451  0.79800  0.28759  1.0000
  H   H930      1.0  0.73364  0.82991  0.35022  1.0000
  S   S234      1.0  0.50882  0.01542  0.28527  1.0000
  H   H931      1.0  0.87240  0.91449  0.54739  1.0000
  H   H932      1.0  0.51603  0.85249  0.55238  1.0000
  C   C585      1.0  0.70307  0.84394  0.50867  1.0000
  C   C586      1.0  0.74331  0.80997  0.32879  1.0000
  H   H933      1.0  0.63256  0.90396  0.47994  1.0000
  H   H934      1.0  0.63311  0.95161  0.31278  1.0000
  H   H935      1.0  0.92141  0.79164  0.56962  1.0000
  H   H936      1.0  0.58002  0.82732  0.34481  1.0000
  S   S235      1.0  0.86354  0.90526  0.31571  1.0000
  N   N59       1.0  0.60354  0.92143  0.28649  1.0000
  H   H937      1.0  0.68131  0.80019  0.41935  1.0000
  C   C587      1.0  0.87573  0.96313  0.47755  1.0000
  Fe  Fe120     1.0  0.81051  0.88940  0.38226  1.0000
  H   H938      1.0  0.72860  0.96830  0.50154  1.0000
  C   C588      1.0  0.55640  0.79852  0.44542  1.0000
  S   S236      1.0  0.90339  0.95093  0.41201  1.0000
  C   C589      1.0  0.76005  0.02101  0.41590  1.0000
  H   H939      1.0  0.57888  0.88021  0.36263  1.0000
  C   C590      1.0  0.66848  0.86081  0.52004  1.0000
  C   C591      1.0  0.72851  0.99393  0.36694  1.0000
  H   H940      1.0  0.61027  0.00800  0.50884  1.0000
  H   H941      1.0  0.79931  0.00343  0.31114  1.0000
  S   S237      1.0  0.59394  0.98864  0.40448  1.0000
  H   H942      1.0  0.72793  0.97187  0.35417  1.0000
  Fe  Fe121     1.0  0.58450  0.95733  0.51266  1.0000
  H   H943      1.0  0.56620  0.95369  0.33066  1.0000
  C   C592      1.0  0.69201  0.78012  0.39853  1.0000
  H   H944      1.0  0.45269  0.86284  0.34868  1.0000
  H   H945      1.0  0.62841  0.87702  0.35184  1.0000
  S   S238      1.0  0.55815  0.91127  0.54643  1.0000
  C   C593      1.0  0.72154  0.88982  0.40952  1.0000
  H   H946      1.0  0.93817  0.01157  0.38261  1.0000
  H   H947      1.0  0.94289  0.98935  0.57316  1.0000
  C   C594      1.0  0.82572  0.98171  0.57823  1.0000
  H   H948      1.0  0.87372  0.01436  0.42016  1.0000
  C   C595      1.0  0.86315  0.93978  0.53897  1.0000
  H   H949      1.0  0.47795  0.81172  0.28201  1.0000
  S   S239      1.0  0.47009  0.93999  0.27830  1.0000
  H   H950      1.0  0.81910  0.98159  0.38634  1.0000
  H   H951      1.0  0.46741  0.84897  0.56368  1.0000
  C   C596      1.0  0.68612  0.90579  0.41793  1.0000
  H   H952      1.0  0.67963  0.93002  0.38402  1.0000
  Fe  Fe122     1.0  0.88000  0.90840  0.40785  1.0000
  S   S240      1.0  0.82473  0.89704  0.47119  1.0000
  C   C597      1.0  0.62011  0.01857  0.40074  1.0000
  C   C598      1.0  0.86429  0.99605  0.46748  1.0000
  C   C599      1.0  0.72970  0.85863  0.45407  1.0000
  H   H953      1.0  0.74031  0.78820  0.46542  1.0000
  H   H954      1.0  0.75299  0.94039  0.46004  1.0000
  S   S241      1.0  0.83059  0.83671  0.41636  1.0000
  S   S242      1.0  0.91415  0.82627  0.28306  1.0000
  C   C600      1.0  0.89676  0.78841  0.32095  1.0000
  S   S243      1.0  0.63192  0.93667  0.56969  1.0000
  S   S244      1.0  0.57707  0.81730  0.48636  1.0000
  C   C601      1.0  0.56278  0.80801  0.37464  1.0000
  S   S245      1.0  0.75622  0.90983  0.34669  1.0000
  C   C602      1.0  0.54856  0.79126  0.34228  1.0000
  S   S246      1.0  0.90617  0.85702  0.44041  1.0000
  H   H955      1.0  0.70988  0.82007  0.54342  1.0000
  H   H956      1.0  0.54432  0.93066  0.29800  1.0000
  H   H957      1.0  0.73029  0.01497  0.31888  1.0000
  H   H958      1.0  0.77393  0.80962  0.31337  1.0000
  H   H959      1.0  0.60060  0.90337  0.39461  1.0000
  C   C603      1.0  0.62410  0.02260  0.46059  1.0000
  H   H960      1.0  0.77809  0.95980  0.49603  1.0000
  C   C604      1.0  0.75465  0.96354  0.46814  1.0000
  C   C605      1.0  0.60292  0.89435  0.35164  1.0000
  H   H961      1.0  0.78336  0.01951  0.44225  1.0000
  H   H962      1.0  0.89427  0.86084  0.56486  1.0000
  Fe  Fe123     1.0  0.60241  0.77785  0.56998  1.0000
  Fe  Fe124     1.0  0.88494  0.85275  0.35389  1.0000
  C   C606      1.0  0.56916  0.94347  0.28916  1.0000
  H   H963      1.0  0.88600  0.00812  0.31093  1.0000
  H   H964      1.0  0.51257  0.88290  0.25395  1.0000
  Fe  Fe125     1.0  0.84970  0.84557  0.50017  1.0000
  H   H965      1.0  0.79599  0.96053  0.35182  1.0000
  C   C607      1.0  0.83919  0.00531  0.51779  1.0000
  N   N60       1.0  0.73269  0.77835  0.37815  1.0000
  H   H966      1.0  0.47311  0.82239  0.38743  1.0000
  C   C608      1.0  0.88713  0.77674  0.39135  1.0000
  H   H967      1.0  0.94305  0.88386  0.27125  1.0000
  H   H968      1.0  0.67771  0.78447  0.35508  1.0000
  C   C609      1.0  0.63569  0.93963  0.27420  1.0000
  H   H969      1.0  0.88526  0.77490  0.55277  1.0000
  C   C610      1.0  0.45059  0.82598  0.27429  1.0000
  C   C611      1.0  0.87597  0.02267  0.26458  1.0000
  H   H970      1.0  0.47776  0.98725  0.62336  1.0000
  C   C612      1.0  0.89008  0.81897  0.75781  1.0000
  C   C613      1.0  0.58310  0.98319  0.89154  1.0000
  S   S247      1.0  0.61027  0.97686  0.71286  1.0000
  H   H971      1.0  0.50220  0.77666  0.69840  1.0000
  H   H972      1.0  0.72156  0.92260  0.75423  1.0000
  H   H973      1.0  0.73625  0.88912  0.59357  1.0000
  H   H974      1.0  0.86498  0.95547  0.90263  1.0000
  S   S248      1.0  0.71551  0.84552  0.90992  1.0000
  H   H975      1.0  0.86766  0.98541  0.71806  1.0000
  C   C614      1.0  0.53606  0.98057  0.74506  1.0000
  N   N61       1.0  0.49119  0.82846  0.65503  1.0000
  H   H976      1.0  0.53955  0.95454  0.75686  1.0000
  C   C615      1.0  0.86547  0.81187  0.72455  1.0000
  H   H977      1.0  0.47725  0.98387  0.75219  1.0000
  H   H978      1.0  0.75775  0.80241  0.68401  1.0000
  H   H979      1.0  0.48290  0.92059  0.80332  1.0000
  H   H980      1.0  0.52414  0.81578  0.73396  1.0000
  Fe  Fe126     1.0  0.59523  0.94871  0.65576  1.0000
  H   H981      1.0  0.78742  0.86589  0.65854  1.0000
  H   H982      1.0  0.69106  0.87602  0.62860  1.0000
  Fe  Fe127     1.0  0.52753  0.92588  0.63459  1.0000
  H   H983      1.0  0.71667  0.81723  0.64688  1.0000
  H   H984      1.0  0.54820  0.83461  0.64970  1.0000
  C   C616      1.0  0.70603  0.83741  0.75015  1.0000
  H   H985      1.0  0.92797  0.92752  0.74247  1.0000
  H   H986      1.0  0.69884  0.85487  0.77832  1.0000
  C   C617      1.0  0.75663  0.78968  0.90298  1.0000
  H   H987      1.0  0.89803  0.93930  0.67996  1.0000
  C   C618      1.0  0.74224  0.82474  0.65379  1.0000
  C   C619      1.0  0.86735  0.82663  0.65440  1.0000
  Fe  Fe128     1.0  0.60374  0.89097  0.60787  1.0000
  C   C620      1.0  0.45544  0.83028  0.70020  1.0000
  H   H988      1.0  0.84555  0.79457  0.75293  1.0000
  C   C621      1.0  0.50073  0.99708  0.74306  1.0000
  C   C622      1.0  0.89321  0.84881  0.61827  1.0000
  C   C623      1.0  0.67916  0.93978  0.85700  1.0000
  H   H989      1.0  0.75447  0.93169  0.83081  1.0000
  N   N62       1.0  0.92577  0.97809  0.68055  1.0000
  C   C624      1.0  0.70888  0.94818  0.74150  1.0000
  C   C625      1.0  0.83840  0.94901  0.58948  1.0000
  S   S249      1.0  0.46737  0.91862  0.67292  1.0000
  H   H990      1.0  0.66181  0.99762  0.76272  1.0000
  H   H991      1.0  0.68182  0.94922  0.72612  1.0000
  H   H992      1.0  0.71682  0.81381  0.78491  1.0000
  S   S250      1.0  0.55015  0.97401  0.59465  1.0000
  H   H993      1.0  0.78161  0.83222  0.73526  1.0000
  H   H994      1.0  0.47696  0.78991  0.62880  1.0000
  H   H995      1.0  0.48760  0.89486  0.88837  1.0000
  C   C626      1.0  0.74083  0.95695  0.81941  1.0000
  C   C627      1.0  0.56697  0.99777  0.72697  1.0000
  H   H996      1.0  0.65160  0.94102  0.84291  1.0000
  C   C628      1.0  0.71690  0.87985  0.64190  1.0000
  H   H997      1.0  0.60427  0.99544  0.84862  1.0000
  S   S251      1.0  0.83823  0.81688  0.61123  1.0000
  S   S252      1.0  0.57096  0.90099  0.70030  1.0000
  H   H998      1.0  0.75972  0.83386  0.60324  1.0000
  H   H999      1.0  0.51512  0.85850  0.69150  1.0000
  S   S253      1.0  0.45957  0.79455  0.89760  1.0000
  C   C629      1.0  0.76726  0.85526  0.70494  1.0000
  H   H1000     1.0  0.70755  0.00989  0.73877  1.0000
  H   H1001     1.0  0.48517  0.93795  0.86647  1.0000
  S   S254      1.0  0.79259  0.99238  0.63988  1.0000
  N   N63       1.0  0.70436  0.95973  0.79958  1.0000
  H   H1002     1.0  0.76125  0.87184  0.73512  1.0000
  H   H1003     1.0  0.93762  0.87302  0.62241  1.0000
  C   C630      1.0  0.92467  0.94352  0.68995  1.0000
  C   C631      1.0  0.52098  0.83458  0.68380  1.0000
  H   H1004     1.0  0.89531  0.01422  0.72165  1.0000
  H   H1005     1.0  0.82851  0.93066  0.63661  1.0000
  C   C632      1.0  0.44918  0.98474  0.62700  1.0000
  C   C633      1.0  0.91791  0.85571  0.65108  1.0000
  C   C634      1.0  0.89508  0.98827  0.72747  1.0000
  H   H1006     1.0  0.48295  0.87802  0.59013  1.0000
  C   C635      1.0  0.49921  0.79583  0.64871  1.0000
  H   H1007     1.0  0.89737  0.97363  0.78117  1.0000
  H   H1008     1.0  0.68404  0.00322  0.82397  1.0000
  H   H1009     1.0  0.88909  0.80718  0.81185  1.0000
  H   H1010     1.0  0.69045  0.91379  0.87348  1.0000
  H   H1011     1.0  0.73808  0.96430  0.86474  1.0000
  C   C636      1.0  0.68873  0.99405  0.78055  1.0000
  S   S255      1.0  0.63890  0.84668  0.59751  1.0000
  H   H1012     1.0  0.56499  0.97284  0.87070  1.0000
  H   H1013     1.0  0.76693  0.80353  0.85129  1.0000
  H   H1014     1.0  0.70968  0.89900  0.66576  1.0000
  N   N64       1.0  0.73315  0.84935  0.68777  1.0000
  H   H1015     1.0  0.75991  0.97288  0.77827  1.0000
  C   C637      1.0  0.92193  0.99807  0.60990  1.0000
  H   H1016     1.0  0.67978  0.83325  0.73842  1.0000
  C   C638      1.0  0.47404  0.91830  0.85765  1.0000
  C   C639      1.0  0.91662  0.84064  0.72072  1.0000
  H   H1017     1.0  0.72670  0.96332  0.69656  1.0000
  H   H1018     1.0  0.45633  0.81230  0.75182  1.0000
  H   H1019     1.0  0.52549  0.79409  0.61348  1.0000
  H   H1020     1.0  0.67477  0.94801  0.90163  1.0000
  H   H1021     1.0  0.44839  0.85463  0.70593  1.0000
  H   H1022     1.0  0.89421  0.99734  0.59896  1.0000
  C   C640      1.0  0.48922  0.85308  0.58732  1.0000
  S   S256      1.0  0.94174  0.95826  0.89989  1.0000
  H   H1023     1.0  0.94725  0.93516  0.65471  1.0000
  H   H1024     1.0  0.82184  0.00512  0.91272  1.0000
