data_image0
_chemical_formula_structural       FeS2FeS2FeSFeS3FeS2FeS2FeSFeS3FeS2FeS2FeSFeS3FeS2FeS2FeSFeS3C6H4C6H4C6H4C6H4C6H4C6H4C6H4C6H4FeS2FeS2FeSFeS3FeS2FeS2FeSFeS3FeS2FeS2FeSFeS3FeS2FeS2FeSFeS3C6H4C6H4C6H4C6H4C6H4C6H4C6H4C6H4NC4H12NC4H12NC4H12NC4H12NC4H12NC4H12NC4H12NC4H12NC4H12NC4H12NC4H12NC4H12NC4H12NC4H12NC4H12NC4H12
_chemical_formula_sum              "Fe32 S64 C160 H256 N16"
_cell_length_a       18.600111618575763
_cell_length_b       12.681669302797976
_cell_length_c       33.480432760370384
_cell_angle_alpha    102.55776268163513
_cell_angle_beta     79.64412022583171
_cell_angle_gamma    103.4888525573371

_space_group_name_H-M_alt    "P 1"
_space_group_IT_number       1

loop_
  _space_group_symop_operation_xyz
  'x, y, z'

loop_
  _atom_site_type_symbol
  _atom_site_label
  _atom_site_symmetry_multiplicity
  _atom_site_fract_x
  _atom_site_fract_y
  _atom_site_fract_z
  _atom_site_occupancy
  Fe  Fe1       1.0  0.48236208684824966  0.6216262963709589  0.7395334110499174  1.0000
  S   S1        1.0  0.4454751535843542  0.4409621098767076  0.7166054170190943  1.0000
  S   S2        1.0  0.51472522816126  0.7494200057350433  0.699872814410309  1.0000
  Fe  Fe2       1.0  0.4495190507977034  0.5990819565449073  0.8290834985072024  1.0000
  S   S3        1.0  0.40648051894274406  0.4158747090991568  0.8144877918646305  1.0000
  S   S4        1.0  0.46471597601557413  0.7079579907720479  0.8905231829044986  1.0000
  Fe  Fe3       1.0  0.5057119676258193  0.4198915448143161  0.7655843978900663  1.0000
  S   S5        1.0  0.5795283479286528  0.2972269967725367  0.7541792167340979  1.0000
  Fe  Fe4       1.0  0.34976692397534404  0.45505019298720484  0.7674912896814359  1.0000
  S   S6        1.0  0.235429982804499  0.367686335934561  0.7529783880086232  1.0000
  S   S7        1.0  0.5529353516913416  0.6002766112940208  0.7833515485784659  1.0000
  S   S8        1.0  0.38303398131358524  0.6379628115902989  0.786748762387381  1.0000
  Fe  Fe5       1.0  0.889045388490489  0.39455387047293655  0.36865252415669225  1.0000
  S   S9        1.0  0.8404283585793291  0.2165238871931514  0.34661526852806546  1.0000
  S   S10       1.0  0.8166995936124497  0.5196488131894803  0.3809643172722872  1.0000
  Fe  Fe6       1.0  0.04398231122976437  0.35286754800092623  0.3651071105006629  1.0000
  S   S11       1.0  0.009409514173414735  0.17206444416670053  0.34197830955186603  1.0000
  S   S12       1.0  0.1595477320330474  0.4390957400392175  0.3769477839087614  1.0000
  Fe  Fe7       1.0  0.9449150824221784  0.2225261923491182  0.301576992782433  1.0000
  S   S13       1.0  0.8772648082336323  0.9918146460602983  0.7516641696934041  1.0000
  Fe  Fe8       1.0  0.9093418664239623  0.1845110980683593  0.38926410856397453  1.0000
  S   S14       1.0  0.8730857926210573  0.05354033054006635  0.4276232926938359  1.0000
  S   S15       1.0  0.9890395759755366  0.40378412047872914  0.32030254829144944  1.0000
  S   S16       1.0  0.9482023502752197  0.362319550551927  0.4161981878456338  1.0000
  Fe  Fe9       1.0  0.4558664385748674  0.41125244273383643  0.5153044841573884  1.0000
  S   S17       1.0  0.5244957790111968  0.30499274993785264  0.4687268241919682  1.0000
  S   S18       1.0  0.48639060494228836  0.5946667833894601  0.5325657439609426  1.0000
  Fe  Fe10      1.0  0.33557040626018786  0.21944282387662994  0.537022666202148  1.0000
  S   S19       1.0  0.39288386340307735  0.09659201547238538  0.49249492578604936  1.0000
  S   S20       1.0  0.22318954239065114  0.16468814941521615  0.5715618617212499  1.0000
  Fe  Fe11      1.0  0.49674527940240765  0.19688929130330024  0.51669350234841  1.0000
  S   S21       1.0  0.5674350287893919  0.10591679768242912  0.5382197717886648  1.0000
  Fe  Fe12      1.0  0.4135466792431206  0.21491551224774952  0.44941141134876794  1.0000
  S   S22       1.0  0.38377860071325287  0.1457119649823433  0.38574879037784093  1.0000
  S   S23       1.0  0.43768566983508084  0.31115529673361664  0.5650892515619059  1.0000
  S   S24       1.0  0.34726334664158287  0.3308202639172819  0.4920981004873628  1.0000
  Fe  Fe13      1.0  0.061914457655042554  0.6048013751267014  0.5933212797466467  1.0000
  S   S25       1.0  0.011715035875076829  0.7337177549350677  0.638978210574427  1.0000
  S   S26       1.0  0.17133392225623734  0.6491543308205117  0.5544988130766058  1.0000
  Fe  Fe14      1.0  0.939555197373962  0.4193615649538991  0.6184880522124505  1.0000
  S   S27       1.0  0.8768643628364661  0.5314552282907812  0.6662232459394506  1.0000
  S   S28       1.0  0.9049220154226063  0.23601515443645127  0.6021615914328589  1.0000
  Fe  Fe15      1.0  0.9037603162793566  0.6381185355429828  0.6178159761317019  1.0000
  S   S29       1.0  0.8319854961928543  0.7310244017090426  0.59811968846161  1.0000
  Fe  Fe16      1.0  0.990764851277369  0.6162836862929844  0.6826316789318962  1.0000
  S   S30       1.0  0.022646783829008754  0.6804976600944883  0.746259456486353  1.0000
  S   S31       1.0  0.955907270885664  0.5179811524991536  0.5684635604667925  1.0000
  S   S32       1.0  0.051230770138366744  0.4951251970131487  0.6386686879872912  1.0000
  C   C1        1.0  0.20879250122605608  0.021322898641486177  0.5663380417019521  1.0000
  C   C2        1.0  0.1369775798142312  0.9570362641071952  0.5645409517351965  1.0000
  C   C3        1.0  0.12578776449290618  0.8420552279635558  0.5596821041565914  1.0000
  C   C4        1.0  0.1863605519949827  0.7914367496660724  0.5566221611601314  1.0000
  C   C5        1.0  0.2582995612263579  0.8555900924431583  0.55779537438411  1.0000
  C   C6        1.0  0.2693061026203383  0.9706330764568527  0.5633024617867175  1.0000
  H   H1        1.0  0.08998813454143662  0.9958358508133038  0.5667955145867651  1.0000
  H   H2        1.0  0.07016134777613825  0.7924800164116199  0.558004733033993  1.0000
  H   H3        1.0  0.3052869756175651  0.816852193875583  0.5555307691452587  1.0000
  H   H4        1.0  0.3245888187973671  0.02018735416381645  0.5661149008798319  1.0000
  C   C7        1.0  0.2246595135264391  0.35702960718990084  0.3744662357089421  1.0000
  C   C8        1.0  0.21098976423241744  0.24439525887263258  0.3573488263651008  1.0000
  C   C9        1.0  0.2620160681851518  0.1796384349266944  0.3586700576626356  1.0000
  C   C10       1.0  0.3261615063640848  0.22770425756620938  0.37753060811722605  1.0000
  C   C11       1.0  0.3410967853520175  0.3408449732474885  0.39313817601451895  1.0000
  C   C12       1.0  0.29050086227359007  0.40538281843572577  0.3915693029807308  1.0000
  H   H5        1.0  0.1612773650708812  0.20695175677408884  0.34328298419941206  1.0000
  H   H6        1.0  0.2504972557642198  0.09202563899837557  0.3464095744039426  1.0000
  H   H7        1.0  0.3913787441802352  0.3786033303266336  0.4069359934844776  1.0000
  H   H8        1.0  0.30165587282924644  0.4923828042874838  0.4045427017869372  1.0000
  C   C13       1.0  0.7880603066376013  0.06918118569598875  0.45788854485276786  1.0000
  C   C14       1.0  0.7561738659508901  0.9989200274365864  0.48596460650081497  1.0000
  C   C15       1.0  0.6874339706618375  0.009114654851497761  0.5098807231687736  1.0000
  C   C16       1.0  0.650868512159132  0.0903615520382175  0.5059790515396507  1.0000
  C   C17       1.0  0.6831162442107939  0.16157051526009525  0.47816244841074607  1.0000
  C   C18       1.0  0.7519562992651965  0.15118549904699918  0.4541570508839108  1.0000
  H   H9        1.0  0.7849469745267967  0.9371019161554095  0.4892734175281248  1.0000
  H   H10       1.0  0.6623279945391376  0.9534105070942083  0.5311666526151093  1.0000
  H   H11       1.0  0.6555804057054724  0.22520038313425417  0.47544508827070864  1.0000
  H   H12       1.0  0.7769762881291182  0.2066854546929875  0.43288965031888793  1.0000
  C   C19       1.0  0.8817500049793976  0.06266826316787544  0.7113033106152358  1.0000
  C   C20       1.0  0.8746835509106266  0.0017225123997199887  0.6715770920636199  1.0000
  C   C21       1.0  0.8818635539991684  0.055247082876327624  0.6381820867919483  1.0000
  C   C22       1.0  0.8965279210907493  0.170390883275072  0.6443495952014473  1.0000
  C   C23       1.0  0.9029035055105705  0.23187922687467477  0.684151387259881  1.0000
  C   C24       1.0  0.8952766032531176  0.17803785247852488  0.7176494266601487  1.0000
  H   H13       1.0  0.8646418574107946  0.9126869248086855  0.6665137222191131  1.0000
  H   H14       1.0  0.8765661050547102  0.0069483199955477915  0.607533094183303  1.0000
  H   H15       1.0  0.9132015561168867  0.3208324711350947  0.6891672852008348  1.0000
  H   H16       1.0  0.9000250199460602  0.2259943412878762  0.7481774676400637  1.0000
  C   C25       1.0  0.17172144109110477  0.4530378167647555  0.7565468294158482  1.0000
  C   C26       1.0  0.18421423008182103  0.5623904278632779  0.7777512423366435  1.0000
  C   C27       1.0  0.13615031047822956  0.6319313599803422  0.7766146274546291  1.0000
  C   C28       1.0  0.07528193743679523  0.5914060353318717  0.7545260062298862  1.0000
  C   C29       1.0  0.06026666717654994  0.48060414693081555  0.7356700352923937  1.0000
  C   C30       1.0  0.1086483146852526  0.4118140521910938  0.7362874110812356  1.0000
  H   H17       1.0  0.23059339231940612  0.593457548174527  0.7950191412954499  1.0000
  H   H18       1.0  0.1473580590429  0.7174849336620142  0.7917597180214742  1.0000
  H   H19       1.0  0.01166367860845341  0.44808111100860515  0.7200439791831528  1.0000
  H   H20       1.0  0.09776479144765737  0.32754724241217303  0.7200690262541158  1.0000
  C   C31       1.0  0.6039300551996876  0.7450996650148234  0.6729990989433983  1.0000
  C   C32       1.0  0.6373632922427372  0.8225512629671634  0.6478296021274108  1.0000
  C   C33       1.0  0.7085959794111947  0.8196952080237594  0.6259562227109345  1.0000
  C   C34       1.0  0.7462947550949579  0.7389429951931383  0.6290196438664193  1.0000
  C   C35       1.0  0.7131760430091889  0.6617820578887468  0.6544843649206431  1.0000
  C   C36       1.0  0.6417413795700853  0.6646804324038165  0.6764443927520976  1.0000
  H   H21       1.0  0.6078874303790149  0.8841349463317947  0.6450019282472503  1.0000
  H   H22       1.0  0.7344250686628309  0.8800237105014439  0.6065370417558746  1.0000
  H   H23       1.0  0.7417189689906492  0.5985598909907814  0.6564756601215596  1.0000
  H   H24       1.0  0.6155142685181296  0.6037162039837902  0.6954313624392405  1.0000
  C   C37       1.0  0.6382983395222768  0.3301319798281064  0.7922988015397827  1.0000
  C   C38       1.0  0.7004569914922145  0.281397458903033  0.7862195715757103  1.0000
  C   C39       1.0  0.7491033899628219  0.3094992637269911  0.815879822136468  1.0000
  C   C40       1.0  0.7652989682357711  0.498718530199767  0.3399416607328938  1.0000
  C   C41       1.0  0.7056801643308619  0.551998139746047  0.3445789771851242  1.0000
  C   C42       1.0  0.6239128101979006  0.4053382315729941  0.8286258571097687  1.0000
  H   H25       1.0  0.7115967318537431  0.2217995692376178  0.7586772575974017  1.0000
  H   H26       1.0  0.7979025533727171  0.27326915430018417  0.8104377391542936  1.0000
  H   H27       1.0  0.6913270239372844  0.6063592068410486  0.3730795488934522  1.0000
  H   H28       1.0  0.5749595689260287  0.4413772440709174  0.833998654923942  1.0000
  C   C43       1.0  0.5214877521879213  0.7735842447399186  0.42402898857247706  1.0000
  C   C44       1.0  0.5075858745932411  0.658088162723633  0.41689631247635184  1.0000
  C   C45       1.0  0.4947690890796723  0.6022004051928782  0.45026022675231125  1.0000
  C   C46       1.0  0.49701224955895107  0.6619299905449196  0.49062920127918375  1.0000
  C   C47       1.0  0.5107254677802349  0.777086933963286  0.4976225124214597  1.0000
  C   C48       1.0  0.5224735042158661  0.8325254531610362  0.4644096401157505  1.0000
  H   H29       1.0  0.507605440161778  0.6117982755098126  0.38581302205145285  1.0000
  H   H30       1.0  0.48463676583749127  0.5131539782616166  0.44466956976828165  1.0000
  H   H31       1.0  0.5127701549292443  0.8240036504727648  0.5287013146687194  1.0000
  H   H32       1.0  0.5327563314493702  0.9216411653903158  0.4699981050133957  1.0000
  Fe  Fe17      1.0  0.5393175524158842  0.7794531855379319  0.23171096469685892  1.0000
  S   S33       1.0  0.4880344968372192  0.6032626652490087  0.20902678037084144  1.0000
  S   S34       1.0  0.5736929724652446  0.9041595170926797  0.19029158515734323  1.0000
  Fe  Fe18      1.0  0.5181044045734859  0.7495017148779013  0.32092607844549903  1.0000
  S   S35       1.0  0.4630063853952082  0.5714466600091654  0.3062192272394064  1.0000
  S   S36       1.0  0.5374237732710077  0.8474824581949392  0.38353345537001715  1.0000
  Fe  Fe19      1.0  0.5541073081519201  0.5667685494862766  0.25236733399238176  1.0000
  S   S37       1.0  0.6232862541699387  0.4369287605900496  0.23657973084072026  1.0000
  Fe  Fe20      1.0  0.402559259444331  0.6273091834556688  0.2649796174381329  1.0000
  S   S38       1.0  0.28085360801265047  0.5599304676676766  0.26108413350738147  1.0000
  S   S39       1.0  0.6137218733149572  0.742037940217326  0.26995007108039815  1.0000
  S   S40       1.0  0.4494088027378291  0.8063527936970054  0.28463355514709576  1.0000
  Fe  Fe21      1.0  0.8636260853267776  0.2893648932233006  0.8767603067895671  1.0000
  S   S41       1.0  0.802499294625636  0.11365390652973417  0.8628883165107162  1.0000
  S   S42       1.0  0.7981353848455006  0.4223960710597652  0.8880300783426147  1.0000
  Fe  Fe22      1.0  0.013750901203382071  0.22798590841270538  0.8682813213049094  1.0000
  S   S43       1.0  0.9658480232835922  0.04787510530404049  0.8522833926401745  1.0000
  S   S44       1.0  0.13437633242692826  0.29837215640311143  0.8743854367860404  1.0000
  Fe  Fe23      1.0  0.8988534111140067  0.09745440597913912  0.8128855681756662  1.0000
  S   S45       1.0  0.9378333024534777  0.12807699723113686  0.23740089774716466  1.0000
  Fe  Fe24      1.0  0.8751662172380614  0.08294369253538036  0.9037903820605315  1.0000
  S   S46       1.0  0.841466399556297  0.966883194955173  0.9485822416020575  1.0000
  S   S47       1.0  0.955522062284353  0.2755202796469476  0.8238434591256691  1.0000
  S   S48       1.0  0.9272756718969744  0.2606995526939073  0.922904451766513  1.0000
  Fe  Fe25      1.0  0.4603855862472397  0.2803296021331434  0.00682784951407811  1.0000
  S   S49       1.0  0.49207673273441266  0.1251021866780313  0.9691196354997338  1.0000
  S   S50       1.0  0.5343325210571894  0.4477807483369496  0.014289638516174819  1.0000
  Fe  Fe26      1.0  0.3162495432645045  0.1617874127669019  0.048349603956047815  1.0000
  S   S51       1.0  0.3358544271357484  0.9936753083667114  0.017351564795564656  1.0000
  S   S52       1.0  0.2155994869473945  0.20646146211723249  0.08977919272463453  1.0000
  Fe  Fe27      1.0  0.4547767861191536  0.06251374779567342  0.028755461689854656  1.0000
  S   S53       1.0  0.5257872314542933  0.9805202745708002  0.054601671698442544  1.0000
  Fe  Fe28      1.0  0.37165634848378026  0.06963930950699648  0.9605039565712872  1.0000
  S   S54       1.0  0.32720116962351664  0.9795341791557775  0.9016867118984582  1.0000
  S   S55       1.0  0.4299713419885913  0.2209070925389227  0.06670874273977745  1.0000
  S   S56       1.0  0.34397563792899444  0.23320384096888702  0.9908140745108991  1.0000
  Fe  Fe29      1.0  0.09586061082514519  0.700889619037973  0.08727824196822453  1.0000
  S   S57       1.0  0.07475371256052554  0.8676328599138898  0.11894370045610358  1.0000
  S   S58       1.0  0.19718040932747716  0.6579359755767733  0.045916639750572585  1.0000
  Fe  Fe30      1.0  0.9517628819438402  0.5794407795632637  0.1275761436242817  1.0000
  S   S59       1.0  0.9177217594033982  0.7330300810922594  0.1657962148264609  1.0000
  S   S60       1.0  0.8847672451874047  0.40805267075877794  0.11570181370905175  1.0000
  Fe  Fe31      1.0  0.9562354360571543  0.7986832066571914  0.10677224848557998  1.0000
  S   S61       1.0  0.886677039677882  0.8840496209633919  0.08121537615446783  1.0000
  Fe  Fe32      1.0  0.03825326474918622  0.7892813609614606  0.17521379424697514  1.0000
  S   S62       1.0  0.08638790782081784  0.8769498813152516  0.23328520510250073  1.0000
  S   S63       1.0  0.9826636014629635  0.6417706679463073  0.06831494339464683  1.0000
  S   S64       1.0  0.06748292972280101  0.6272613411672445  0.14430039361637625  1.0000
  C   C49       1.0  0.21059403650773145  0.3346212710181682  0.07978760741141144  1.0000
  C   C50       1.0  0.14138124948283437  0.36288247878180613  0.08266791233739923  1.0000
  C   C51       1.0  0.13712888493913944  0.45848555680220926  0.06941313014712236  1.0000
  C   C52       1.0  0.20215671272120428  0.5291239012515625  0.05530832987858858  1.0000
  C   C53       1.0  0.2713559765116971  0.5007210843625955  0.05231336123285146  1.0000
  C   C54       1.0  0.27561490237261754  0.4049684462875689  0.06547535847498054  1.0000
  H   H33       1.0  0.09078914986605557  0.30979797279572097  0.09404530800719968  1.0000
  H   H34       1.0  0.08311550141914914  0.4773538125848269  0.07018842826692051  1.0000
  H   H35       1.0  0.32193161070154996  0.5539693413112907  0.04101695399519656  1.0000
  H   H36       1.0  0.3296073687507235  0.3859881090693733  0.06464378040742247  1.0000
  C   C55       1.0  0.18996249001427845  0.20629143368935132  0.8771095543688379  1.0000
  C   C56       1.0  0.26157708761406795  0.24895381157697472  0.8880298369257815  1.0000
  C   C57       1.0  0.3051841334715215  0.17855353542253738  0.8936280936600962  1.0000
  C   C58       1.0  0.2773035166560076  0.06494387275745694  0.8884216072016233  1.0000
  C   C59       1.0  0.20709850955624454  0.02115891633663125  0.8756439598849717  1.0000
  C   C60       1.0  0.16332964813644324  0.09198799018786019  0.8701762673086151  1.0000
  H   H37       1.0  0.28301755017765196  0.33672693832552625  0.8930347978551758  1.0000
  H   H38       1.0  0.3601845357455824  0.21276543391466518  0.9024602080984945  1.0000
  H   H39       1.0  0.18560449250495292  0.9331154944707336  0.8712150793527211  1.0000
  H   H40       1.0  0.10911565528676803  0.05786436095067771  0.8609367081618053  1.0000
  C   C61       1.0  0.7567697146771506  0.9805098170044317  0.9800129673378368  1.0000
  C   C62       1.0  0.7150120089889835  0.053832913878700595  0.9749453757048183  1.0000
  C   C63       1.0  0.6449249888343891  0.05676345851726694  0.9986869600317583  1.0000
  C   C64       1.0  0.6152711316951294  0.9836836879472024  0.02626816194592152  1.0000
  C   C65       1.0  0.6588529967145238  0.9145337986034257  0.032568982844718875  1.0000
  C   C66       1.0  0.7300574932315209  0.9150739298706547  0.010128459132719314  1.0000
  H   H41       1.0  0.7365706979192943  0.10821924568611152  0.9528794231774071  1.0000
  H   H42       1.0  0.6150413194107642  0.11703075841152  0.9960529762572836  1.0000
  H   H43       1.0  0.6377141078823367  0.8610692283259453  0.05502580530485801  1.0000
  H   H44       1.0  0.764758311929099  0.865139182583853  0.01617525966867106  1.0000
  C   C67       1.0  0.9255589939641462  0.20760298307232006  0.20341151359718168  1.0000
  C   C68       1.0  0.9098744086734261  0.15617897435176786  0.16371914751801953  1.0000
  C   C69       1.0  0.8977125660889493  0.21816710040067733  0.1366100226300233  1.0000
  C   C70       1.0  0.9025977165955181  0.3318858541794505  0.14899966339122273  1.0000
  C   C71       1.0  0.9203253024095437  0.38407954437419534  0.18822367385605432  1.0000
  C   C72       1.0  0.9310106590479839  0.32160067094746836  0.21553960006838224  1.0000
  H   H45       1.0  0.9062008227083842  0.0681648871441034  0.15415315367568283  1.0000
  H   H46       1.0  0.8851103964725908  0.1780177352662733  0.10603497634513914  1.0000
  H   H47       1.0  0.9241406287539942  0.4721252164433096  0.19785268958417745  1.0000
  H   H48       1.0  0.9430396890623403  0.3620470594926708  0.2458785683542004  1.0000
  C   C73       1.0  0.22585907991793697  0.6517352118376536  0.2572128877243358  1.0000
  C   C74       1.0  0.2532482147918458  0.7658335046037088  0.26258028782466525  1.0000
  C   C75       1.0  0.20904300541822618  0.8361164053703867  0.2570824378674246  1.0000
  C   C76       1.0  0.1379297101986232  0.7919382342277856  0.24549115705587  1.0000
  C   C77       1.0  0.10974504698663878  0.6785520279234163  0.2414080812354058  1.0000
  C   C78       1.0  0.15351140309896305  0.6088282155748352  0.24739558920554217  1.0000
  H   H49       1.0  0.3082916352989482  0.8001946345948525  0.27070480252090334  1.0000
  H   H50       1.0  0.23071612597546665  0.924057701002809  0.26067636708859965  1.0000
  H   H51       1.0  0.05424320311675768  0.6440052639498717  0.23333399422671874  1.0000
  H   H52       1.0  0.13151846016529234  0.5212582003573623  0.24364020824391375  1.0000
  C   C79       1.0  0.6596797161092827  0.8945175683512723  0.15964339590834697  1.0000
  C   C80       1.0  0.6914375680570437  0.9720585697387207  0.1343231154763842  1.0000
  C   C81       1.0  0.7607467093480071  0.9676852886481093  0.11006890413354853  1.0000
  C   C82       1.0  0.7989771246833506  0.8861126482423458  0.11128013508990975  1.0000
  C   C83       1.0  0.7660629935878234  0.8061882945092833  0.13573387408467852  1.0000
  C   C84       1.0  0.6965261158320963  0.8104703688911705  0.16003165472657344  1.0000
  H   H53       1.0  0.6620329211347737  0.03500377801169563  0.13335107408646962  1.0000
  H   H54       1.0  0.7848385440862042  0.027575695890700302  0.09034769005077692  1.0000
  H   H55       1.0  0.7930556216375715  0.7394847635344419  0.1352321166581909  1.0000
  H   H56       1.0  0.6715019573560435  0.7486568878034845  0.1788695898512742  1.0000
  C   C85       1.0  0.6810914927258791  0.46518683771021685  0.27507775651731947  1.0000
  C   C86       1.0  0.7420252119199944  0.4140478238236476  0.26985538603889125  1.0000
  C   C87       1.0  0.7837104676363857  0.4299928610498256  0.3024704100828721  1.0000
  C   C88       1.0  0.7354967129049168  0.3856940997508893  0.8518985407454256  1.0000
  C   C89       1.0  0.6725878322618755  0.4331588847441026  0.8584950056473719  1.0000
  C   C90       1.0  0.663570733361488  0.5349231048154017  0.31232570862332665  1.0000
  H   H57       1.0  0.7566841844962422  0.3613534459713783  0.2408223279087096  1.0000
  H   H58       1.0  0.8303847945009641  0.3897376952731264  0.2984106079074387  1.0000
  H   H59       1.0  0.6610848807959746  0.4907866143820456  0.8866918424683021  1.0000
  H   H60       1.0  0.6162529288854328  0.5738657791045583  0.316904775037937  1.0000
  C   C91       1.0  0.48198782789915917  0.6362707753715604  0.9258168150315971  1.0000
  C   C92       1.0  0.46420255559715695  0.5210853747444908  0.9188002301963536  1.0000
  C   C93       1.0  0.4793708918620938  0.46340517855406915  0.9463767168088779  1.0000
  C   C94       1.0  0.5128745996861106  0.5209393252324297  0.9810150016495722  1.0000
  C   C95       1.0  0.530497768263257  0.6363685529961423  0.9884294614433919  1.0000
  C   C96       1.0  0.5144787006766984  0.6941668520513424  0.9609294096387568  1.0000
  H   H61       1.0  0.43803364563437786  0.4758578194507024  0.8924493626430667  1.0000
  H   H62       1.0  0.4661159618426778  0.3742250323705072  0.9404267681816165  1.0000
  H   H63       1.0  0.5560171582432769  0.6811702276236531  0.01542891137727409  1.0000
  H   H64       1.0  0.527920647247984  0.7834892733036085  0.9667109795491928  1.0000
  N   N1        1.0  0.22931023663203476  0.639955451682237  0.9198926496957966  1.0000
  C   C97       1.0  0.19543222276228445  0.7008808506813082  0.8978044207422595  1.0000
  C   C98       1.0  0.2743701254710471  0.5695584639203055  0.8896265158532941  1.0000
  C   C99       1.0  0.16992500392451682  0.570088721447469  0.9438590306485146  1.0000
  C   C100      1.0  0.27788242048744394  0.7190417176728623  0.9481082339644367  1.0000
  H   H65       1.0  0.1617681606023158  0.7559638975162137  0.9197726133722686  1.0000
  H   H66       1.0  0.15851460818064567  0.6433268625752042  0.8762223045196649  1.0000
  H   H67       1.0  0.23911305444166597  0.7537744952760477  0.8792500402934458  1.0000
  H   H68       1.0  0.23943433552355486  0.5057861116287832  0.8686326707343284  1.0000
  H   H69       1.0  0.3178326665423219  0.619544233215521  0.8702624330146804  1.0000
  H   H70       1.0  0.30371710356981296  0.5268213360476501  0.905372851460033  1.0000
  H   H71       1.0  0.13132457091602578  0.5111931692282212  0.9236264370099612  1.0000
  H   H72       1.0  0.1361484055474813  0.6206509592859213  0.967944101406724  1.0000
  H   H73       1.0  0.19384044181067406  0.5206005894343946  0.9598741607654535  1.0000
  H   H74       1.0  0.24579237060792192  0.7732187772859476  0.9716582584066327  1.0000
  H   H75       1.0  0.3233435609892501  0.7731941356870955  0.9310169728167654  1.0000
  H   H76       1.0  0.30493126663285874  0.6757535047890357  0.9650194158879248  1.0000
  N   N2        1.0  0.7147028453093647  0.5966514308434867  0.49993428891754554  1.0000
  C   C101      1.0  0.6743014146778918  0.54583472160936  0.46415726850586303  1.0000
  C   C102      1.0  0.6992302752801463  0.7083039685777877  0.5164579142502639  1.0000
  C   C103      1.0  0.7957397928717551  0.6048450962534808  0.48670618349135353  1.0000
  C   C104      1.0  0.6894280914321111  0.5277007678963876  0.5321386785040403  1.0000
  H   H77       1.0  0.6867016525370975  0.4631328677523534  0.4497337554688432  1.0000
  H   H78       1.0  0.6902436305676432  0.5977709860800644  0.4399946157300558  1.0000
  H   H79       1.0  0.6131281627446334  0.5361938026867925  0.47325411314193033  1.0000
  H   H80       1.0  0.6400244193664282  0.7053084795925884  0.5305083559408104  1.0000
  H   H81       1.0  0.7348236164654729  0.7536064410211303  0.5405538731099568  1.0000
  H   H82       1.0  0.7101505198903322  0.7583971046327278  0.4917685703331962  1.0000
  H   H83       1.0  0.8166129740271115  0.6586534929321957  0.4631296255015851  1.0000
  H   H84       1.0  0.8093590574536842  0.522576437867663  0.47279433763311296  1.0000
  H   H85       1.0  0.8281244488788486  0.6405708179890972  0.5130576361175301  1.0000
  H   H86       1.0  0.6285575918426431  0.5212066853911494  0.543013141205769  1.0000
  H   H87       1.0  0.7190843911053131  0.5635182122578115  0.5595068008096042  1.0000
  H   H88       1.0  0.6997175244044005  0.4426916560054863  0.5203702889497315  1.0000
  N   N3        1.0  0.3106575038753645  0.5948830887184151  0.6394646783216267  1.0000
  C   C105      1.0  0.361436834949477  0.6974538073238286  0.6298642826175946  1.0000
  C   C106      1.0  0.2984447222872504  0.5152282921005273  0.6007021039130223  1.0000
  C   C107      1.0  0.23848733401896993  0.6199384614313637  0.6613613266661087  1.0000
  C   C108      1.0  0.3445981309513284  0.5466382680250241  0.6659718622361179  1.0000
  H   H89       1.0  0.37195413520224285  0.7595474558036308  0.6583986518629423  1.0000
  H   H90       1.0  0.33840836516139294  0.7351173099277837  0.6091667888141679  1.0000
  H   H91       1.0  0.41691748518238647  0.6814855492614456  0.6139688461060437  1.0000
  H   H92       1.0  0.2734407605386169  0.549130795924551  0.5797247650716404  1.0000
  H   H93       1.0  0.35198456103787645  0.49535182330292216  0.5834602833059961  1.0000
  H   H94       1.0  0.2606883787998866  0.43644081144493896  0.6067065659711481  1.0000
  H   H95       1.0  0.19958745633275843  0.5443071298838902  0.669651601515417  1.0000
  H   H96       1.0  0.21081797571497507  0.6551594710290978  0.641935739454345  1.0000
  H   H97       1.0  0.24568352040451202  0.680093366395699  0.6907073350881028  1.0000
  H   H98       1.0  0.30806684304801735  0.46877309885764973  0.6738721305339919  1.0000
  H   H99       1.0  0.3546265072807042  0.6046243871715937  0.6954856047629168  1.0000
  H   H100      1.0  0.399506544318883  0.5277260982829155  0.6503810938683685  1.0000
  N   N4        1.0  0.12762712212808314  0.04728592693912148  0.7052696491517096  1.0000
  C   C109      1.0  0.1925980745763276  0.12071369272825194  0.6863688207264858  1.0000
  C   C110      1.0  0.1468040629776164  0.9394997562099654  0.7034933720104384  1.0000
  C   C111      1.0  0.06402436427938074  0.031105386675292834  0.6822317361694257  1.0000
  C   C112      1.0  0.10686310633434282  0.09715094129261104  0.7488721963939753  1.0000
  H   H101      1.0  0.1789169234708261  0.2007009792420149  0.6851866087366894  1.0000
  H   H102      1.0  0.21169925892103514  0.08330860193601453  0.6540870059656427  1.0000
  H   H103      1.0  0.2405178018545815  0.13983247016831157  0.7042471102805905  1.0000
  H   H104      1.0  0.19467357127066265  0.9487425333088382  0.7205601864679174  1.0000
  H   H105      1.0  0.09887964572209107  0.8823301307728819  0.7176444657406016  1.0000
  H   H106      1.0  0.16187598195750041  0.8989169422153367  0.6710059530251584  1.0000
  H   H107      1.0  0.014831006681311543  0.9730324165250792  0.6947891072789787  1.0000
  H   H108      1.0  0.07815002220459544  0.9964098025251289  0.6490169858256465  1.0000
  H   H109      1.0  0.04637670310673858  0.11023532640327716  0.6839462428892222  1.0000
  H   H110      1.0  0.15372425928372913  0.11185654132560074  0.767289500495739  1.0000
  H   H111      1.0  0.057829727066793346  0.04353380861783762  0.7638287176286944  1.0000
  H   H112      1.0  0.09189603996655649  0.17852032921696193  0.7515676667430942  1.0000
  N   N5        1.0  0.6600719006828681  0.29622242442446733  0.1148233419141782  1.0000
  C   C113      1.0  0.6078210695576649  0.24015509282441627  0.14613688161735894  1.0000
  C   C114      1.0  0.618468922576624  0.30609064676346165  0.08264071469014311  1.0000
  C   C115      1.0  0.7178548014964443  0.23100056527426105  0.09590424800319752  1.0000
  C   C116      1.0  0.6960354890386098  0.40730487868821896  0.1345947177555331  1.0000
  H   H113      1.0  0.5790633765603364  0.15647746856911127  0.13204409064691447  1.0000
  H   H114      1.0  0.5641294954987437  0.2880992482613607  0.16149548085523335  1.0000
  H   H115      1.0  0.6375238837777779  0.23036893637834055  0.17076719546424357  1.0000
  H   H116      1.0  0.6560254813614783  0.3451810727389528  0.05794797930655804  1.0000
  H   H117      1.0  0.5896276186910407  0.22365077445973824  0.06775577998945792  1.0000
  H   H118      1.0  0.5753824355044861  0.35685673244986305  0.09568779950792106  1.0000
  H   H119      1.0  0.7498472714197266  0.22153357456594946  0.1195592012403921  1.0000
  H   H120      1.0  0.7588306318462115  0.2708937577317805  0.0723345768714303  1.0000
  H   H121      1.0  0.6929788865891569  0.14696732453288064  0.0805159472071324  1.0000
  H   H122      1.0  0.6542434680349514  0.45911808336258275  0.14930051121914545  1.0000
  H   H123      1.0  0.7365163791301157  0.451339727732055  0.11197227178944047  1.0000
  H   H124      1.0  0.7277393075124658  0.4024889288853579  0.1592043860550696  1.0000
  N   N6        1.0  0.87946881900048  0.8168170351325159  0.30965758453322856  1.0000
  C   C117      1.0  0.8103771101643771  0.8096935522565296  0.33957292536427097  1.0000
  C   C118      1.0  0.8799326378336065  0.8954860147253854  0.2828327821341379  1.0000
  C   C119      1.0  0.8830835583677441  0.707004816836033  0.2839728769258283  1.0000
  C   C120      1.0  0.944722114803942  0.8552336185064675  0.33237761044969005  1.0000
  H   H125      1.0  0.759766499727375  0.7781137202741881  0.3237298463446443  1.0000
  H   H126      1.0  0.8052838068739447  0.8918582651760261  0.3588036635217513  1.0000
  H   H127      1.0  0.8095616434490651  0.7538729318808777  0.36118503037681293  1.0000
  H   H128      1.0  0.8768885005605904  0.9791401772380368  0.30113815131369037  1.0000
  H   H129      1.0  0.9318793341243907  0.9045993603564746  0.26025922967364323  1.0000
  H   H130      1.0  0.8320381003875461  0.868486407555995  0.26475967138326517  1.0000
  H   H131      1.0  0.9335667654893136  0.7109763925058594  0.2602902453725857  1.0000
  H   H132      1.0  0.833342763834878  0.6732009545577071  0.26747852599616273  1.0000
  H   H133      1.0  0.8857918177085935  0.6466837354775379  0.30306847828064143  1.0000
  H   H134      1.0  0.9979538520223175  0.862451213942645  0.31090028046262574  1.0000
  H   H135      1.0  0.9460219056373207  0.7973993574611598  0.3528210110564771  1.0000
  H   H136      1.0  0.9436292811687013  0.9375218444534887  0.352217445909476  1.0000
  N   N7        1.0  0.7591265804501628  0.5935715741111878  0.004444049425064378  1.0000
  C   C121      1.0  0.7174482038840679  0.6307416153180156  0.04507256024156092  1.0000
  C   C122      1.0  0.7229885018359248  0.6111721538270203  0.9711605705307012  1.0000
  C   C123      1.0  0.7595289558378555  0.4750527861907905  0.999832465838951  1.0000
  C   C124      1.0  0.8368553033249064  0.6566821577996649  0.001877048224766753  1.0000
  H   H137      1.0  0.7176340875555951  0.7203132019164578  0.05048150689992781  1.0000
  H   H138      1.0  0.7423947744203447  0.6167431715273572  0.07076281478358837  1.0000
  H   H139      1.0  0.6581384572685565  0.586890406226825  0.04754932003453405  1.0000
  H   H140      1.0  0.710094861853559  0.6947972647520864  0.9773143920922021  1.0000
  H   H141      1.0  0.759174363685629  0.6023878221891401  0.9409669719795488  1.0000
  H   H142      1.0  0.6696015040995444  0.5510899654815553  0.967338371222052  1.0000
  H   H143      1.0  0.7023235324109702  0.4238110666887245  0.9982977279464276  1.0000
  H   H144      1.0  0.7826173874025901  0.45839017355346456  0.025759865511194135  1.0000
  H   H145      1.0  0.7947108687013964  0.44549661801906737  0.970994786591941  1.0000
  H   H146      1.0  0.8397095265584209  0.7456047991177286  0.002881049282539294  1.0000
  H   H147      1.0  0.8709895843271926  0.6259897774499308  0.9726242393697451  1.0000
  H   H148      1.0  0.8639257311580648  0.6510455845215333  0.028059544393791214  1.0000
  N   N8        1.0  0.08627428779941315  0.25833248426005184  0.5000767301987636  1.0000
  C   C125      1.0  0.11478830064138013  0.3605249978895557  0.48288596569718045  1.0000
  C   C126      1.0  0.08972698680283031  0.28332281048731645  0.5449390809265644  1.0000
  C   C127      1.0  0.13243939012420647  0.17609181889213943  0.4798581941580444  1.0000
  C   C128      1.0  0.008031405652045187  0.21348360596394045  0.4926630980210973  1.0000
  H   H149      1.0  0.08248366853787381  0.4255763125253722  0.4981000276134715  1.0000
  H   H150      1.0  0.11109414209543189  0.34503627349596755  0.4492735553959175  1.0000
  H   H151      1.0  0.17433117701355805  0.39546662373727415  0.48697431858829354  1.0000
  H   H152      1.0  0.0703398086709095  0.20765345556698378  0.5588960128778595  1.0000
  H   H153      1.0  0.14753085075646322  0.32064150631417476  0.5518347096479062  1.0000
  H   H154      1.0  0.053490859065498775  0.34207677810540105  0.5610662925281673  1.0000
  H   H155      1.0  0.11197044913408138  0.09775915202466479  0.4919828553752996  1.0000
  H   H156      1.0  0.1914883466470405  0.20665504336451335  0.4855379212703532  1.0000
  H   H157      1.0  0.13214919507016631  0.15686997239760458  0.4457948617214491  1.0000
  H   H158      1.0  0.984162375986112  0.13694069890672367  0.5056556268219943  1.0000
  H   H159      1.0  0.0033882002354950203  0.19301354216506184  0.45907620588227616  1.0000
  H   H160      1.0  0.9714637724687023  0.27337651693269294  0.5073367292096957  1.0000
  N   N9        1.0  0.28483474447198365  0.7955991873157338  0.4201308022233228  1.0000
  C   C129      1.0  0.3148277478342001  0.7418809370555728  0.4467288680804078  1.0000
  C   C130      1.0  0.23699349557625293  0.8694724623123591  0.44618506143387116  1.0000
  C   C131      1.0  0.24010204327409657  0.7108149387832832  0.3916039439817087  1.0000
  C   C132      1.0  0.3472547807871713  0.859810363214784  0.395820203295445  1.0000
  H   H161      1.0  0.35191057698349404  0.6865963514940034  0.42806593008636007  1.0000
  H   H162      1.0  0.26926973969491375  0.6913851197281353  0.46522003704568426  1.0000
  H   H163      1.0  0.34874813150199646  0.8038269814385792  0.46872543035517644  1.0000
  H   H164      1.0  0.21489816988776322  0.9133329693007397  0.42717165425571757  1.0000
  H   H165      1.0  0.18872834215587186  0.8226907786184228  0.46438286298654674  1.0000
  H   H166      1.0  0.26832658924922814  0.9328653200285508  0.46873157602573734  1.0000
  H   H167      1.0  0.2733091643602954  0.6505585291095208  0.3723511145148972  1.0000
  H   H168      1.0  0.2189103737321707  0.747795808355761  0.36993240652381587  1.0000
  H   H169      1.0  0.19094750772594615  0.6632904653745726  0.40883624105325467  1.0000
  H   H170      1.0  0.3270054461958427  0.9040203732527097  0.37614891153422114  1.0000
  H   H171      1.0  0.38269400832177247  0.8052273107089682  0.3750710547830849  1.0000
  H   H172      1.0  0.3841724441228642  0.9224488183836783  0.41601840705731163  1.0000
  N   N10       1.0  0.1734264466947817  0.21784076403795538  0.21596131318407608  1.0000
  C   C133      1.0  0.2052346455974403  0.16033451614485372  0.2403729390691538  1.0000
  C   C134      1.0  0.23434772040590168  0.28750723819161905  0.19277705796414146  1.0000
  C   C135      1.0  0.12546179525778367  0.2879421961738444  0.24410616326423273  1.0000
  C   C136      1.0  0.12841283126588188  0.13584366225032696  0.18673341100730667  1.0000
  H   H173      1.0  0.24077285889608202  0.10520181161698972  0.22005505937643832  1.0000
  H   H174      1.0  0.1603464090042035  0.10801029412655083  0.25852972791740925  1.0000
  H   H175      1.0  0.2396686466635538  0.22016100857453935  0.2626625019572444  1.0000
  H   H176      1.0  0.21193956600672514  0.3358507307030614  0.17555634506174655  1.0000
  H   H177      1.0  0.27114579915339654  0.34726014122342264  0.21372958624269955  1.0000
  H   H178      1.0  0.2697797288481736  0.23694791619258737  0.1698224431367752  1.0000
  H   H179      1.0  0.08057129971368227  0.23815329121371676  0.26288589273842433  1.0000
  H   H180      1.0  0.09758655460029253  0.32829764051087196  0.22659094728213525  1.0000
  H   H181      1.0  0.15796974699855237  0.35357686851838466  0.2657625935881516  1.0000
  H   H182      1.0  0.10184516963273182  0.17642196976600744  0.16856913278663832  1.0000
  H   H183      1.0  0.0828363918683177  0.08023983137015733  0.2031307886109417  1.0000
  H   H184      1.0  0.16314280243153068  0.08321040018413584  0.1642927354939836  1.0000
  N   N11       1.0  0.5822548589947312  0.14702580210414595  0.30618379370610427  1.0000
  C   C137      1.0  0.5154524962761338  0.109645630982655  0.2847074227008992  1.0000
  C   C138      1.0  0.6498538386570498  0.15116761950569568  0.27515161615681905  1.0000
  C   C139      1.0  0.5824598616986165  0.06934527096966292  0.33326517820855095  1.0000
  C   C140      1.0  0.5809907978032731  0.25787653868834326  0.3314862012624342  1.0000
  H   H185      1.0  0.4632435955133847  0.10366194586329769  0.30696249141788634  1.0000
  H   H186      1.0  0.5150739650249294  0.02711556335567522  0.26494512204939724  1.0000
  H   H187      1.0  0.5133578348853822  0.16748359411848668  0.26443197851584976  1.0000
  H   H188      1.0  0.7016947502940072  0.18241725396795871  0.28992833133653484  1.0000
  H   H189      1.0  0.653306175932574  0.06803166274522354  0.2562847960427881  1.0000
  H   H190      1.0  0.6498876844150034  0.20588766824152316  0.2532950750132539  1.0000
  H   H191      1.0  0.631285140081733  0.09634514502753078  0.3506556378311174  1.0000
  H   H192      1.0  0.5847439048559488  0.9851970428982284  0.3152483079009869  1.0000
  H   H193      1.0  0.5312298600559657  0.06181995331674983  0.35644471075448436  1.0000
  H   H194      1.0  0.5330037007585497  0.25582740381019065  0.35672240099384744  1.0000
  H   H195      1.0  0.5750276505137473  0.3165158506193322  0.31258088175884247  1.0000
  H   H196      1.0  0.6329786933102977  0.2924734030006704  0.345928233589305  1.0000
  N   N12       1.0  0.3729581977137135  0.775459459905548  0.13583982738121492  1.0000
  C   C141      1.0  0.3872348217269277  0.8695589847759706  0.1701915788443884  1.0000
  C   C142      1.0  0.4435709916001631  0.7387520614360881  0.11753101217990647  1.0000
  C   C143      1.0  0.3428592715597407  0.8101655664818388  0.10390091927864376  1.0000
  C   C144      1.0  0.31830570649555856  0.6839415508974014  0.15176858773633484  1.0000
  H   H197      1.0  0.3354440094073379  0.9009532892362841  0.1839502217259792  1.0000
  H   H198      1.0  0.4301738965650381  0.9387689390328724  0.159518496115151  1.0000
  H   H199      1.0  0.4084684433363748  0.8454291524318123  0.1952289995715475  1.0000
  H   H200      1.0  0.48578962824205085  0.8060428333041969  0.10508402724192578  1.0000
  H   H201      1.0  0.46875753587417  0.7137379437099405  0.14080236905046917  1.0000
  H   H202      1.0  0.43490261802482255  0.6673719768545467  0.09155250508633728  1.0000
  H   H203      1.0  0.38051909877563794  0.8836116153557754  0.09318081977267667  1.0000
  H   H204      1.0  0.2868820614199663  0.8307600992253512  0.11539401987092646  1.0000
  H   H205      1.0  0.33681088396242664  0.7440075672583788  0.07615646817912491  1.0000
  H   H206      1.0  0.3389504601164681  0.6564453322439086  0.17624528188574828  1.0000
  H   H207      1.0  0.30651019916527034  0.6111256925411013  0.12690221759848797  1.0000
  H   H208      1.0  0.26401838675186085  0.7084104566397436  0.16531103334365227  1.0000
  N   N13       1.0  0.7961521627772212  0.7009004862740724  0.8023150397619094  1.0000
  C   C145      1.0  0.8595291142079731  0.7894102602408601  0.8147872627562176  1.0000
  C   C146      1.0  0.819601186106004  0.5934457810586657  0.7922212827140207  1.0000
  C   C147      1.0  0.7717263076375724  0.7218812138255508  0.7655880877630175  1.0000
  C   C148      1.0  0.7340464829177771  0.6994365536431459  0.8367755698296193  1.0000
  H   H209      1.0  0.9067762554623569  0.7956452534836558  0.7891696960970354  1.0000
  H   H210      1.0  0.880977018951584  0.7751737707619419  0.841734135383426  1.0000
  H   H211      1.0  0.8429703121664929  0.8709989480722271  0.8233729904088634  1.0000
  H   H212      1.0  0.7730086047554661  0.5246186525265273  0.7828521867622005  1.0000
  H   H213      1.0  0.8665016161288515  0.5919580985944748  0.7664236593173221  1.0000
  H   H214      1.0  0.8390993805521649  0.5752982349700737  0.8191224296857644  1.0000
  H   H215      1.0  0.7249539424778702  0.6556453447877892  0.7546334981232281  1.0000
  H   H216      1.0  0.8182337806614104  0.7269325722339808  0.7394759554033232  1.0000
  H   H217      1.0  0.7529022207636267  0.8018389385120592  0.7722139799197496  1.0000
  H   H218      1.0  0.7158410349216879  0.7799772795397573  0.8457384283349736  1.0000
  H   H219      1.0  0.7506109736990343  0.6822278707108573  0.8647202381698857  1.0000
  H   H220      1.0  0.6846984664587819  0.6348586254108071  0.8283871921945689  1.0000
  N   N14       1.0  0.04343499028915332  0.08848303485472897  0.9989220199816202  1.0000
  C   C149      1.0  0.07096419450334501  0.0533577163289074  0.03169054736632759  1.0000
  C   C150      1.0  0.10059258547776917  0.1768488976465683  0.9825491049177604  1.0000
  C   C151      1.0  0.9741193304324973  0.12975565159631586  0.01634604821337149  1.0000
  C   C152      1.0  0.027847821765162983  0.9934332116977025  0.9650762735271119  1.0000
  H   H221      1.0  0.03138326278112746  0.9817801194937914  0.04268583042767915  1.0000
  H   H222      1.0  0.07735463427510059  0.1203143099980224  0.05915910136722502  1.0000
  H   H223      1.0  0.1262375319838318  0.029842081496777695  0.020945002682005054  1.0000
  H   H224      1.0  0.0815169570774863  0.20504789925120903  0.9576993854852365  1.0000
  H   H225      1.0  0.11388785411316071  0.25001801939221835  0.00707209580841095  1.0000
  H   H226      1.0  0.1537935521653484  0.14867755675619065  0.96933209801964  1.0000
  H   H227      1.0  0.9301690613108695  0.06508682301138435  0.029335998608463143  1.0000
  H   H228      1.0  0.9506471802066514  0.15484388558451911  0.992414058066883  1.0000
  H   H229      1.0  0.9840126466520926  0.20250578971880273  0.04169406369398487  1.0000
  H   H230      1.0  0.008086477939922787  0.017632403263299068  0.9395477417538274  1.0000
  H   H231      1.0  0.9832921083348447  0.9264435521973198  0.9760832007425506  1.0000
  H   H232      1.0  0.07866679405448362  0.9590294492511617  0.9518451824773635  1.0000
  N   N15       1.0  0.5388450618921583  0.00933076790498788  0.8279817322984968  1.0000
  C   C153      1.0  0.548236345867732  0.9673612540741665  0.8642111368192964  1.0000
  C   C154      1.0  0.6099802218161567  0.021887552044347558  0.7997985570146202  1.0000
  C   C155      1.0  0.5164565556639937  0.11736185858771009  0.8419258138154362  1.0000
  C   C156      1.0  0.4805670201490857  0.9303427646103266  0.8059230037887897  1.0000
  H   H233      1.0  0.5665517230519521  0.8869978045686722  0.8548444719437622  1.0000
  H   H234      1.0  0.4946871864332598  0.9532855624533241  0.8853901550312049  1.0000
  H   H235      1.0  0.590254228964497  0.026142257220765686  0.8823868425161105  1.0000
  H   H236      1.0  0.6050019181256721  0.056010754103539284  0.7726516426103984  1.0000
  H   H237      1.0  0.6558384543015574  0.07853306061172916  0.8157099688434215  1.0000
  H   H238      1.0  0.6272918590732877  0.941288775179423  0.7876566477919216  1.0000
  H   H239      1.0  0.5598937417375751  0.17975248340554728  0.8579629989161752  1.0000
  H   H240      1.0  0.4636136014110068  0.11082678165349336  0.8637912850096541  1.0000
  H   H241      1.0  0.5070918288630502  0.15041523761447806  0.8154935822565452  1.0000
  H   H242      1.0  0.47186359939543543  0.9592752604714256  0.7783792891972432  1.0000
  H   H243      1.0  0.4260949250832482  0.9179915333354103  0.8263057269831151  1.0000
  H   H244      1.0  0.49607838345938227  0.8482994758243549  0.7948814324361386  1.0000
  N   N16       1.0  0.6809906989736589  0.24263696461153117  0.6342733286962527  1.0000
  C   C157      1.0  0.6004819005181803  0.24119909919706473  0.64712258069485  1.0000
  C   C158      1.0  0.6923892264623763  0.12828849010035626  0.6193334562317929  1.0000
  C   C159      1.0  0.7217338915995768  0.29324180420836043  0.6699274401064805  1.0000
  C   C160      1.0  0.7094758333235314  0.30784237806167525  0.6010539558316346  1.0000
  H   H245      1.0  0.5681893333589851  0.20858985255922136  0.6206368549522328  1.0000
  H   H246      1.0  0.5899186365398377  0.3252197083620807  0.6609048506533721  1.0000
  H   H247      1.0  0.5766391350111331  0.187609308313764  0.6705188839662117  1.0000
  H   H248      1.0  0.6569488267110719  0.08411445825984387  0.5951016409013263  1.0000
  H   H249      1.0  0.7513610794410663  0.12603963755395142  0.6059378340768653  1.0000
  H   H250      1.0  0.67783729750938  0.07978721958603074  0.6446634016695807  1.0000
  H   H251      1.0  0.7827183831370057  0.29942851039872664  0.6610140840300307  1.0000
  H   H252      1.0  0.7041982181744624  0.24287769167291984  0.6945231007386568  1.0000
  H   H253      1.0  0.7113977556721176  0.377390632755187  0.6836318290727377  1.0000
  H   H254      1.0  0.680023162425166  0.27198942396048764  0.5736299651228105  1.0000
  H   H255      1.0  0.7699773481633532  0.3094702858532514  0.5904829412635202  1.0000
  H   H256      1.0  0.7019771149479661  0.3945194771390348  0.611556868006641  1.0000
