data_image0
_chemical_formula_structural       FeS2FeS2FeSFeS3FeS2FeS2FeSFeS3FeS2FeS2FeSFeS3FeS2FeS2FeSFeS3FeS2FeS2FeSFeS3FeS2FeS2FeSFeS3FeS2FeS2FeSFeS3FeS2FeS2FeSFeS3C6H4C6H4C6H4C6H4C6H4C6H4C6H4C6H4C6H4C6H4C6H4C6H4C6H4C6H4C6H4C6H4FeS2FeS2FeSFeS3FeS2FeS2FeSFeS3FeS2FeS2FeSFeS3FeS2FeS2FeSFeS3FeS2FeS2FeSFeS3FeS2FeS2FeSFeS3FeS2FeS2FeSFeS3FeS2FeS2FeSFeS3C6H4C6H4C6H4C6H4C6H4C6H4C6H4C6H4C6H4C6H4C6H4C6H4C6H4C6H4C6H4C6H4NC4H12NC4H12NC4H12NC4H12NC4H12NC4H12NC4H12NC4H12NC4H12NC4H12NC4H12NC4H12NC4H12NC4H12NC4H12NC4H12NC4H12NC4H12NC4H12NC4H12NC4H12NC4H12NC4H12NC4H12NC4H12NC4H12NC4H12NC4H12NC4H12NC4H12NC4H12NC4H12
_chemical_formula_sum              "Fe64 S128 C320 H512 N32"
_cell_length_a       34.856281530084274
_cell_length_b       34.59494773241272
_cell_length_c       40.10568417439664
_cell_angle_alpha    87.52017676447745
_cell_angle_beta     83.72919516279055
_cell_angle_gamma    90.0492697640777

_space_group_name_H-M_alt    "P 1"
_space_group_IT_number       1

loop_
  _space_group_symop_operation_xyz
  'x, y, z'

loop_
  _atom_site_type_symbol
  _atom_site_label
  _atom_site_symmetry_multiplicity
  _atom_site_fract_x
  _atom_site_fract_y
  _atom_site_fract_z
  _atom_site_occupancy
  Fe  Fe1       1.0  0.37204651966158203  0.4768722333814817  0.552236656927451  1.0000
  S   S1        1.0  0.397581019902107  0.4798595304325045  0.49864758594074626  1.0000
  S   S2        1.0  0.3521025370410635  0.5282089291338269  0.5819057187766041  1.0000
  Fe  Fe2       1.0  0.3304923960594742  0.39935743986496086  0.096946976189056  1.0000
  S   S3        1.0  0.35626177225101974  0.3435942948300089  0.079712432038771  1.0000
  S   S4        1.0  0.2934784234328561  0.40411611961235633  0.1468055858562219  1.0000
  Fe  Fe3       1.0  0.44447997025448094  0.44227439927761236  0.5155936142059229  1.0000
  S   S5        1.0  0.4653799778285626  0.34920054211364554  0.0754306011952676  1.0000
  Fe  Fe4       1.0  0.3652494268213327  0.4245403063864058  0.49448838914069015  1.0000
  S   S6        1.0  0.33441458058439333  0.4229851215327724  0.4480516086829078  1.0000
  S   S7        1.0  0.38606739382508587  0.4329738727856399  0.0852521981104719  1.0000
  S   S8        1.0  0.30822292378016475  0.41468870776439204  0.04723528865600999  1.0000
  Fe  Fe5       1.0  0.3523105616424516  0.73699869056975  0.517745940060495  1.0000
  S   S9        1.0  0.37507222475671514  0.7897616723829833  0.4876933613814955  1.0000
  S   S10       1.0  0.35474115094818726  0.6813807623208608  0.49071613792094393  1.0000
  Fe  Fe6       1.0  0.36894823276071614  0.7790431894800978  0.0632261946739468  1.0000
  S   S11       1.0  0.3498935576257732  0.8379052442890267  0.5555938087901483  1.0000
  S   S12       1.0  0.36680177408080794  0.818761166894316  0.10638060369811353  1.0000
  Fe  Fe7       1.0  0.32228967496071753  0.8189828665692904  0.5110271398517301  1.0000
  S   S13       1.0  0.2933888385744106  0.8651722922269623  0.48142334587665975  1.0000
  Fe  Fe8       1.0  0.4012484568539538  0.8047809849204819  0.533954239923848  1.0000
  S   S14       1.0  0.45944892048138025  0.8342230258729967  0.5276268242972875  1.0000
  S   S15       1.0  0.2966524757476944  0.7648551516465346  0.5372086775114296  1.0000
  S   S16       1.0  0.3845988654748748  0.7167557051503609  0.07151848163569838  1.0000
  Fe  Fe9       1.0  0.6761930706360844  0.3931820887681585  0.024098414949167646  1.0000
  S   S17       1.0  0.7151474965885308  0.39960719447258986  0.5096277213327217  1.0000
  S   S18       1.0  0.6241421713703832  0.4047816249846404  0.9964496576230163  1.0000
  Fe  Fe10      1.0  0.7139847097933917  0.35100999161131885  0.07957146118249794  1.0000
  S   S19       1.0  0.7673506399410734  0.38751294298966915  0.07053327402538957  1.0000
  S   S20       1.0  0.7075475123899131  0.3071565767750489  0.12302808091261176  1.0000
  Fe  Fe11      1.0  0.7276185998569624  0.43746377635092004  0.06566666764669156  1.0000
  S   S21       1.0  0.7346003387381723  0.49126901782580934  0.09424014374056908  1.0000
  Fe  Fe12      1.0  0.7622951659518153  0.37942459972559367  0.01614083357460161  1.0000
  S   S22       1.0  0.757380107709017  0.30006406513940953  0.48795421864184135  1.0000
  S   S23       1.0  0.6741040723894797  0.4018613516321539  0.07932018432695272  1.0000
  S   S24       1.0  0.7115371529572058  0.33875770033022157  0.02524895485259071  1.0000
  Fe  Fe13      1.0  0.7334378723439293  0.7003188997242692  0.0266637027476595  1.0000
  S   S25       1.0  0.69768024580084  0.714251857022319  0.07452935583417888  1.0000
  S   S26       1.0  0.7353699062490466  0.6433428833761459  0.0017637761014845932  1.0000
  Fe  Fe14      1.0  0.7378668924978277  0.7537406500942944  0.5177822664976041  1.0000
  S   S27       1.0  0.732531207382573  0.8028162289472488  0.06044273397424586  1.0000
  S   S28       1.0  0.790578006074754  0.7684723403881417  0.4817122433721554  1.0000
  Fe  Fe15      1.0  0.7500190808703746  0.7475334831664874  0.08530998697247051  1.0000
  S   S29       1.0  0.7646191602965944  0.7457366940915329  0.13873110754165074  1.0000
  Fe  Fe16      1.0  0.6828338799950778  0.7685250696270263  0.04649976897641936  1.0000
  S   S30       1.0  0.6253598414446143  0.7979298375891977  0.054472245114986856  1.0000
  S   S31       1.0  0.7874583780479769  0.7286440709996262  0.039840896113768086  1.0000
  S   S32       1.0  0.7052426658700233  0.6985547396348993  0.5138345508039575  1.0000
  Fe  Fe17      1.0  0.865464679406886  0.2696399314265863  0.23876126387913216  1.0000
  S   S33       1.0  0.8150676035752922  0.2695091538520978  0.2786266463012435  1.0000
  S   S34       1.0  0.865738634334234  0.290084588973302  0.18478874654787672  1.0000
  Fe  Fe18      1.0  0.9197228467788504  0.23324788992511294  0.285735980385907  1.0000
  S   S35       1.0  0.8739322177933778  0.22945308572461023  0.3295684318300722  1.0000
  S   S36       1.0  0.977384961802268  0.20669739561233214  0.292072524415549  1.0000
  Fe  Fe19      1.0  0.8353759408246133  0.20986540234789589  0.29230352704506113  1.0000
  S   S37       1.0  0.7956350788658103  0.15834159344409465  0.29982239435129326  1.0000
  Fe  Fe20      1.0  0.8583274511265889  0.28917406200767093  0.3119435132020822  1.0000
  S   S38       1.0  0.8503273764418551  0.3388164815953083  0.34621902570243746  1.0000
  S   S39       1.0  0.8825468646635873  0.20853646332122483  0.24984132761932398  1.0000
  S   S40       1.0  0.9072607022365731  0.2946226143036525  0.27073750824761406  1.0000
  Fe  Fe21      1.0  0.8420941107600954  0.9013409613657456  0.24210951939644965  1.0000
  S   S41       1.0  0.8137570825239084  0.9386090521720906  0.28184429732930943  1.0000
  S   S42       1.0  0.8254881702406559  0.9027679971011537  0.18926885220871686  1.0000
  Fe  Fe22      1.0  0.9001811859047751  0.8689776097312952  0.28666524746277755  1.0000
  S   S43       1.0  0.8763524506670438  0.9020383700609035  0.33107043550196324  1.0000
  S   S44       1.0  0.9530658900576183  0.8314523238999467  0.2834214896498401  1.0000
  Fe  Fe23      1.0  0.8183285986470293  0.8863775422592481  0.31639169839127435  1.0000
  S   S45       1.0  0.7661845679597722  0.8750010441537189  0.35374798056640344  1.0000
  Fe  Fe24      1.0  0.8735933880772399  0.9517202377685865  0.29370110629513135  1.0000
  S   S46       1.0  0.8977921871796579  0.00819344476264372  0.30773694652063266  1.0000
  S   S47       1.0  0.8421552720696857  0.8477277615969192  0.27563956802960776  1.0000
  S   S48       1.0  0.9018929717946443  0.9199447400143416  0.25031454274626047  1.0000
  Fe  Fe25      1.0  0.1557507812943576  0.9119263780084313  0.29581034467207684  1.0000
  S   S49       1.0  0.18107607303083947  0.9408288366462423  0.24731546011299754  1.0000
  S   S50       1.0  0.09645026107040995  0.9281488005274242  0.31887141278095105  1.0000
  Fe  Fe26      1.0  0.2302868069418553  0.8694907976350094  0.30681276535266794  1.0000
  S   S51       1.0  0.2621034477503391  0.8956827781000036  0.2597378447392168  1.0000
  S   S52       1.0  0.25660659440553496  0.8216667035147186  0.336659589219303  1.0000
  Fe  Fe27      1.0  0.23252000101479017  0.9507605848079502  0.27497782296915957  1.0000
  S   S53       1.0  0.2636213383412696  0.007903583328272346  0.2693418758169637  1.0000
  Fe  Fe28      1.0  0.20806465246662612  0.8831600973031297  0.2363597194552825  1.0000
  S   S54       1.0  0.20571955951991572  0.8517067722398575  0.1884805312192284  1.0000
  S   S55       1.0  0.20545976078170386  0.9257254703780771  0.3245228049243358  1.0000
  S   S56       1.0  0.17790185741957998  0.8531783802017578  0.28269143943431985  1.0000
  Fe  Fe29      1.0  0.18976160502617864  0.19993526095222156  0.33327528725000727  1.0000
  S   S57       1.0  0.1644265016050041  0.24376435261111098  0.36878822894370766  1.0000
  S   S58       1.0  0.16355234953322606  0.14026791977332762  0.3387275206688731  1.0000
  Fe  Fe30      1.0  0.2461845262401716  0.25854238710843674  0.29587673997236674  1.0000
  S   S59       1.0  0.22541698004850075  0.3072394249266664  0.32809417376619365  1.0000
  S   S60       1.0  0.29461908736259307  0.26417555613789173  0.2541013448100353  1.0000
  Fe  Fe31      1.0  0.22560935608518445  0.262859035223339  0.3708290741331766  1.0000
  S   S61       1.0  0.25092466414138603  0.2676265140382991  0.419874588390026  1.0000
  Fe  Fe32      1.0  0.16645880003745192  0.28322464121457697  0.32286410651678593  1.0000
  S   S62       1.0  0.1159536433391855  0.3189580369888369  0.3097856209837843  1.0000
  S   S63       1.0  0.25097125585265456  0.2156497906174419  0.33879568724357995  1.0000
  S   S64       1.0  0.1874190712243119  0.2379870491663055  0.2870225836703837  1.0000
  C   C1        1.0  0.23697507969457884  0.04488279720056987  0.28957439029483156  1.0000
  C   C2        1.0  0.24815684367050622  0.08367086510072119  0.2831919742911752  1.0000
  C   C3        1.0  0.2261481891095877  0.11334559143807149  0.29860655773793676  1.0000
  C   C4        1.0  0.19317639482507676  0.10411293852640763  0.32064576785954124  1.0000
  C   C5        1.0  0.18263109585982396  0.06534474655011697  0.3276115934346255  1.0000
  C   C6        1.0  0.2042507804891444  0.03584402005988685  0.31188736751306567  1.0000
  H   H1        1.0  0.2735301072346892  0.09078758611782645  0.2659820117981706  1.0000
  H   H2        1.0  0.23446401956861307  0.14327835943208986  0.2931555332305003  1.0000
  H   H3        1.0  0.1577653326496793  0.05809695530537051  0.3452990428859259  1.0000
  H   H4        1.0  0.19560613404191035  0.006128965287856003  0.3171314539325101  1.0000
  C   C7        1.0  0.9932455405781017  0.858176036100852  0.29281681830577233  1.0000
  C   C8        1.0  0.9879566791490384  0.8936862914156062  0.30800789718969  1.0000
  C   C9        1.0  0.0198267826539078  0.9146662719871529  0.31611467756400286  1.0000
  C   C10       1.0  0.057317981007191716  0.9009001216372126  0.3081624808933436  1.0000
  C   C11       1.0  0.06281841949079162  0.8656512559727956  0.29248321356228274  1.0000
  C   C12       1.0  0.030753633238262967  0.8440943031062853  0.2851560519217566  1.0000
  H   H5        1.0  0.9592563911839967  0.9049231947505298  0.3138674850967632  1.0000
  H   H6        1.0  0.015273909448198841  0.9417138948531452  0.32845558502920313  1.0000
  H   H7        1.0  0.09164221873670063  0.8548484742799574  0.28617488934661495  1.0000
  H   H8        1.0  0.035034616192532564  0.8167183472458561  0.27327982650385246  1.0000
  C   C13       1.0  0.8233902178315744  0.11629589222408056  0.3027866473727063  1.0000
  C   C14       1.0  0.8066326534699587  0.07982251009602617  0.3004188236152649  1.0000
  C   C15       1.0  0.8293406058087297  0.04633309681788811  0.30140285185408977  1.0000
  C   C16       1.0  0.8686347619459808  0.04931066928993921  0.3053134707117352  1.0000
  C   C17       1.0  0.8851301160919838  0.08574008456411542  0.3080986763902696  1.0000
  C   C18       1.0  0.8626694493965298  0.11917020198655087  0.3065184924020086  1.0000
  H   H9        1.0  0.7762600741026748  0.07751619119257762  0.2974160218604622  1.0000
  H   H10       1.0  0.8164420360888012  0.018354737822659173  0.29918278839566287  1.0000
  H   H11       1.0  0.9154934124595352  0.08821908545193002  0.3111670696086387  1.0000
  H   H12       1.0  0.875889398369965  0.1471343234955316  0.30838892019892444  1.0000
  C   C19       1.0  0.015902809557915454  0.2384144299708425  0.29545371848835655  1.0000
  C   C20       1.0  0.04997932899501345  0.22344798469753982  0.3061436821003753  1.0000
  C   C21       1.0  0.08061560818390763  0.2481910540149412  0.31067649831612004  1.0000
  C   C22       1.0  0.0774124623822713  0.2880508304150872  0.3044017968648343  1.0000
  C   C23       1.0  0.043503891660384035  0.30310400941309673  0.293334786417186  1.0000
  C   C24       1.0  0.012745545414139858  0.2782756445061477  0.2888475025109133  1.0000
  H   H13       1.0  0.052566286277881735  0.19266185290032534  0.3114055627102353  1.0000
  H   H14       1.0  0.10654379953554319  0.23623877243905994  0.3193666213283235  1.0000
  H   H15       1.0  0.04105457111519306  0.33391176394846417  0.2881907297861026  1.0000
  H   H16       1.0  0.9867659717295261  0.28997084330351725  0.2801849892478667  1.0000
  C   C25       1.0  0.7832572168420219  0.7976203355201071  0.4460288419006034  1.0000
  C   C26       1.0  0.7468318840468376  0.8125716418225228  0.44158203191231304  1.0000
  C   C27       1.0  0.7417906564059161  0.8360713720139469  0.4129777193090464  1.0000
  C   C28       1.0  0.7730430903078896  0.8443977255934154  0.38865159982895225  1.0000
  C   C29       1.0  0.8094445332651946  0.8293303230246156  0.3930162882428562  1.0000
  C   C30       1.0  0.8145495125845512  0.8060923504131675  0.4217493159451165  1.0000
  H   H17       1.0  0.7225654112529556  0.8060411211576223  0.46015289315248287  1.0000
  H   H18       1.0  0.7135784109149301  0.8476714536050658  0.4096459904839395  1.0000
  H   H19       1.0  0.8336442747305556  0.8354909190686381  0.3742832269651772  1.0000
  H   H20       1.0  0.8427556634511486  0.7944983345003371  0.4250945458802354  1.0000
  C   C31       1.0  0.7822544717982243  0.7892227073187005  0.1523322355254259  1.0000
  C   C32       1.0  0.7942965159157227  0.8196279138379424  0.12947372651503877  1.0000
  C   C33       1.0  0.8070989084678991  0.8545897560684091  0.14106719125940248  1.0000
  C   C34       1.0  0.8080439432106663  0.8592170051580079  0.1755025905170842  1.0000
  C   C35       1.0  0.7958328438648579  0.8288310991039163  0.19832077861503292  1.0000
  C   C36       1.0  0.783282944560738  0.7937974951722886  0.18674783893520455  1.0000
  H   H21       1.0  0.7942068683717465  0.8161426221930612  0.10283248809219324  1.0000
  H   H22       1.0  0.8166183228487266  0.8779912006216444  0.123283428453579  1.0000
  H   H23       1.0  0.7953761212474716  0.8324973049709533  0.22491852968879383  1.0000
  H   H24       1.0  0.7737974979161351  0.7704101944438799  0.20454795069274195  1.0000
  C   C37       1.0  0.7824860019423296  0.3110679195481817  0.44832198833482134  1.0000
  C   C38       1.0  0.7975050617091728  0.3482031306574051  0.44027876349726386  1.0000
  C   C39       1.0  0.8178399226327466  0.3566156202582994  0.4086490261044499  1.0000
  C   C40       1.0  0.8230477026436431  0.3280160415999857  0.38492734189651284  1.0000
  C   C41       1.0  0.8077045399614837  0.29095376912296567  0.39282205140761023  1.0000
  C   C42       1.0  0.7874655800844412  0.28248944003093257  0.42453178228138866  1.0000
  H   H25       1.0  0.7935769435319531  0.37048789706464824  0.4584228600306159  1.0000
  H   H26       1.0  0.8296179511846157  0.3853417705919074  0.4026104910248962  1.0000
  H   H27       1.0  0.8114163500398551  0.26880468607808317  0.3745584972315934  1.0000
  H   H28       1.0  0.7757972418305553  0.25375167178288116  0.43065916446404934  1.0000
  C   C43       1.0  0.7514210315275419  0.29880901354584427  0.13964247612079678  1.0000
  C   C44       1.0  0.7864099772337096  0.30432933683675445  0.11941435070347028  1.0000
  C   C45       1.0  0.821369804917857  0.30113382513940434  0.13351075917736846  1.0000
  C   C46       1.0  0.8215124127341284  0.29218392250169184  0.1678477741916047  1.0000
  C   C47       1.0  0.7865567498867223  0.28589518624871707  0.18803251722886483  1.0000
  C   C48       1.0  0.7515160406775819  0.28901807872826946  0.173892030976847  1.0000
  H   H29       1.0  0.7865814457722696  0.3109261157331436  0.09280530033300437  1.0000
  H   H30       1.0  0.8483716376936702  0.30583749224821305  0.1177554156088802  1.0000
  H   H31       1.0  0.7864240071286834  0.2794286994067191  0.21458596869858887  1.0000
  H   H32       1.0  0.7244263323019503  0.2850794247534843  0.18965133413212523  1.0000
  C   C49       1.0  0.7394591684136065  0.5341916633215382  0.06903937191366614  1.0000
  C   C50       1.0  0.7309792182859034  0.5697915147100453  0.0834607329605018  1.0000
  C   C51       1.0  0.7313540769721114  0.6039218172772268  0.06312314626173526  1.0000
  C   C52       1.0  0.7401241639431455  0.6024103354795741  0.028326649999343978  1.0000
  C   C53       1.0  0.7499260516341254  0.56701208876743  0.014105480147129866  1.0000
  C   C54       1.0  0.749791760995097  0.533008847491756  0.03444641823555372  1.0000
  H   H33       1.0  0.72320437730669  0.5708945459016666  0.11026380452178514  1.0000
  H   H34       1.0  0.7238838263929348  0.6311632999039622  0.07427223985758509  1.0000
  H   H35       1.0  0.7572144768677324  0.5658353147368104  0.9872337616450519  1.0000
  H   H36       1.0  0.75771140920674  0.5059310784510938  0.023290643418664603  1.0000
  C   C55       1.0  0.28430580960716423  0.8526974584649503  0.44104105601152493  1.0000
  C   C56       1.0  0.2873709246646359  0.8144323738437141  0.4312346618199671  1.0000
  C   C57       1.0  0.27936996343509546  0.8051636179679886  0.39892097187446435  1.0000
  C   C58       1.0  0.26870354827922294  0.8341556307295097  0.3762651725614686  1.0000
  C   C59       1.0  0.2666520271832037  0.8725283992250725  0.3858388682790535  1.0000
  C   C60       1.0  0.2741072498801694  0.8817308526473908  0.41825640318352164  1.0000
  H   H37       1.0  0.2954002435438089  0.7918704143210412  0.44867514401180975  1.0000
  H   H38       1.0  0.2812039397769919  0.7754114947104299  0.39161026637535207  1.0000
  H   H39       1.0  0.25937613922391856  0.8951903821261807  0.3683020966982544  1.0000
  H   H40       1.0  0.2721335752594409  0.9114556737758083  0.4256337465217178  1.0000
  C   C61       1.0  0.3213180689338749  0.8295755448495754  0.12715051476987485  1.0000
  C   C62       1.0  0.287813068685278  0.8109641773691318  0.11977949651426968  1.0000
  C   C63       1.0  0.2520947502175411  0.8191303893816814  0.13782482320876568  1.0000
  C   C64       1.0  0.24983876995707532  0.8456348852950956  0.16345425184025245  1.0000
  C   C65       1.0  0.2832075876690915  0.8648766756668138  0.1702074045534622  1.0000
  C   C66       1.0  0.31887445862371266  0.8566851326781637  0.15224329850513324  1.0000
  H   H41       1.0  0.289469762584185  0.7899924971696147  0.10048496495110047  1.0000
  H   H42       1.0  0.22631090032667384  0.804290174454035  0.13238295610520717  1.0000
  H   H43       1.0  0.28164024714585933  0.886090493522335  0.18925391534028127  1.0000
  H   H44       1.0  0.3446740085971464  0.8714634569971887  0.15775801715845125  1.0000
  C   C67       1.0  0.5233661476423297  0.7249840906950034  0.030652864484438824  1.0000
  C   C68       1.0  0.4900712019045579  0.7614415156020731  0.5235364959320628  1.0000
  C   C69       1.0  0.5207056142354054  0.7351494358908884  0.5212444814270408  1.0000
  C   C70       1.0  0.586415592216143  0.7694213471851513  0.0454442242374425  1.0000
  C   C71       1.0  0.5489364138909705  0.7842588253349817  0.050066411301928286  1.0000
  C   C72       1.0  0.5174408037237028  0.7620479927102494  0.04275712516395827  1.0000
  H   H45       1.0  0.4606850387159207  0.7508690920059053  0.5265174877395936  1.0000
  H   H46       1.0  0.5147440512592611  0.704398352162341  0.5227551648004725  1.0000
  H   H47       1.0  0.5441203590586137  0.8129164250666113  0.05943004188465794  1.0000
  H   H48       1.0  0.48857160617496026  0.7735676985575016  0.04669595366418153  1.0000
  C   C73       1.0  0.2715987084316491  0.31170305590966785  0.42898847819821223  1.0000
  C   C74       1.0  0.2952410569014686  0.3124211270574522  0.455088858049487  1.0000
  C   C75       1.0  0.31396578589375645  0.3467519237347187  0.46171453291950726  1.0000
  C   C76       1.0  0.30897860996611914  0.3804702864248879  0.44224065671205903  1.0000
  C   C77       1.0  0.28469324850378097  0.3799622480394465  0.41659554147093464  1.0000
  C   C78       1.0  0.26604341575088397  0.3455980015713863  0.4099250313591652  1.0000
  H   H49       1.0  0.2994328401251997  0.28623602941998283  0.4699782497742512  1.0000
  H   H50       1.0  0.33259658663159175  0.34701993467497055  0.48158745493148775  1.0000
  H   H51       1.0  0.28055991160749044  0.406159870363305  0.401704954829934  1.0000
  H   H52       1.0  0.24737586738693884  0.3453688312716094  0.390121693773515  1.0000
  C   C79       1.0  0.2962926476233644  0.3664115119709432  0.1775608410931719  1.0000
  C   C80       1.0  0.27517246682212027  0.3689815808959341  0.20925381267446638  1.0000
  C   C81       1.0  0.2746072858272288  0.3379360406655361  0.2332308872930301  1.0000
  C   C82       1.0  0.2955789314960692  0.3043781390299638  0.2256212013476617  1.0000
  C   C83       1.0  0.31789280266902703  0.3025076831339757  0.1945570871067622  1.0000
  C   C84       1.0  0.3181620899593925  0.33332041157243264  0.17062763082985238  1.0000
  H   H53       1.0  0.2590411194418211  0.39497729644928414  0.2150879912331363  1.0000
  H   H54       1.0  0.25800500345174704  0.3399704543451951  0.2574660174345758  1.0000
  H   H55       1.0  0.3346048304243837  0.2768440096577038  0.1886897335031509  1.0000
  H   H56       1.0  0.3352235695587849  0.3311872973162517  0.14680659780777505  1.0000
  C   C85       1.0  0.5091509466923035  0.36686482757604505  0.0543518537119572  1.0000
  C   C86       1.0  0.5299112877164058  0.41957761190357334  0.5504206510965785  1.0000
  C   C87       1.0  0.5793606253089708  0.3646452013164887  0.04699734702850419  1.0000
  C   C88       1.0  0.5800894600647867  0.3904264309526847  0.019143644314541852  1.0000
  C   C89       1.0  0.5453030548512723  0.40474062864882077  0.009081883730076346  1.0000
  C   C90       1.0  0.5098585872775562  0.39337399697095476  0.02693564744320565  1.0000
  H   H57       1.0  0.4997599542352099  0.4147674091599321  0.5589897165316795  1.0000
  H   H58       1.0  0.5495177558653935  0.39105929674844825  0.5942274513460797  1.0000
  H   H59       1.0  0.5457396251401841  0.4245551884531276  0.9874306346366973  1.0000
  H   H60       1.0  0.4831308482672951  0.40459255945073364  0.019157428088416806  1.0000
  C   C91       1.0  0.3483235209561109  0.5707997994768449  0.557069164150173  1.0000
  C   C92       1.0  0.34891113688059067  0.6067795996223229  0.5717447818819646  1.0000
  C   C93       1.0  0.3493968126063424  0.6410917021955392  0.5516666555038152  1.0000
  C   C94       1.0  0.3493967672046593  0.6393889076556011  0.5168811464982414  1.0000
  C   C95       1.0  0.34767777690315027  0.6034256856705449  0.5023849894298992  1.0000
  C   C96       1.0  0.34693768953044063  0.569194094442481  0.5224656465950105  1.0000
  H   H61       1.0  0.3497627723488518  0.6081909979161014  0.5985506027486086  1.0000
  H   H62       1.0  0.3504249119605663  0.6687800013091378  0.5630440249925808  1.0000
  H   H63       1.0  0.28417455293995747  0.5761227514495296  0.07100150390102886  1.0000
  H   H64       1.0  0.315089295271477  0.5139925314922024  0.05417985389444312  1.0000
  Fe  Fe33      1.0  0.36599302548066076  0.44384480949091637  0.03430660487450088  1.0000
  S   S65       1.0  0.3950248186516309  0.39143868012818583  0.012135385312915137  1.0000
  S   S66       1.0  0.3790786868711869  0.49894494446848625  0.003130839269688046  1.0000
  Fe  Fe34      1.0  0.38766322421254856  0.39112576571945085  0.5603102552146143  1.0000
  S   S67       1.0  0.41459223052082284  0.38666185745526843  0.5069146446094535  1.0000
  S   S68       1.0  0.3878059884574354  0.34279138063202985  0.5997610884879359  1.0000
  Fe  Fe35      1.0  0.41012859028519105  0.37797138615291204  0.06407187194284636  1.0000
  S   S69       1.0  0.5056562694671056  0.4586616971137583  0.49554205230357024  1.0000
  Fe  Fe36      1.0  0.33912740697693167  0.3611971232520643  0.029149790565888622  1.0000
  S   S70       1.0  0.3175692880633739  0.31210611707762365  0.0008223029773155588  1.0000
  S   S71       1.0  0.42165735421320893  0.44384907989542993  0.5698405915817838  1.0000
  S   S72       1.0  0.3356467273810325  0.42440647159419165  0.5473046901464648  1.0000
  Fe  Fe37      1.0  0.341322131463479  0.7051174110921321  0.03575685250625327  1.0000
  S   S73       1.0  0.38457702822099327  0.7099781860161213  0.9902225464939189  1.0000
  S   S74       1.0  0.2998040786967184  0.6549455244849347  0.04677267444852373  1.0000
  Fe  Fe38      1.0  0.3293226472408222  0.7810625561941432  0.5800451902277178  1.0000
  S   S75       1.0  0.41455086768701765  0.7899681020322603  0.019603462967543672  1.0000
  S   S76       1.0  0.30120521403813855  0.771526042825207  0.6332042870328471  1.0000
  Fe  Fe39      1.0  0.3682943944961587  0.7726575367008282  0.9882443402504396  1.0000
  S   S77       1.0  0.3642674119637239  0.8004447263172232  0.9367390506501148  1.0000
  Fe  Fe40      1.0  0.4266267256632357  0.7265915636155029  0.025535017364423318  1.0000
  S   S78       1.0  0.4843564919825619  0.6965971719694398  0.02137188808565238  1.0000
  S   S79       1.0  0.32148301796439016  0.7668175395468809  0.03136759001403755  1.0000
  S   S80       1.0  0.38343642117768456  0.7491087395222631  0.5623538963643867  1.0000
  Fe  Fe41      1.0  0.6940791775610107  0.3945677593459289  0.5642629113858876  1.0000
  S   S81       1.0  0.7269907328657016  0.43288796183523437  0.010203578305322702  1.0000
  S   S82       1.0  0.6317051038478451  0.39545777525442405  0.585684860390051  1.0000
  Fe  Fe42      1.0  0.7751347149960838  0.3855694801298156  0.5847949760924227  1.0000
  S   S83       1.0  0.8035817376964989  0.38950944982516844  0.5316327678194949  1.0000
  S   S84       1.0  0.8049833462007175  0.385243056421574  0.6316250758894152  1.0000
  Fe  Fe43      1.0  0.7615400695681415  0.4376026232236614  0.5249009699287597  1.0000
  S   S85       1.0  0.7732682476961564  0.493468412661019  0.4951572140995831  1.0000
  Fe  Fe44      1.0  0.754629644825032  0.3510152868127384  0.5211029876862908  1.0000
  S   S86       1.0  0.8181256867445919  0.3681390207114194  0.9846614407143316  1.0000
  S   S87       1.0  0.7369420791268767  0.4369134226268678  0.5787984281538476  1.0000
  S   S88       1.0  0.7299072911491135  0.3427372819884208  0.5750243003479975  1.0000
  Fe  Fe45      1.0  0.7142786166962666  0.6870644455175562  0.5677195388351777  1.0000
  S   S89       1.0  0.6602472712826778  0.7165008581905815  0.5880345464035409  1.0000
  S   S90       1.0  0.732619855217061  0.6306198089291496  0.591018097476733  1.0000
  Fe  Fe46      1.0  0.7650269144915588  0.7812979411012353  0.013777467546172373  1.0000
  S   S91       1.0  0.6849242964952686  0.78884548781068  0.5332406425219511  1.0000
  S   S92       1.0  0.8040095755905553  0.8233805309128129  0.9818735770429752  1.0000
  Fe  Fe47      1.0  0.6963073132927268  0.7704769402094075  0.585863151948271  1.0000
  S   S93       1.0  0.688522894059856  0.8092002757687744  0.6300488613650412  1.0000
  Fe  Fe48      1.0  0.6533031113012671  0.7318338552556672  0.5341607819126433  1.0000
  S   S94       1.0  0.5962950491604783  0.7145285248706639  0.5174678691479717  1.0000
  S   S95       1.0  0.7511167444972986  0.7394368359796543  0.5703362987675281  1.0000
  S   S96       1.0  0.7134908291956522  0.7518745663788308  0.9973116489897649  1.0000
  Fe  Fe49      1.0  0.8794735196716257  0.2445070162517022  0.7499401105315942  1.0000
  S   S97       1.0  0.8427136967560815  0.22356159336581352  0.796279677650643  1.0000
  S   S98       1.0  0.8650208076162323  0.2323872021706082  0.6979603507087343  1.0000
  Fe  Fe50      1.0  0.9389633067974367  0.2799948518549068  0.7891620273457156  1.0000
  S   S99       1.0  0.9072060191101878  0.26279340730291023  0.8395839192595412  1.0000
  S   S100      1.0  0.9940496306284593  0.31360217940565877  0.7756516452614798  1.0000
  Fe  Fe51      1.0  0.8979913136260628  0.20625632065376592  0.8160019831836546  1.0000
  S   S101      1.0  0.8956712705380219  0.149274669635375  0.8453452069655878  1.0000
  Fe  Fe52      1.0  0.8541897495421479  0.28148386896123456  0.8160533292670831  1.0000
  S   S102      1.0  0.8009896828757072  0.3095186569465417  0.8406078868121181  1.0000
  S   S103      1.0  0.9342900358770423  0.22177848766510921  0.7675279634594325  1.0000
  S   S104      1.0  0.8865927633563448  0.3041740700883883  0.7679800174657614  1.0000
  Fe  Fe53      1.0  0.8426229092428026  0.8817038388656496  0.7361496920815728  1.0000
  S   S105      1.0  0.796355671461223  0.9235782811039692  0.7533888880762278  1.0000
  S   S106      1.0  0.845320524253974  0.8506981953337713  0.6877386435079793  1.0000
  Fe  Fe54      1.0  0.888538292993268  0.8949868610561292  0.7954300491974269  1.0000
  S   S107      1.0  0.8460321562604888  0.9380262314288593  0.8174051846445832  1.0000
  S   S108      1.0  0.9378123834882558  0.8822809879479012  0.8263080287636544  1.0000
  Fe  Fe55      1.0  0.801227960989016  0.8961904105948594  0.804683746449535  1.0000
  S   S109      1.0  0.7510486560426748  0.875617985644562  0.8413071581242813  1.0000
  Fe  Fe56      1.0  0.8455860499463461  0.9612164677035315  0.7644360933027681  1.0000
  S   S110      1.0  0.8530636664238446  0.023555308771337824  0.7464367653704977  1.0000
  S   S111      1.0  0.8437581159013603  0.8511559337621035  0.7865226227263269  1.0000
  S   S112      1.0  0.8917862151787401  0.9214488828058396  0.7432877372352411  1.0000
  Fe  Fe57      1.0  0.15578322910766934  0.902629817267161  0.7805446097889902  1.0000
  S   S113      1.0  0.19511718405935735  0.9521879352228497  0.7620867166997176  1.0000
  S   S114      1.0  0.10642845167962293  0.8915294735823313  0.7500433968490064  1.0000
  Fe  Fe58      1.0  0.2042829425178783  0.8801033738527124  0.8372589286405938  1.0000
  S   S115      1.0  0.24788942051397134  0.9271520621791787  0.8225290147496882  1.0000
  S   S116      1.0  0.20383914327443603  0.8458269904563266  0.886470044926646  1.0000
  Fe  Fe59      1.0  0.19636340308473285  0.964315790265878  0.8162737256264624  1.0000
  S   S117      1.0  0.18603632396437877  0.021147805344806647  0.8407376154307652  1.0000
  Fe  Fe60      1.0  0.24273949985400609  0.9101672785255408  0.7697703436577488  1.0000
  S   S118      1.0  0.2936261953418625  0.9110803613181466  0.7299500335581771  1.0000
  S   S119      1.0  0.15277882567528747  0.9184219245580831  0.8342119940666052  1.0000
  S   S120      1.0  0.20335261815817696  0.8594524580451265  0.7848156747035787  1.0000
  Fe  Fe61      1.0  0.26394602147130014  0.22010366122142824  0.7900472605606351  1.0000
  S   S121      1.0  0.246633792001167  0.24362447352049352  0.8407603818667373  1.0000
  S   S122      1.0  0.29032529389954403  0.16199884103655393  0.7789586379133204  1.0000
  Fe  Fe62      1.0  0.2412288640555033  0.29279201446350905  0.7521733548243473  1.0000
  S   S123      1.0  0.22078242903317258  0.3226117936724068  0.7993479411620439  1.0000
  S   S124      1.0  0.23607273665746  0.32046510963309865  0.700699578608277  1.0000
  Fe  Fe63      1.0  0.27437616118894664  0.2989296860388721  0.818884488379565  1.0000
  S   S125      1.0  0.30920974929664713  0.3409031002147709  0.8450359101969421  1.0000
  Fe  Fe64      1.0  0.19443127305403057  0.2653864757137404  0.8176483720772534  1.0000
  S   S126      1.0  0.13718289757456473  0.25805327877684037  0.8491468031647745  1.0000
  S   S127      1.0  0.29701172481236865  0.27341707801389  0.7701575372746176  1.0000
  S   S128      1.0  0.2094352005318421  0.23746806313320354  0.7686201332943898  1.0000
  C   C97       1.0  0.21485996657791454  0.05998962848689282  0.8227726726303262  1.0000
  C   C98       1.0  0.20543452177303564  0.09773071866343486  0.8319414768147095  1.0000
  C   C99       1.0  0.22825418594495395  0.1291985750905213  0.8182501733281294  1.0000
  C   C100      1.0  0.2610353317570879  0.12293397384821379  0.7958132818856393  1.0000
  C   C101      1.0  0.27063763679532654  0.08514256009498862  0.7867830872481514  1.0000
  C   C102      1.0  0.2474140088513976  0.053693765553251005  0.8000524004475942  1.0000
  H   H65       1.0  0.18021934178857582  0.10272681089427649  0.8494381185475024  1.0000
  H   H66       1.0  0.22056474184510833  0.15826252321654444  0.8252406170634744  1.0000
  H   H67       1.0  0.29598208653105945  0.08016496363101296  0.7694468416650536  1.0000
  H   H68       1.0  0.2548693606938711  0.02461800350386789  0.7928931763400835  1.0000
  C   C103      1.0  0.9845092461051433  0.8828656242979764  0.8047916740875581  1.0000
  C   C104      1.0  0.9902837315648827  0.884241865977388  0.7697249783900265  1.0000
  C   C105      1.0  0.027902567056397713  0.8863856749026413  0.7531583567215339  1.0000
  C   C106      1.0  0.05981562570043714  0.8874911059106538  0.7715774410308021  1.0000
  C   C107      1.0  0.05400788038522127  0.885806344343241  0.8066521272088332  1.0000
  C   C108      1.0  0.016420032401259332  0.8832679044175857  0.8232206318238113  1.0000
  H   H69       1.0  0.9658577135986682  0.8833951874214461  0.7553174264102934  1.0000
  H   H70       1.0  0.03224062054497078  0.8874322303518456  0.726002887163281  1.0000
  H   H71       1.0  0.078448658104046  0.8861487942365912  0.8210301883399802  1.0000
  H   H72       1.0  0.01211223462094102  0.8820665613453105  0.8503746509363705  1.0000
  C   C109      1.0  0.8862150130167579  0.11249163943786439  0.818671752756206  1.0000
  C   C110      1.0  0.8673310129925828  0.07837653854243008  0.8315419962288618  1.0000
  C   C111      1.0  0.8579034087882832  0.050041094220836246  0.8096560945416365  1.0000
  C   C112      1.0  0.8680451833707707  0.05564943293404756  0.7750500385070513  1.0000
  C   C113      1.0  0.8883804151983927  0.08892880656074031  0.7625210716709371  1.0000
  C   C114      1.0  0.8970024922185178  0.11747907770320602  0.7841942575901909  1.0000
  H   H73       1.0  0.8589400857419962  0.0744066500120244  0.8582546365747162  1.0000
  H   H74       1.0  0.841763852700475  0.024551133379812295  0.8194430347256594  1.0000
  H   H75       1.0  0.8972596751289051  0.09284383377974059  0.7358908086133584  1.0000
  H   H76       1.0  0.9122966756069103  0.14324222599842254  0.7741523673741881  1.0000
  C   C115      1.0  0.03363841843618909  0.2970388882706606  0.7957899182614083  1.0000
  C   C116      1.0  0.07100237544780064  0.30894692394627365  0.7829508566312386  1.0000
  C   C117      1.0  0.10301769118800261  0.2963733589226642  0.798816952213079  1.0000
  C   C118      1.0  0.09763842615524831  0.2725615115591976  0.828034807897824  1.0000
  C   C119      1.0  0.06026339846142694  0.260813158106091  0.8410000178024852  1.0000
  C   C120      1.0  0.028309206878812  0.2726523276409502  0.8246737179234916  1.0000
  H   H77       1.0  0.07523990509682488  0.32777860873588016  0.7606044373138657  1.0000
  H   H78       1.0  0.1317735548475774  0.30551117251085974  0.7886559797014934  1.0000
  H   H79       1.0  0.05603809016121724  0.24231373687101493  0.8635494743669175  1.0000
  H   H80       1.0  0.9995597230907198  0.2634063976058692  0.8347080889384475  1.0000
  C   C121      1.0  0.7893532813755201  0.8371876223194443  0.9426309095438692  1.0000
  C   C122      1.0  0.7638475111915765  0.814235886413074  0.9273626809234834  1.0000
  C   C123      1.0  0.7521480459459129  0.8261184867874923  0.8961696672427121  1.0000
  C   C124      1.0  0.7665690130930415  0.860564359927638  0.8798572873194235  1.0000
  C   C125      1.0  0.7929820649464621  0.8828982313779763  0.8946456596930689  1.0000
  C   C126      1.0  0.8042934746411551  0.8712526928848813  0.9260261869888312  1.0000
  H   H81       1.0  0.7535482504187748  0.7871038529997787  0.9392859310763665  1.0000
  H   H82       1.0  0.7323941109042861  0.8083491490591623  0.8843689482801733  1.0000
  H   H83       1.0  0.8040343155405638  0.9096239349903932  0.8822543817357495  1.0000
  H   H84       1.0  0.8243228945559125  0.8889236625060425  0.9376075421433355  1.0000
  C   C127      1.0  0.7320117362014095  0.8218203074678683  0.6458402022022589  1.0000
  C   C128      1.0  0.7675631956096974  0.8171802388977935  0.6266746684777772  1.0000
  C   C129      1.0  0.8020359416464439  0.8261753891621004  0.6398139867064733  1.0000
  C   C130      1.0  0.8012743367705099  0.8404067691709287  0.6720580542066732  1.0000
  C   C131      1.0  0.7657011495538334  0.845864073218152  0.6910760383703536  1.0000
  C   C132      1.0  0.7311324014187862  0.8366180985864785  0.6779526281152373  1.0000
  H   H85       1.0  0.7686169857072458  0.8072164462577996  0.6015150929950687  1.0000
  H   H86       1.0  0.8294157448024334  0.8222836787121577  0.6248793097446793  1.0000
  H   H87       1.0  0.7648409213202032  0.8566918561349117  0.7160245959797243  1.0000
  H   H88       1.0  0.7037682529174571  0.8404701851455992  0.6928994396410381  1.0000
  C   C133      1.0  0.8129828133045458  0.35624940847927034  0.943392688105254  1.0000
  C   C134      1.0  0.7764180109199889  0.3502547512021802  0.9332340866094238  1.0000
  C   C135      1.0  0.7729648851240072  0.33725780444850073  0.9010418135960081  1.0000
  C   C136      1.0  0.8060192998194164  0.32996852252944575  0.8791188934452354  1.0000
  C   C137      1.0  0.842555037916616  0.3368621966701737  0.888973489646165  1.0000
  C   C138      1.0  0.8460175452730032  0.3501714228523067  0.9210655513494274  1.0000
  H   H89       1.0  0.7508327712139402  0.3550911710454875  0.9503321013585586  1.0000
  H   H90       1.0  0.744648901283764  0.3321173720755827  0.8933699153355764  1.0000
  H   H91       1.0  0.8681307476829708  0.33187639450588524  0.8719435643633682  1.0000
  H   H92       1.0  0.8743227476454535  0.3550711858545282  0.9288503805656709  1.0000
  C   C139      1.0  0.8149098025199111  0.33986336577025034  0.6497331763679549  1.0000
  C   C140      1.0  0.8271929544591967  0.30899011982186714  0.6298536350654873  1.0000
  C   C141      1.0  0.8411993105722684  0.2751170613619314  0.6448763798152902  1.0000
  C   C142      1.0  0.842385723887734  0.2720475014396339  0.6797203196391611  1.0000
  C   C143      1.0  0.8276417556122982  0.30186752691009483  0.6996311216461107  1.0000
  C   C144      1.0  0.8145131380209882  0.33594241561149013  0.6846373059977866  1.0000
  H   H93       1.0  0.8276029056952949  0.3119751955467937  0.6028421223234705  1.0000
  H   H94       1.0  0.8522890301104008  0.2519324693244136  0.6293749181026298  1.0000
  H   H95       1.0  0.8268754684220823  0.2991010944776676  0.7265982490556036  1.0000
  H   H96       1.0  0.804673689936415  0.3596421452904179  0.7001011642293844  1.0000
  C   C145      1.0  0.7635939528330065  0.5322958452435667  0.5211743627303634  1.0000
  C   C146      1.0  0.7443791559893862  0.5647976338288621  0.5094955683766752  1.0000
  C   C147      1.0  0.7341442438157336  0.5948802750462971  0.5309859772602156  1.0000
  C   C148      1.0  0.7443030629856374  0.5931158914144735  0.5637798587417198  1.0000
  C   C149      1.0  0.7637972036406273  0.5607367215211362  0.5753433192508375  1.0000
  C   C150      1.0  0.7732799050127871  0.5302590885630551  0.5541187237076569  1.0000
  H   H97       1.0  0.7364164505422036  0.5661525415067735  0.48412378045262144  1.0000
  H   H98       1.0  0.7181414709694732  0.6191663631009995  0.5221586791016285  1.0000
  H   H99       1.0  0.771621010930816  0.5591822672556025  0.600760253078357  1.0000
  H   H100      1.0  0.7884924126848166  0.5053272408388935  0.5631252748842464  1.0000
  C   C151      1.0  0.31979402844484484  0.8158767541167429  0.9240708273675511  1.0000
  C   C152      1.0  0.2857525293976077  0.8136840814172964  0.9460632442082566  1.0000
  C   C153      1.0  0.25022513167822774  0.8226425575355005  0.9341863222487016  1.0000
  C   C154      1.0  0.24870499185874642  0.8348828215723131  0.9005560443382216  1.0000
  C   C155      1.0  0.2828331075993573  0.8383520431028307  0.8788530581308776  1.0000
  C   C156      1.0  0.3182624374798856  0.8286771073428769  0.8905762785611873  1.0000
  H   H101      1.0  0.2866942235236313  0.8047343296549812  0.9721113664788504  1.0000
  H   H102      1.0  0.22387109903570018  0.8203333649128963  0.9511462711728351  1.0000
  H   H103      1.0  0.2818959217235935  0.8477827811565896  0.852867929034775  1.0000
  H   H104      1.0  0.3445315101949379  0.8305337242437467  0.8734653549177868  1.0000
  C   C157      1.0  0.30406530568333384  0.8088364967723359  0.6612414832682973  1.0000
  C   C158      1.0  0.32183810822604286  0.8442239434316497  0.6508117881003591  1.0000
  C   C159      1.0  0.31964987262093153  0.8750921742878587  0.6725456227822106  1.0000
  C   C160      1.0  0.2995423932468735  0.8707664783868367  0.7047072952685896  1.0000
  C   C161      1.0  0.28305351839601983  0.8349599030179177  0.7156070325813468  1.0000
  C   C162      1.0  0.2853663777829175  0.804038414881985  0.6939250334479746  1.0000
  H   H105      1.0  0.33663272269502315  0.8481240940846436  0.6258535078044715  1.0000
  H   H106      1.0  0.33275431367447383  0.9026754256686044  0.6641201488496601  1.0000
  H   H107      1.0  0.2684173116959468  0.8310994308894478  0.7406821595192028  1.0000
  H   H108      1.0  0.27189763984466186  0.7765844109811901  0.702222991732615  1.0000
  C   C163      1.0  0.4975552732440751  0.8011864347411736  0.5222848864051629  1.0000
  C   C164      1.0  0.5609108921389112  0.7101253300321083  0.026074721326208694  1.0000
  C   C165      1.0  0.5924430150925101  0.732324048004661  0.03342424757296736  1.0000
  C   C166      1.0  0.5589325987925272  0.7484715763366644  0.5177220253383563  1.0000
  C   C167      1.0  0.5665130337473807  0.7882522550465276  0.5151098337055338  1.0000
  C   C168      1.0  0.5358014013226963  0.8146261991979282  0.5176157666748293  1.0000
  H   H109      1.0  0.5656292956231906  0.6814818976977566  0.016678251735159133  1.0000
  H   H110      1.0  0.6213388156990651  0.7207086915644799  0.029756578529894773  1.0000
  H   H111      1.0  0.5960275922949122  0.7986226418976787  0.5112718697455539  1.0000
  H   H112      1.0  0.541671492169678  0.8453990056877894  0.5161181675602692  1.0000
  C   C169      1.0  0.3134101257290925  0.33203736706984943  0.8879745681163485  1.0000
  C   C170      1.0  0.3240092797445019  0.3623983188883147  0.9072126741913217  1.0000
  C   C171      1.0  0.3257792827826646  0.35649984147523933  0.9418861440085755  1.0000
  C   C172      1.0  0.3170607309857722  0.32011671227601624  0.9573642668006236  1.0000
  C   C173      1.0  0.307307689767739  0.28951849574866284  0.9380280039335721  1.0000
  C   C174      1.0  0.3055327544730751  0.2954553275797942  0.9033748549590103  1.0000
  H   H113      1.0  0.3303424839575657  0.3907224068797551  0.8953427222128677  1.0000
  H   H114      1.0  0.33340107708122996  0.3802390779610988  0.9566509281602025  1.0000
  H   H115      1.0  0.3009354620994032  0.2612118926502112  0.9498982026963134  1.0000
  H   H116      1.0  0.2982959843268378  0.2717025294910661  0.8885465743318677  1.0000
  C   C175      1.0  0.34538333391497233  0.3366205273832587  0.6273235356561545  1.0000
  C   C176      1.0  0.34812651172998377  0.3255474632494107  0.6609635875562162  1.0000
  C   C177      1.0  0.314717736832619  0.32084393994445487  0.6836508768575742  1.0000
  C   C178      1.0  0.2783211278006449  0.325896519886894  0.6726217293499411  1.0000
  C   C179      1.0  0.27555618735209964  0.3369664426548112  0.638924396288275  1.0000
  C   C180      1.0  0.3090537221121446  0.34261331172712944  0.6163355758427181  1.0000
  H   H117      1.0  0.37623655105295073  0.3214154974938036  0.6696429117549577  1.0000
  H   H118      1.0  0.31727715112735494  0.31398823350490385  0.709745328394087  1.0000
  H   H119      1.0  0.2474509856968888  0.34122276324015366  0.6302687478540794  1.0000
  H   H120      1.0  0.3067433016920339  0.3508517135331795  0.5902945584056821  1.0000
  C   C181      1.0  0.5407341258153985  0.43951844373512333  0.519796556419497  1.0000
  C   C182      1.0  0.5439300136993284  0.35258399082270514  0.06432529616549898  1.0000
  C   C183      1.0  0.5581553471116666  0.4059936855574947  0.5702944863623483  1.0000
  C   C184      1.0  0.597357839133179  0.4115787618550295  0.5593685159956102  1.0000
  C   C185      1.0  0.6083272106146795  0.43065340142133174  0.5283044365760555  1.0000
  C   C186      1.0  0.5800105655818654  0.4449087759249224  0.5086839768347282  1.0000
  H   H121      1.0  0.5434901665198474  0.3320332963516496  0.08549834163351444  1.0000
  H   H122      1.0  0.6060556812575703  0.3533257568876928  0.054800933418972075  1.0000
  H   H123      1.0  0.6384932299146451  0.43512551013838074  0.5196235619479522  1.0000
  H   H124      1.0  0.5885032097113193  0.46021820969559624  0.4849107990473417  1.0000
  C   C187      1.0  0.35189012574520656  0.5403906117365509  0.012727618695934417  1.0000
  C   C188      1.0  0.3617720350771251  0.5748145912257235  0.9941558618589287  1.0000
  C   C189      1.0  0.3451074979796151  0.609840030403675  0.0040931426886081645  1.0000
  C   C190      1.0  0.3176797846699398  0.6105773991267788  0.032153624227310384  1.0000
  C   C191      1.0  0.30571177602060073  0.5757550457858087  0.04942756738416554  1.0000
  C   C192      1.0  0.32306611403114754  0.5406012180572576  0.0398958381600778  1.0000
  H   H125      1.0  0.3836063919562527  0.5745808684244653  0.972787490538418  1.0000
  H   H126      1.0  0.3537609964353706  0.6361981972371125  0.9901049421562104  1.0000
  H   H127      1.0  0.34718158007251904  0.6020481277657116  0.4755253104394875  1.0000
  H   H128      1.0  0.3450953939521789  0.5416246243547931  0.5111139626598634  1.0000
  N   N1        1.0  0.2914821520360201  0.6940395107595887  0.9298280541934947  1.0000
  C   C193      1.0  0.2889927437247977  0.7107725551109763  0.9632522055234722  1.0000
  C   C194      1.0  0.33251121571713954  0.6901493568804515  0.9165387862023571  1.0000
  C   C195      1.0  0.2718577484302219  0.7197651960900304  0.9067091926779391  1.0000
  C   C196      1.0  0.27268497016022714  0.6555309665860318  0.932954742307656  1.0000
  H   H129      1.0  0.25861135755276093  0.7164351726681429  0.9734021588476696  1.0000
  H   H130      1.0  0.30519408630125977  0.7385161831312053  0.9623092577449313  1.0000
  H   H131      1.0  0.3014649133220301  0.6910346236078125  0.9817749868560461  1.0000
  H   H132      1.0  0.33559296893878215  0.678202156896522  0.8910803815980403  1.0000
  H   H133      1.0  0.34769092455843353  0.7187339162897383  0.9145362918845973  1.0000
  H   H134      1.0  0.34815592228162073  0.6706361206044393  0.9331596506340163  1.0000
  H   H135      1.0  0.272120568484526  0.7075160674015015  0.8814911060013675  1.0000
  H   H136      1.0  0.28627649365988694  0.7485682484445687  0.9029596474352951  1.0000
  H   H137      1.0  0.2412404263204303  0.7248833219376133  0.9165383997046338  1.0000
  H   H138      1.0  0.2741515244575839  0.6417761102387  0.9082767477518998  1.0000
  H   H139      1.0  0.24172141107097928  0.6575691178452332  0.9430211358761094  1.0000
  H   H140      1.0  0.2867458672399997  0.6355649789787796  0.9504800730247166  1.0000
  N   N2        1.0  0.9527404786273749  0.2981567145168078  0.3846291903002959  1.0000
  C   C197      1.0  0.9137962632195923  0.29091483864357554  0.40242249173761835  1.0000
  C   C198      1.0  0.9708243359850235  0.26096213231538734  0.37521456375153805  1.0000
  C   C199      1.0  0.9768239501317423  0.3181121582657022  0.40676493904604516  1.0000
  C   C200      1.0  0.9495442881479664  0.3227565710391806  0.35402030519481775  1.0000
  H   H141      1.0  0.9148237125562659  0.27235193810775354  0.42564604225346786  1.0000
  H   H142      1.0  0.8948006276847585  0.27623346418357325  0.38625524209361767  1.0000
  H   H143      1.0  0.8992221937538183  0.31843412088446943  0.40969351873146787  1.0000
  H   H144      1.0  0.0006294197137834967  0.26535398440906527  0.36246391357382474  1.0000
  H   H145      1.0  0.9728306758747578  0.24115754392448824  0.3975406831326722  1.0000
  H   H146      1.0  0.9540993266320995  0.2456224294867238  0.35760380243167506  1.0000
  H   H147      1.0  0.006425592076554576  0.3240021494453659  0.3939959964597625  1.0000
  H   H148      1.0  0.979878040030391  0.30035296508832965  0.43012924538943936  1.0000
  H   H149      1.0  0.9640218435207406  0.34635930336193427  0.41422643100409384  1.0000
  H   H150      1.0  0.9322110746027703  0.3081807422414053  0.33650701156755886  1.0000
  H   H151      1.0  0.9783723996494393  0.3295844550161657  0.34025366990953726  1.0000
  H   H152      1.0  0.9348436206062215  0.3505904835495662  0.3600049578459029  1.0000
  N   N3        1.0  0.9150451674699354  0.7959996533838606  0.1935608602950567  1.0000
  C   C201      1.0  0.8910774311510211  0.7777823247580419  0.22273240448034132  1.0000
  C   C202      1.0  0.8992146144439525  0.7859366992023176  0.162289791149438  1.0000
  C   C203      1.0  0.9551420679442576  0.7819906082792994  0.19314594365182947  1.0000
  C   C204      1.0  0.9147255711988606  0.8384531060637969  0.196228956534468  1.0000
  H   H153      1.0  0.8911278661977174  0.745692417372933  0.2218573932472701  1.0000
  H   H154      1.0  0.8605250062549195  0.787368617950532  0.22361062354138547  1.0000
  H   H155      1.0  0.9017842169081545  0.785416360634158  0.2468210595563022  1.0000
  H   H156      1.0  0.91667370955246  0.7990045343810466  0.13971010826674152  1.0000
  H   H157      1.0  0.8983727865092695  0.7540671716098971  0.15962278375107625  1.0000
  H   H158      1.0  0.8691531203294507  0.796710567790743  0.1618085178948759  1.0000
  H   H159      1.0  0.9741929612535817  0.7955743691986343  0.17173870551693185  1.0000
  H   H160      1.0  0.9566556711517823  0.7500562725559684  0.19103066604629734  1.0000
  H   H161      1.0  0.9675689640290203  0.7891191555338777  0.2166654159753877  1.0000
  H   H162      1.0  0.931136502404085  0.8534281537592758  0.17401936155677458  1.0000
  H   H163      1.0  0.927852661146063  0.8471710860222348  0.21883705239269183  1.0000
  H   H164      1.0  0.8848480987005309  0.8498854948550574  0.19821445312681707  1.0000
  N   N4        1.0  0.16413069238147163  0.31810062073949413  0.20836981706663923  1.0000
  C   C205      1.0  0.1725761428051308  0.34332132398943294  0.23550761384829363  1.0000
  C   C206      1.0  0.1542982125128812  0.34233132816286255  0.17927296229440012  1.0000
  C   C207      1.0  0.13115135768780614  0.2924336307412875  0.22060945564953066  1.0000
  C   C208      1.0  0.19845541927489144  0.29453061979534134  0.1980702092656041  1.0000
  H   H165      1.0  0.182140730997095  0.3261817516244198  0.2572210410572914  1.0000
  H   H166      1.0  0.1466415267886507  0.35985304758619  0.24526621719489694  1.0000
  H   H167      1.0  0.19567066891805882  0.36465751404220087  0.2267253557932011  1.0000
  H   H168      1.0  0.14763618885415708  0.3242590490729951  0.15832394601680502  1.0000
  H   H169      1.0  0.12872648143848872  0.3607426009647555  0.18620642875124088  1.0000
  H   H170      1.0  0.17872733478901304  0.36197002957108365  0.1694012486390035  1.0000
  H   H171      1.0  0.12389746226972935  0.2727219133369198  0.20100665412449667  1.0000
  H   H172      1.0  0.10483519663542164  0.30933398441186916  0.22871568635898198  1.0000
  H   H173      1.0  0.13740270556209772  0.27416673439526357  0.24284641527977568  1.0000
  H   H174      1.0  0.19260150765396394  0.2738416942631357  0.17874846783247436  1.0000
  H   H175      1.0  0.20820246616203283  0.27739374229217034  0.2197110849746133  1.0000
  H   H176      1.0  0.2233029505169239  0.31298050207360223  0.18718946474783815  1.0000
  N   N5        1.0  0.7816900022703139  0.42200964384239026  0.16754121687531326  1.0000
  C   C209      1.0  0.7968445183083571  0.3971935800744549  0.1939987205520336  1.0000
  C   C210      1.0  0.7452560060396388  0.40527360429545206  0.1587599490760918  1.0000
  C   C211      1.0  0.8103514035102374  0.42428927798843036  0.1374846357458686  1.0000
  C   C212      1.0  0.7743099252717359  0.46127019525774393  0.17983279626331336  1.0000
  H   H177      1.0  0.8242580673281068  0.4089639154706993  0.20140751088791148  1.0000
  H   H178      1.0  0.8031194523186402  0.36756094519111865  0.1852248588647209  1.0000
  H   H179      1.0  0.7758290483080221  0.3942256981161965  0.21694508633144596  1.0000
  H   H180      1.0  0.7326482990303187  0.42353779717752243  0.13922752165650953  1.0000
  H   H181      1.0  0.7498739074531142  0.3760934550095501  0.14859620476803087  1.0000
  H   H182      1.0  0.7231538445683513  0.4022301348382506  0.18091897017679814  1.0000
  H   H183      1.0  0.7998591974531142  0.44285333243849184  0.11696942261864672  1.0000
  H   H184      1.0  0.8165458266459101  0.3951089710578138  0.12749103069122844  1.0000
  H   H185      1.0  0.8382182039030502  0.436749855571714  0.14315652324308795  1.0000
  H   H186      1.0  0.7629613580771194  0.48064597115832003  0.160265259308124  1.0000
  H   H187      1.0  0.8011589767558267  0.4748678010312047  0.18664840701889637  1.0000
  H   H188      1.0  0.7526162707307867  0.4606722912421941  0.20236800620092738  1.0000
  N   N6        1.0  0.9504651235706892  0.3408772365785767  0.6748744243804535  1.0000
  C   C213      1.0  0.9116751423565707  0.35750966767801506  0.6730276080309944  1.0000
  C   C214      1.0  0.9747175441064484  0.3493853205265519  0.6428230929382093  1.0000
  C   C215      1.0  0.9471342453618667  0.29849223218097654  0.6810582904827052  1.0000
  C   C216      1.0  0.9683178779369863  0.3581096153654262  0.70257933916153  1.0000
  H   H189      1.0  0.892767876552795  0.35192949056307027  0.6969718298149077  1.0000
  H   H190      1.0  0.8970529046221447  0.34484698958139964  0.6526764989819732  1.0000
  H   H191      1.0  0.9129090919580228  0.38940189231038796  0.6680514731425362  1.0000
  H   H192      1.0  0.004231640951364524  0.3372520545684398  0.6434542277521088  1.0000
  H   H193      1.0  0.961934524800489  0.3367400663049397  0.6214404662107939  1.0000
  H   H194      1.0  0.9777820635914811  0.38112288004056866  0.6373160660885637  1.0000
  H   H195      1.0  0.9758100940202402  0.2849413329302936  0.6829851265094131  1.0000
  H   H196      1.0  0.9334301617733385  0.2844530772058751  0.660826507891276  1.0000
  H   H197      1.0  0.9289800745713735  0.2909619908451122  0.7049423592914003  1.0000
  H   H198      1.0  0.9972555577032374  0.34552233338616867  0.7054499722310972  1.0000
  H   H199      1.0  0.9503667401474442  0.35276474282721765  0.7270737491863657  1.0000
  H   H200      1.0  0.9719049519309613  0.38997417943351254  0.6986018635312664  1.0000
  N   N7        1.0  0.7934897815754451  0.16408551492881915  0.19605180703204356  1.0000
  C   C217      1.0  0.7659234420541076  0.14535141931449072  0.1762496438165537  1.0000
  C   C218      1.0  0.8148846353110835  0.13404356599973857  0.2136655737417455  1.0000
  C   C219      1.0  0.7720858530476742  0.18860538139613056  0.22094071555016534  1.0000
  C   C220      1.0  0.8208879198662395  0.18836597176925898  0.17337085222204449  1.0000
  H   H201      1.0  0.7492822321175125  0.16725102264735597  0.1626388682535135  1.0000
  H   H202      1.0  0.7447473929156601  0.1269725726020304  0.19269468677580362  1.0000
  H   H203      1.0  0.7810701758829459  0.12653873088879802  0.1572418115054887  1.0000
  H   H204      1.0  0.8357524260614905  0.14709805268147239  0.22906650110146617  1.0000
  H   H205      1.0  0.7950869766623602  0.11548075137350186  0.23127292251687084  1.0000
  H   H206      1.0  0.831460143099582  0.11489189945366271  0.19580645714668207  1.0000
  H   H207      1.0  0.7921032607849148  0.20409963097628103  0.23563826239973765  1.0000
  H   H208      1.0  0.7522521745976998  0.17109187398919737  0.23938147215961394  1.0000
  H   H209      1.0  0.7545269772285998  0.2107565556537743  0.20869407734680662  1.0000
  H   H210      1.0  0.8413944703364747  0.2039774738466464  0.18756456089228538  1.0000
  H   H211      1.0  0.805582410235617  0.21076426087652037  0.15912178477616687  1.0000
  H   H212      1.0  0.8383769466354416  0.17078782666540632  0.15480327042207945  1.0000
  N   N8        1.0  0.1871626031842737  0.31606059493786487  0.9212925911643429  1.0000
  C   C221      1.0  0.19959103730581362  0.3328847394516844  0.8873442941392203  1.0000
  C   C222      1.0  0.2068361561411265  0.33660165995955543  0.9462376463219051  1.0000
  C   C223      1.0  0.1973001179965539  0.27457568867205284  0.9228293984951471  1.0000
  C   C224      1.0  0.1448909202478288  0.3201351678383065  0.9285736914375341  1.0000
  H   H213      1.0  0.18423271167337552  0.3189622643351873  0.8681109379838688  1.0000
  H   H214      1.0  0.23108154340956588  0.3289910713213697  0.8803253868880547  1.0000
  H   H215      1.0  0.19363272055083613  0.36443294103079116  0.8854408552538611  1.0000
  H   H216      1.0  0.199298798705426  0.3239023613854929  0.9720971004460874  1.0000
  H   H217      1.0  0.23876980003406767  0.3350821610241038  0.9406467469821785  1.0000
  H   H218      1.0  0.19914715860835064  0.3678098774735967  0.9463146478378094  1.0000
  H   H219      1.0  0.18830865604769098  0.2608618977075512  0.9480634561744288  1.0000
  H   H220      1.0  0.22890637476831022  0.2703261615501499  0.9172693447149838  1.0000
  H   H221      1.0  0.18306984730993947  0.2582664511488347  0.9041720926255834  1.0000
  H   H222      1.0  0.1360608439894464  0.3510111860992085  0.927107378287701  1.0000
  H   H223      1.0  0.13441123400534938  0.3078854051083842  0.9540438945933937  1.0000
  H   H224      1.0  0.12937172790869678  0.3046409221120426  0.9101525188468766  1.0000
  N   N9        1.0  0.27269935744802376  0.7611528715841821  0.23821021245397525  1.0000
  C   C225      1.0  0.2628258111003462  0.7527653837307486  0.20431316124391613  1.0000
  C   C226      1.0  0.23850000508489583  0.7542381396122729  0.26299181559359247  1.0000
  C   C227      1.0  0.28475904873644353  0.802008832609329  0.23863033336180642  1.0000
  C   C228      1.0  0.3046528435909415  0.7359632361159101  0.24692859666737826  1.0000
  H   H225      1.0  0.2873660025549081  0.7596395755222435  0.18469554176325162  1.0000
  H   H226      1.0  0.23784670417621093  0.7704410197837456  0.19759994406011336  1.0000
  H   H227      1.0  0.2548882321838309  0.7218417362966753  0.20254631088144928  1.0000
  H   H228      1.0  0.22837317856258188  0.7237095686381729  0.2634087087776038  1.0000
  H   H229      1.0  0.24490177374215394  0.7606361589455793  0.2888280390146755  1.0000
  H   H230      1.0  0.21404970031155265  0.773187485981962  0.25709996722108536  1.0000
  H   H231      1.0  0.2611714267490384  0.8215333380254671  0.2321193083236136  1.0000
  H   H232      1.0  0.31029467550919154  0.8086983946638917  0.22005182983839883  1.0000
  H   H233      1.0  0.29218295181227527  0.8096529360657229  0.2638735063391688  1.0000
  H   H234      1.0  0.3128421419260293  0.7419347786917726  0.27231868510184354  1.0000
  H   H235      1.0  0.3308158642624799  0.740672862680897  0.22859825411460521  1.0000
  H   H236      1.0  0.2965421187377582  0.7048365905673412  0.24703018947091127  1.0000
  N   N10       1.0  0.891571489575741  0.7900674853836936  0.887936775478236  1.0000
  C   C229      1.0  0.8884372581830475  0.7512552025525752  0.8744044307702714  1.0000
  C   C230      1.0  0.8766691240964586  0.788648101977533  0.9239016921271928  1.0000
  C   C231      1.0  0.8686790185716023  0.8178106695648701  0.8693699014558017  1.0000
  C   C232      1.0  0.9324346947800155  0.8026302767300934  0.8839188099920702  1.0000
  H   H237      1.0  0.8993918509526013  0.7514098676786836  0.8472354878805415  1.0000
  H   H238      1.0  0.8578602268664915  0.7411220142197208  0.8768963148727036  1.0000
  H   H239      1.0  0.9052794780226908  0.7294758830638369  0.88786656689575  1.0000
  H   H240      1.0  0.8774158820013146  0.8177556669306212  0.9346874075937727  1.0000
  H   H241      1.0  0.8461353222029808  0.7784409637394688  0.9278558748615284  1.0000
  H   H242      1.0  0.8937103485697449  0.7687035935696239  0.9389585655633319  1.0000
  H   H243      1.0  0.8707148662506223  0.847612473815485  0.878502265621183  1.0000
  H   H244      1.0  0.8375763147025459  0.8095846066267695  0.8718466378676233  1.0000
  H   H245      1.0  0.8792996899766466  0.8194265944362827  0.8421926021078384  1.0000
  H   H246      1.0  0.9355987637188723  0.8322724283685492  0.8931350169815808  1.0000
  H   H247      1.0  0.9446098337814184  0.803779953882856  0.8570059769619708  1.0000
  H   H248      1.0  0.9506566472213667  0.7827463220859036  0.8979059333926475  1.0000
  N   N11       1.0  0.44099845434706064  0.28208559709898384  0.9905717612211447  1.0000
  C   C233      1.0  0.41611930307091355  0.2941352118334593  0.9644035228353758  1.0000
  C   C234      1.0  0.456599872104252  0.2431604658445789  0.9838714538157415  1.0000
  C   C235      1.0  0.4179956437112589  0.2810743373422392  0.023797681472743415  1.0000
  C   C236      1.0  0.4732056800712659  0.3099777725291495  0.990384597519592  1.0000
  H   H249      1.0  0.4036695051443853  0.3233343582042108  0.9688294192012131  1.0000
  H   H250      1.0  0.3912117335016326  0.27398132800704555  0.9641512939565303  1.0000
  H   H251      1.0  0.4323564356971812  0.29533359663339925  0.9389129838068426  1.0000
  H   H252      1.0  0.4740963842542934  0.24284680302510644  0.9589467033588933  1.0000
  H   H253      1.0  0.4754802209300753  0.23334036528687666  0.003240084732728077  1.0000
  H   H254      1.0  0.4329615826994276  0.22144799646910876  0.9840459222654688  1.0000
  H   H255      1.0  0.4062778484293035  0.3100518161304508  0.029595593931143863  1.0000
  H   H256      1.0  0.4357159471714236  0.27237738836618297  0.04435171824080788  1.0000
  H   H257      1.0  0.3928606593379013  0.2609885879841719  0.024899453857837095  1.0000
  H   H258      1.0  0.4920656054408443  0.30226501178950793  0.010374577671850904  1.0000
  H   H259      1.0  0.46236191946609817  0.3396553426760627  0.9952668174015388  1.0000
  H   H260      1.0  0.4915627623900551  0.3114508932410805  0.9658693877243416  1.0000
  N   N12       1.0  0.7929889117727499  0.1387677564179578  0.725094831885386  1.0000
  C   C237      1.0  0.832661871930535  0.13601181161992326  0.7081488953875847  1.0000
  C   C238      1.0  0.766373533007839  0.11712504979871423  0.7063746176881613  1.0000
  C   C239      1.0  0.7813636575472843  0.1798389389245595  0.726065503951148  1.0000
  C   C240      1.0  0.7916687585280169  0.12195596177421467  0.7597346352055097  1.0000
  H   H261      1.0  0.8351771317394482  0.14974778527325636  0.6823707953453293  1.0000
  H   H262      1.0  0.8418776718503126  0.10529898414642276  0.7060447037453782  1.0000
  H   H263      1.0  0.8537446086238112  0.15111011185792844  0.7221163940509501  1.0000
  H   H264      1.0  0.736141814519363  0.11838493450739991  0.7184844235912937  1.0000
  H   H265      1.0  0.7667893973485397  0.129048863735511  0.6800980694976133  1.0000
  H   H266      1.0  0.7745541608889788  0.08600017601813442  0.705181163104354  1.0000
  H   H267      1.0  0.7512921421668494  0.18313468641807804  0.7380191540396933  1.0000
  H   H268      1.0  0.7833248976788949  0.1938780362073171  0.7003902078570067  1.0000
  H   H269      1.0  0.8005259955769053  0.19674950132255645  0.7405217252208834  1.0000
  H   H270      1.0  0.7991080749924212  0.09064661293803052  0.7598116693419984  1.0000
  H   H271      1.0  0.7624731178179327  0.12455135099618524  0.7736732993628485  1.0000
  H   H272      1.0  0.8125835472645487  0.13660567165284923  0.7742059072917772  1.0000
  N   N13       1.0  0.9785900297246267  0.005477342153779485  0.7997375267403027  1.0000
  C   C241      1.0  0.014632940053993515  0.9955418840494699  0.7789810905728791  1.0000
  C   C242      1.0  0.9742937956852573  0.047988053743822645  0.7997119711430384  1.0000
  C   C243      1.0  0.980024246047613  0.9900317655934812  0.8345285454973426  1.0000
  C   C244      1.0  0.9453102113094404  0.9882238925603758  0.7857980140591975  1.0000
  H   H273      1.0  0.01893156795937645  0.963663999358726  0.7788455002882135  1.0000
  H   H274      1.0  0.04042377926887486  0.008242663405304329  0.788613996026439  1.0000
  H   H275      1.0  0.014282538015472968  0.006193309160726024  0.7524292499054261  1.0000
  H   H276      1.0  0.9477753023475407  0.05639310555825938  0.8157198589643292  1.0000
  H   H277      1.0  0.9992342962865489  0.062119914965069745  0.809509764988463  1.0000
  H   H278      1.0  0.9720421072936168  0.06055010207478251  0.7739652199977992  1.0000
  H   H279      1.0  0.9533018295660934  0.9971355159912958  0.850902436013432  1.0000
  H   H280      1.0  0.005090964075078697  0.0019899746607341395  0.8457647426723346  1.0000
  H   H281      1.0  0.9826503969072692  0.9579441508627088  0.8354718313331035  1.0000
  H   H282      1.0  0.9177328624439617  0.9940834099913519  0.8013876079699779  1.0000
  H   H283      1.0  0.9480956895935346  0.9562727430401045  0.7848034069972113  1.0000
  H   H284      1.0  0.9424335838462754  0.9998396960404967  0.7598487036355881  1.0000
  N   N14       1.0  0.6367428924578115  0.5208072482658901  0.008438411257260414  1.0000
  C   C245      1.0  0.6420400836603155  0.49833672275093205  0.03979973836092399  1.0000
  C   C246      1.0  0.6662227336441844  0.5093027648284343  0.9813784921139357  1.0000
  C   C247      1.0  0.6408279231550332  0.5625420084540909  0.013876457477414172  1.0000
  C   C248      1.0  0.5978890250763333  0.5129770783865609  0.998675189123091  1.0000
  H   H285      1.0  0.6384444712199876  0.4667827973598847  0.03680984567595602  1.0000
  H   H286      1.0  0.6208406617886817  0.5066855154640363  0.06097944496297292  1.0000
  H   H287      1.0  0.6713922125788963  0.5027197689837852  0.0474706863764364  1.0000
  H   H288      1.0  0.6638625194919676  0.47795139417107546  0.976546183874353  1.0000
  H   H289      1.0  0.6632779253556  0.5257625072457706  0.9573561818000437  1.0000
  H   H290      1.0  0.695931843168481  0.5145082301346328  0.9879236917185377  1.0000
  H   H291      1.0  0.6385622084293844  0.5804428813823679  0.9904357006045055  1.0000
  H   H292      1.0  0.6693674763321847  0.569117596143277  0.02229588907889557  1.0000
  H   H293      1.0  0.6184797566807436  0.5725200098338196  0.033515416324632064  1.0000
  H   H294      1.0  0.5927968267529347  0.5296713541122525  0.9752381899782218  1.0000
  H   H295      1.0  0.5748765825095478  0.5205037517470317  0.01873766744961536  1.0000
  H   H296      1.0  0.5941868046057982  0.48176099920456283  0.9939596746593777  1.0000
  N   N15       1.0  0.30959885711099544  0.2011554468423683  0.6794211426893619  1.0000
  C   C249      1.0  0.27174380133095977  0.2136443888685606  0.6954790691377801  1.0000
  C   C250      1.0  0.3159990939743323  0.218329142082945  0.6448375297736862  1.0000
  C   C251      1.0  0.3100588128969418  0.15846883735662576  0.678623194228975  1.0000
  C   C252      1.0  0.3404758748138088  0.21415317559734742  0.6989338892883642  1.0000
  H   H297      1.0  0.2653279725262341  0.19996980400840492  0.7210763578607915  1.0000
  H   H298      1.0  0.2478001403807147  0.2057519564836096  0.680820093469889  1.0000
  H   H299      1.0  0.27080669891615006  0.24548738188794514  0.6980129132489509  1.0000
  H   H300      1.0  0.3446258455437048  0.21019667478822499  0.6320723209359596  1.0000
  H   H301      1.0  0.29345322338140245  0.20884006600119268  0.6292832940172873  1.0000
  H   H302      1.0  0.315053928001095  0.25053003257744233  0.6447098659701966  1.0000
  H   H303      1.0  0.3381167430406501  0.14784627492952793  0.6665865149565054  1.0000
  H   H304      1.0  0.2867652165508211  0.14754869829701367  0.6645489233590988  1.0000
  H   H305      1.0  0.305477846299038  0.14488932738130372  0.7045369985121538  1.0000
  H   H306      1.0  0.3362673488337214  0.20210960539169012  0.725292303137585  1.0000
  H   H307      1.0  0.34106495259858927  0.24617975011832108  0.7000881823277417  1.0000
  H   H308      1.0  0.36943500657384976  0.20493858584682445  0.6877182399344005  1.0000
  N   N16       1.0  0.8280397904759226  0.21901294920390807  0.9281683020305938  1.0000
  C   C253      1.0  0.7982094850203523  0.20018865731126007  0.9525544907877854  1.0000
  C   C254      1.0  0.8425681031736821  0.2540364163554492  0.9426058753903667  1.0000
  C   C255      1.0  0.8110183530047236  0.22994124123815896  0.8969516866755548  1.0000
  C   C256      1.0  0.8603175173131344  0.19199364161039156  0.9205106422619426  1.0000
  H   H309      1.0  0.7864779225580393  0.17373785623418306  0.9423790936091375  1.0000
  H   H310      1.0  0.7735706496545874  0.22007922945749087  0.9588310575619888  1.0000
  H   H311      1.0  0.8100533322866244  0.19157711276601871  0.9764406922180958  1.0000
  H   H312      1.0  0.8651414173352115  0.2690157814147046  0.9248382388855673  1.0000
  H   H313      1.0  0.8189619774617105  0.2751625166945085  0.9485127419222849  1.0000
  H   H314      1.0  0.8555045258171211  0.24712302395759386  0.9662924973049014  1.0000
  H   H315      1.0  0.7863134675669672  0.2501164922180842  0.9016865518241147  1.0000
  H   H316      1.0  0.8005427510602791  0.20423507943627542  0.8848058332652344  1.0000
  H   H317      1.0  0.8324801835102069  0.24498898658792687  0.8782814026941549  1.0000
  H   H318      1.0  0.8830939038984934  0.20524999950052558  0.9018091731815325  1.0000
  H   H319      1.0  0.8504505498529275  0.16515902948915326  0.9095646717344993  1.0000
  H   H320      1.0  0.8742353231070252  0.18334679120965963  0.9433379532237925  1.0000
  N   N17       1.0  0.5698500145087437  0.8019867942119113  0.6177464600222033  1.0000
  C   C257      1.0  0.5309233104735213  0.7945993085114259  0.6078569595291987  1.0000
  C   C258      1.0  0.5973892147408092  0.8081588260328019  0.5872936568828896  1.0000
  C   C259      1.0  0.5821934796165619  0.7683323469447113  0.6378472232196171  1.0000
  C   C260      1.0  0.5691768429780973  0.8368342137721121  0.6378584403062799  1.0000
  H   H321      1.0  0.5308148640983164  0.7689512078406321  0.591965598441953  1.0000
  H   H322      1.0  0.5204957967045688  0.8195949320449952  0.5929090826127543  1.0000
  H   H323      1.0  0.5093440800080911  0.789172600584571  0.6301398557985013  1.0000
  H   H324      1.0  0.6264916848698093  0.8162373645559703  0.5935910276340264  1.0000
  H   H325      1.0  0.6008041050992875  0.7814377040205419  0.5728205714248431  1.0000
  H   H326      1.0  0.5879078612091514  0.831853461763227  0.5704845791937648  1.0000
  H   H327      1.0  0.6119596721145628  0.7726092668371525  0.6448793828434666  1.0000
  H   H328      1.0  0.5824531389044519  0.7414089036313558  0.6235835176528938  1.0000
  H   H329      1.0  0.5626475671281965  0.7633054198820599  0.6614783138152562  1.0000
  H   H330      1.0  0.5485204763043292  0.8333840088184049  0.661001834246175  1.0000
  H   H331      1.0  0.5605320787784182  0.8628853970560841  0.6232587052738542  1.0000
  H   H332      1.0  0.5982688489431119  0.8428165545210184  0.6457720291197304  1.0000
  N   N18       1.0  0.35712173148406534  0.3101015200376332  0.3394446682915007  1.0000
  C   C261      1.0  0.3505725079663424  0.34773973750170556  0.3551500167112423  1.0000
  C   C262      1.0  0.3969154230582397  0.2971030164699555  0.34287801760779285  1.0000
  C   C263      1.0  0.351425254512252  0.3143141851778342  0.30348168484560356  1.0000
  C   C264      1.0  0.3295034380440662  0.2811621538511893  0.3563072267352039  1.0000
  H   H333      1.0  0.3533878208356514  0.34537327435158177  0.3825906819183953  1.0000
  H   H334      1.0  0.32108749235413  0.3587852924788207  0.3522083568825475  1.0000
  H   H335      1.0  0.37149677006428866  0.3701355819069845  0.34373540667394076  1.0000
  H   H336      1.0  0.4025711897785393  0.26854322919724327  0.33155551510004133  1.0000
  H   H337      1.0  0.4185506798536946  0.31808819862579757  0.3301600462474799  1.0000
  H   H338      1.0  0.402099414072273  0.2939624515094955  0.3697842379109507  1.0000
  H   H339      1.0  0.35684540029228895  0.28659330709436315  0.29066233982736556  1.0000
  H   H340      1.0  0.3710537401461074  0.3365592008950113  0.28993748449156564  1.0000
  H   H341      1.0  0.32127427277554127  0.32294598017206544  0.30000696686299827  1.0000
  H   H342      1.0  0.2991920421527788  0.29054756703793355  0.3551053009998377  1.0000
  H   H343      1.0  0.3332711347240196  0.27656755496630153  0.3834232243697309  1.0000
  H   H344      1.0  0.33267199427547867  0.2526358660599373  0.344497911696011  1.0000
  N   N19       1.0  0.637305090740404  0.3152750854443791  0.4880337016606505  1.0000
  C   C265      1.0  0.6456602353223625  0.2758135950617254  0.4765912366065485  1.0000
  C   C266      1.0  0.6579642094126258  0.34376543243019275  0.4639611469073935  1.0000
  C   C267      1.0  0.6504407540227158  0.318929109644624  0.5215543846746112  1.0000
  C   C268      1.0  0.59533555094565  0.32266340443766967  0.4901237934945376  1.0000
  H   H345      1.0  0.6361288111964418  0.27184220378929863  0.4513684474726261  1.0000
  H   H346      1.0  0.6309540393174956  0.25348692971934533  0.49434171227604956  1.0000
  H   H347      1.0  0.6772873913152817  0.2697953571621928  0.4747200294291958  1.0000
  H   H348      1.0  0.6519045762155283  0.37394573903727146  0.47150422664855374  1.0000
  H   H349      1.0  0.689835004620196  0.3395123820758623  0.46227964206961086  1.0000
  H   H350      1.0  0.6493433280945349  0.34128677744288305  0.4382377812170273  1.0000
  H   H351      1.0  0.6818154029795402  0.3128410210390129  0.5211954906496538  1.0000
  H   H352      1.0  0.6348586985070639  0.2985910857076851  0.5406358823962318  1.0000
  H   H353      1.0  0.6455352238745524  0.348568227727647  0.5305793100526077  1.0000
  H   H354      1.0  0.5882890369440916  0.3521845594024189  0.49909552885675734  1.0000
  H   H355      1.0  0.5787961566280392  0.30166641983851505  0.508029932654004  1.0000
  H   H356      1.0  0.5843225236283766  0.320561969860667  0.46524441557296986  1.0000
  N   N20       1.0  0.6441288657122067  0.5192453749739865  0.59619166367858  1.0000
  C   C269      1.0  0.6710529376097492  0.5090660834406329  0.6212072133979505  1.0000
  C   C270      1.0  0.6061384891873681  0.5009788538106049  0.60682415979742  1.0000
  C   C271      1.0  0.6596498166357152  0.5050923806488862  0.563197940700367  1.0000
  C   C272      1.0  0.6397655757589075  0.5617353240199883  0.5935100525663696  1.0000
  H   H357      1.0  0.6606415442733299  0.5197338032105668  0.6463549834979742  1.0000
  H   H358      1.0  0.7002241602894217  0.5218335873488696  0.6136912433440409  1.0000
  H   H359      1.0  0.6746416410194235  0.4771131388331758  0.6240952582412186  1.0000
  H   H360      1.0  0.585603816192695  0.506379851349817  0.5877593921385924  1.0000
  H   H361      1.0  0.6087502801713839  0.4690220275400229  0.6103705034169948  1.0000
  H   H362      1.0  0.5929604330337197  0.5119115002481189  0.6311131910973018  1.0000
  H   H363      1.0  0.6402695741859201  0.5122117678837926  0.5435535833368962  1.0000
  H   H364      1.0  0.6632404127228368  0.4731611256264701  0.5643965108836826  1.0000
  H   H365      1.0  0.6884486943822541  0.5179710821766644  0.5545379488746839  1.0000
  H   H366      1.0  0.619810758433976  0.5705003783263949  0.5747355289845365  1.0000
  H   H367      1.0  0.6679185876211189  0.5763278040830414  0.5855383074948249  1.0000
  H   H368      1.0  0.6285001669719101  0.5735775535501407  0.618008513821223  1.0000
  N   N21       1.0  0.23859195071518807  0.9635949289836705  0.9206485093400417  1.0000
  C   C273      1.0  0.2523974035591972  0.9964538964151869  0.8976121054259969  1.0000
  C   C274      1.0  0.2670054192355519  0.9318673193112279  0.9177951881485752  1.0000
  C   C275      1.0  0.20107353204832576  0.9496475637984773  0.9117495226744935  1.0000
  C   C276      1.0  0.23379534973624494  0.9763918881700259  0.9555317213271277  1.0000
  H   H369      1.0  0.2559401541975284  0.9880079346744384  0.8709890625851794  1.0000
  H   H370      1.0  0.28072512109103054  0.007689076728496502  0.9033788906341168  1.0000
  H   H371      1.0  0.23154094140079318  0.020884466789143463  0.8989914533563453  1.0000
  H   H372      1.0  0.29580059659966207  0.9412559098792009  0.924064803343412  1.0000
  H   H373      1.0  0.2575155087263399  0.9066701098866473  0.9349288486884124  1.0000
  H   H374      1.0  0.27098767114512345  0.9211510185527576  0.8918864985303313  1.0000
  H   H375      1.0  0.18972447766898268  0.9247533268754372  0.9284954057247141  1.0000
  H   H376      1.0  0.20369102137255815  0.9394533071739729  0.8857607836212869  1.0000
  H   H377      1.0  0.17903704586257752  0.972988075640653  0.91293167251043  1.0000
  H   H378      1.0  0.22337574543736455  0.952256723456485  0.9735493686683079  1.0000
  H   H379      1.0  0.21247749199347696  0.0002953982337883243  0.958520240271845  1.0000
  H   H380      1.0  0.2615642867656307  0.987062770348431  0.9631318479506188  1.0000
  N   N22       1.0  0.4382099583059414  0.5952849576394253  0.06846272477745655  1.0000
  C   C277      1.0  0.44221098765374584  0.6035885565170787  0.03177468177433718  1.0000
  C   C278      1.0  0.4570462769464166  0.6264308123583985  0.08495557002419139  1.0000
  C   C279      1.0  0.45660260746309805  0.5577964711677812  0.07569965825417171  1.0000
  C   C280      1.0  0.3968565504935175  0.593230217591361  0.08134603721879911  1.0000
  H   H381      1.0  0.47292696524327005  0.6081874691129904  0.02151041110555818  1.0000
  H   H382      1.0  0.4264136019512121  0.6303412677847879  0.0251430820571088  1.0000
  H   H383      1.0  0.43077349244371305  0.579352921991367  0.018352949343666936  1.0000
  H   H384      1.0  0.48809514638995644  0.6296283341800384  0.07518053967244923  1.0000
  H   H385      1.0  0.44338619899484205  0.6549227767781475  0.08016050970068998  1.0000
  H   H386      1.0  0.4551016286559566  0.6209796226650144  0.1126153669520896  1.0000
  H   H387      1.0  0.4428491571916888  0.5337447963167032  0.06348485954580077  1.0000
  H   H388      1.0  0.4539073741094512  0.5503697946580125  0.10314133101779586  1.0000
  H   H389      1.0  0.4878133577766909  0.558259416819904  0.06624078981499755  1.0000
  H   H390      1.0  0.3926147278979343  0.5883620201056279  0.10909614648992833  1.0000
  H   H391      1.0  0.3822724684538615  0.5689919080872938  0.07042216197493367  1.0000
  H   H392      1.0  0.38144879114205354  0.6203406614376482  0.07498258170978017  1.0000
  N   N23       1.0  0.6546363731084919  0.8013428833919194  0.15898244379946522  1.0000
  C   C281      1.0  0.6527227151540901  0.762683657928971  0.1449271265138835  1.0000
  C   C282      1.0  0.6702778671498683  0.797692196653168  0.1917863309104227  1.0000
  C   C283      1.0  0.6155071087551237  0.8181073255202699  0.16322604586372957  1.0000
  C   C284      1.0  0.680178438240803  0.8268315198362525  0.13578865912348312  1.0000
  H   H393      1.0  0.6335169412081114  0.7426789594147185  0.16162150273860063  1.0000
  H   H394      1.0  0.6817539140351953  0.7490961906149873  0.14158305304648972  1.0000
  H   H395      1.0  0.6415287496774901  0.7643602597374712  0.11993106824138082  1.0000
  H   H396      1.0  0.6729741952871482  0.8263912352095165  0.20287948452014617  1.0000
  H   H397      1.0  0.651619877571234  0.7789289384319864  0.21010857805118802  1.0000
  H   H398      1.0  0.6996098549507763  0.7845631313616251  0.18917246656075556  1.0000
  H   H399      1.0  0.5953744814006275  0.7996285561706513  0.1805624970787614  1.0000
  H   H400      1.0  0.6031285345939537  0.8209607790369955  0.1387173121849294  1.0000
  H   H401      1.0  0.6158592961169288  0.8474226782535602  0.17359147748864948  1.0000
  H   H402      1.0  0.6826708948757371  0.8561974895268624  0.14564847107405285  1.0000
  H   H403      1.0  0.6692715621802211  0.8302320951738321  0.11072705266703883  1.0000
  H   H404      1.0  0.7098713953083768  0.8148764623587691  0.1319255234844133  1.0000
  N   N24       1.0  0.6441772571789863  0.8455305911800018  0.9552123410362382  1.0000
  C   C285      1.0  0.6509119883964684  0.8659490529155704  0.9218982598900209  1.0000
  C   C286      1.0  0.6742921979694637  0.8569427366968794  0.9762077914385296  1.0000
  C   C287      1.0  0.6456873078316059  0.8032830198632345  0.9510973739093626  1.0000
  C   C288      1.0  0.6057542388468276  0.8558759802269265  0.9717145807923399  1.0000
  H   H405      1.0  0.6796772697917001  0.8588817344845912  0.9087195154879384  1.0000
  H   H406      1.0  0.6500666683758538  0.8979092981692869  0.9240338264478082  1.0000
  H   H407      1.0  0.6288655133761891  0.8579290354615589  0.9052797603308579  1.0000
  H   H408      1.0  0.670444039186472  0.8416876942646796  0.001364574642916283  1.0000
  H   H409      1.0  0.7036885294131747  0.8498764345815628  0.9644402554978578  1.0000
  H   H410      1.0  0.673760230077706  0.8885618551725822  0.9801920413507219  1.0000
  H   H411      1.0  0.6744673428608623  0.7942771231924948  0.9391809173867495  1.0000
  H   H412      1.0  0.6236418519291305  0.7936620318341863  0.9350949159807934  1.0000
  H   H413      1.0  0.6400346580037503  0.7870684979551951  0.9757888809317745  1.0000
  H   H414      1.0  0.5998495768085059  0.8410146174578812  0.9969697539270812  1.0000
  H   H415      1.0  0.5822752915545931  0.8473037633918247  0.9567523413127713  1.0000
  H   H416      1.0  0.6034152666299932  0.8875352790489831  0.9752646218376874  1.0000
  N   N25       1.0  0.18209422854642354  0.8617864426060413  0.6700068346241905  1.0000
  C   C289      1.0  0.17881761321227965  0.8300310539691247  0.6960634104289594  1.0000
  C   C290      1.0  0.14395476832845439  0.868596898002628  0.6580150460865987  1.0000
  C   C291      1.0  0.21021090101611925  0.8511346377798299  0.6416219625464435  1.0000
  C   C292      1.0  0.19537178265231692  0.8974205861004642  0.6843924068104039  1.0000
  H   H417      1.0  0.20685645677103498  0.8244494252737776  0.7060513911367603  1.0000
  H   H418      1.0  0.16933640412463483  0.8025345453750486  0.6860459832401891  1.0000
  H   H419      1.0  0.15767733958569993  0.8370331957084746  0.7177881337399047  1.0000
  H   H420      1.0  0.13318680447828551  0.842327277772644  0.6468649711902065  1.0000
  H   H421      1.0  0.12204858664554255  0.87638250112096  0.6790007958781575  1.0000
  H   H422      1.0  0.14517236600123454  0.8927412320304953  0.6386795339018415  1.0000
  H   H423      1.0  0.23954364472487233  0.8476225036601942  0.6496274939936176  1.0000
  H   H424      1.0  0.21244370616788416  0.8737541319347005  0.6209199572461336  1.0000
  H   H425      1.0  0.20246254819972342  0.8232502070373136  0.6311450571764137  1.0000
  H   H426      1.0  0.17433553355252346  0.906886558951569  0.7052511547121684  1.0000
  H   H427      1.0  0.19932668571596288  0.9217578822671999  0.6652818755972297  1.0000
  H   H428      1.0  0.2234687489853059  0.8930052744923758  0.694760253809059  1.0000
  N   N26       1.0  0.07938287779147653  0.047542953205487404  0.2867924351596771  1.0000
  C   C293      1.0  0.11500369309014379  0.024326659718161503  0.2820784150631329  1.0000
  C   C294      1.0  0.06997478753699377  0.06329013291290941  0.25383669921240987  1.0000
  C   C295      1.0  0.08528809181117485  0.07986479320546169  0.3086972715362014  1.0000
  C   C296      1.0  0.047291043942304205  0.02263186015040497  0.30246883643282524  1.0000
  H   H429      1.0  0.1400235415202242  0.042043077555876884  0.270357395755734  1.0000
  H   H430      1.0  0.11152182280238279  0.9995350326651711  0.2658337125859822  1.0000
  H   H431      1.0  0.12282385458072771  0.011833685255167481  0.3064611433191451  1.0000
  H   H432      1.0  0.043154284089766064  0.08091493165424724  0.2564781844934162  1.0000
  H   H433      1.0  0.09366479514066804  0.0822495241054324  0.24141874113233483  1.0000
  H   H434      1.0  0.06543317757696925  0.03968990913246406  0.23663256075569566  1.0000
  H   H435      1.0  0.05930803462784221  0.09856960995044672  0.31222013080474165  1.0000
  H   H436      1.0  0.10997554637202304  0.09871985294358976  0.2980209872721133  1.0000
  H   H437      1.0  0.09179955357664835  0.0691967787367953  0.33402600662492277  1.0000
  H   H438      1.0  0.01980366761218888  0.03902561393906012  0.30649868343060743  1.0000
  H   H439      1.0  0.053710675475610925  0.009930922379814522  0.3272374125713189  1.0000
  H   H440      1.0  0.042202194065791725  0.9978970022042657  0.2865641440555271  1.0000
  N   N27       1.0  0.47050913174992876  0.5789423354366747  0.5041251142496221  1.0000
  C   C297      1.0  0.4528083232974146  0.5654598583807904  0.4748149016074053  1.0000
  C   C298      1.0  0.5129971894254425  0.5774116718823495  0.4971632443326974  1.0000
  C   C299      1.0  0.4578281310552174  0.5535847521702599  0.5339230410132917  1.0000
  C   C300      1.0  0.4583949678924669  0.6191525030420065  0.51055619410304  1.0000
  H   H441      1.0  0.4615864032949799  0.535238622711075  0.4691602854104101  1.0000
  H   H442      1.0  0.46138106235496523  0.5841076882462823  0.45191253385108104  1.0000
  H   H443      1.0  0.42071660998721183  0.5658742601448313  0.47929873577675025  1.0000
  H   H444      1.0  0.5273539268435348  0.5874626134073766  0.518706992648724  1.0000
  H   H445      1.0  0.5229349027045722  0.5473178812582292  0.49226732426626707  1.0000
  H   H446      1.0  0.5235553068347792  0.5961095140840155  0.4747343679770865  1.0000
  H   H447      1.0  0.4700214939876705  0.5631757968506739  0.5566950280298901  1.0000
  H   H448      1.0  0.46679416529290946  0.5230702312034499  0.5300619279533371  1.0000
  H   H449      1.0  0.4258706986312123  0.5534641441259492  0.539524365025278  1.0000
  H   H450      1.0  0.4667078443472745  0.6390632186833586  0.4883766207898114  1.0000
  H   H451      1.0  0.4714884095357089  0.6305352838092877  0.5322697140120157  1.0000
  H   H452      1.0  0.4265316246279791  0.6211037545437369  0.5163535126641674  1.0000
  N   N28       1.0  0.30399939140357096  0.4566926357845174  0.6591679605857447  1.0000
  C   C301      1.0  0.28690641298097375  0.4318228141976164  0.6878819885792453  1.0000
  C   C302      1.0  0.28192535774338606  0.45205881907042067  0.6301177637697922  1.0000
  C   C303      1.0  0.34455846319006855  0.4453383041429776  0.6500425695615596  1.0000
  C   C304      1.0  0.3025926253768305  0.4975354891536765  0.6686380954611328  1.0000
  H   H453      1.0  0.3026893304056939  0.4346204695394255  0.7103361555262778  1.0000
  H   H454      1.0  0.2878694618778125  0.40088066885584217  0.681716287131043  1.0000
  H   H455      1.0  0.25607704608152626  0.4389721365832983  0.6951363084174083  1.0000
  H   H456      1.0  0.25109851781448833  0.4599942036286588  0.6360764890796203  1.0000
  H   H457      1.0  0.29391727595347733  0.47070734918394297  0.6080778844231352  1.0000
  H   H458      1.0  0.2827432623934357  0.42165311784424897  0.6220695714290654  1.0000
  H   H459      1.0  0.3620566170759636  0.4477859994044692  0.6714465810658177  1.0000
  H   H460      1.0  0.35847410256576867  0.4638779576844122  0.6287443190173223  1.0000
  H   H461      1.0  0.34663840051005945  0.4149066867084411  0.6421144978444212  1.0000
  H   H462      1.0  0.31504341284927034  0.5172017393476355  0.647493480602408  1.0000
  H   H463      1.0  0.319271572923592  0.5021524550688896  0.690264828221901  1.0000
  H   H464      1.0  0.27239850520697  0.5070115417998508  0.6756584483735723  1.0000
  N   N29       1.0  0.8402411549427056  0.6620713446177884  0.5215695234059184  1.0000
  C   C305      1.0  0.8423469103449625  0.6277039607691329  0.5445356676374139  1.0000
  C   C306      1.0  0.8018975143376099  0.6633256518193476  0.5091949122542359  1.0000
  C   C307      1.0  0.8702601499095944  0.6598099836187392  0.49272214744764997  1.0000
  C   C308      1.0  0.84614661277816  0.6974954414198217  0.5397745312324426  1.0000
  H   H465      1.0  0.8710633239559001  0.6253545582459271  0.554089864688148  1.0000
  H   H466      1.0  0.8368964349030986  0.6004678599621381  0.5318962489108383  1.0000
  H   H467      1.0  0.8202305580667675  0.6290061069124397  0.5667611528794717  1.0000
  H   H468      1.0  0.7992246085429277  0.6885080978990766  0.49142077701736053  1.0000
  H   H469      1.0  0.7961137640618049  0.6368343136023266  0.4957419204490336  1.0000
  H   H470      1.0  0.778710166737785  0.6658059113982531  0.5302990012310526  1.0000
  H   H471      1.0  0.8691070728696618  0.6854621129514491  0.47503330103515085  1.0000
  H   H472      1.0  0.8663620455861268  0.6335051629049522  0.47835197552425607  1.0000
  H   H473      1.0  0.8996799448701054  0.6587546710683211  0.5010310404913187  1.0000
  H   H474      1.0  0.8426968414178309  0.7241134275796483  0.5236819906040744  1.0000
  H   H475      1.0  0.875376577826064  0.6983890736907105  0.5483946296489276  1.0000
  H   H476      1.0  0.824804464368657  0.6992642931336134  0.5624256019584568  1.0000
  N   N30       1.0  0.8097126417556085  0.9720018652460423  0.4010093959549762  1.0000
  C   C309      1.0  0.7883181158059038  0.9959613654854779  0.42633149868705983  1.0000
  C   C310      1.0  0.8129183894701087  0.9320442728538256  0.41508829582819395  1.0000
  C   C311      1.0  0.8487167654474878  0.9885742710903392  0.3915566606200541  1.0000
  C   C312      1.0  0.788785104779644  0.9714415767862182  0.37093482834278085  1.0000
  H   H477      1.0  0.7586781982888908  0.9843011104129591  0.4337871669968552  1.0000
  H   H478      1.0  0.7854932103366397  0.02631038491867188  0.4164620736498346  1.0000
  H   H479      1.0  0.8032125871959076  0.9968662637482016  0.4494705366221934  1.0000
  H   H480      1.0  0.8285711899963714  0.931090746341542  0.43783581399931926  1.0000
  H   H481      1.0  0.7839719001324306  0.9185052111377252  0.42212299291571925  1.0000
  H   H482      1.0  0.8286469975521881  0.9131018003431021  0.3965169279872478  1.0000
  H   H483      1.0  0.8653048245535957  0.9900656485045474  0.4136318931108958  1.0000
  H   H484      1.0  0.8474146283490838  0.018328920570260143  0.37990728480115843  1.0000
  H   H485      1.0  0.8658351229161432  0.9709359392913665  0.3727631016781629  1.0000
  H   H486      1.0  0.8044250288742334  0.9538565131763139  0.35136796960316846  1.0000
  H   H487      1.0  0.785500718571338  0.0010493347945357279  0.3596439943360636  1.0000
  H   H488      1.0  0.759512796393564  0.9582758231916769  0.37680833600173824  1.0000
  N   N31       1.0  0.14369355025139993  0.8537275001002197  0.4069085809262205  1.0000
  C   C313      1.0  0.11841793317508073  0.8840526186260583  0.39427796401645354  1.0000
  C   C314      1.0  0.16339083580821226  0.8334038189549752  0.3782741494005528  1.0000
  C   C315      1.0  0.12023915253745456  0.8256830001815512  0.42937355403671307  1.0000
  C   C316      1.0  0.17281222793142154  0.8717553417410479  0.42560166357768003  1.0000
  H   H489      1.0  0.10258250459541066  0.8997609945801811  0.415109857686244  1.0000
  H   H490      1.0  0.09661182390913367  0.8717467170136268  0.3792663848203969  1.0000
  H   H491      1.0  0.13533705721412673  0.9059855351477762  0.37758355148178574  1.0000
  H   H492      1.0  0.1827853116288452  0.8102379601470195  0.38673296383763156  1.0000
  H   H493      1.0  0.1424256368100594  0.819942321844455  0.36315800304756257  1.0000
  H   H494      1.0  0.1816950056293263  0.8536240738984098  0.3611014129771017  1.0000
  H   H495      1.0  0.13857101800053423  0.8024470322536538  0.4393029615773389  1.0000
  H   H496      1.0  0.0980434536037361  0.8115525780312413  0.4159390018170924  1.0000
  H   H497      1.0  0.10489571892601213  0.8400211948758893  0.4512776281921443  1.0000
  H   H498      1.0  0.1932810243257515  0.8498959550760504  0.43457010017448094  1.0000
  H   H499      1.0  0.15914229689711917  0.8865984624323147  0.44790254597890894  1.0000
  H   H500      1.0  0.19031400526471667  0.8938071618914214  0.40952505679242573  1.0000
  N   N32       1.0  0.4096267680934308  0.8991348146423767  0.446981357184374  1.0000
  C   C317      1.0  0.3912880100673115  0.901576412233736  0.4818237469414905  1.0000
  C   C318      1.0  0.44363367701186085  0.8735467855021427  0.4465807981069053  1.0000
  C   C319      1.0  0.42190851431713744  0.9382205729980977  0.43366834391937514  1.0000
  C   C320      1.0  0.3815869457932267  0.8832670477507522  0.4259508548861858  1.0000
  H   H501      1.0  0.3653116724960708  0.920419295257273  0.48323014768473627  1.0000
  H   H502      1.0  0.4116703825647194  0.9127371404058069  0.4987110821336887  1.0000
  H   H503      1.0  0.3814472506163204  0.8726729481325781  0.49239546918984833  1.0000
  H   H504      1.0  0.45838208540172676  0.8710149637272266  0.4207539831824726  1.0000
  H   H505      1.0  0.4650997693547283  0.8842968142672811  0.46269193135772474  1.0000
  H   H506      1.0  0.4353841592581737  0.843810657714911  0.45654613472532685  1.0000
  H   H507      1.0  0.44301043945116003  0.9510254453780153  0.44905072792776296  1.0000
  H   H508      1.0  0.39683961375739063  0.9581916423746601  0.4337301960257834  1.0000
  H   H509      1.0  0.435804978795048  0.9375101918192326  0.40735814894571926  1.0000
  H   H510      1.0  0.3713962277538822  0.8538989635491694  0.43546038300912476  1.0000
  H   H511      1.0  0.39425744433802007  0.8808691129770815  0.39944848868407057  1.0000
  H   H512      1.0  0.35545091041249266  0.9017676287790214  0.42594459148354596  1.0000
