data_image0
_chemical_formula_structural       FeS2FeS2FeSFeS3FeS2FeS2FeSFeS3FeS2FeS2FeSFeS3FeS2FeS2FeSFeS3FeS2FeS2FeSFeS3FeS2FeS2FeSFeS3FeS2FeS2FeSFeS3FeS2FeS2FeSFeS3FeS2FeS2FeSFeS3FeS2FeS2FeSFeS3FeS2FeS2FeSFeS3FeS2FeS2FeSFeS3FeS2FeS2FeSFeS3FeS2FeS2FeSFeS3FeS2FeS2FeSFeS3FeS2FeS2FeSFeS3FeS2FeS2FeSFeS3FeS2FeS2FeSFeS3FeS2FeS2FeSFeS3FeS2FeS2FeSFeS3FeS2FeS2FeSFeS3FeS2FeS2FeSFeS3FeS2FeS2FeSFeS3FeS2FeS2FeSFeS3FeS2FeS2FeSFeS3FeS2FeS2FeSFeS3FeS2FeS2FeSFeS3FeS2FeS2FeSFeS3FeS2FeS2FeSFeS3FeS2FeS2FeSFeS3FeS2FeS2FeSFeS3FeS2FeS2FeSFeS3C6H4C6H4C6H4C6H4C6H4C6H4C6H4C6H4C6H4C6H4C6H4C6H4C6H4C6H4C6H4C6H4C6H4C6H4C6H4C6H4C6H4C6H4C6H4C6H4C6H4C6H4C6H4C6H4C6H4C6H4C6H4C6H4C6H4C6H4C6H4C6H4C6H4C6H4C6H4C6H4C6H4C6H4C6H4C6H4C6H4C6H4C6H4C6H4C6H4C6H4C6H4C6H4C6H4C6H4C6H4C6H4C6H4C6H4C6H4C6H4C6H4C6H4C6H4C6H4NC4H12NC4H12NC4H12NC4H12NC4H12NC4H12NC4H12NC4H12NC4H12NC4H12NC4H12NC4H12NC4H12NC4H12NC4H12NC4H12NC4H12NC4H12NC4H12NC4H12NC4H12NC4H12NC4H12NC4H12NC4H12NC4H12NC4H12NC4H12NC4H12NC4H12NC4H12NC4H12NC4H12NC4H12NC4H12NC4H12NC4H12NC4H12NC4H12NC4H12NC4H12NC4H12NC4H12NC4H12NC4H12NC4H12NC4H12NC4H12NC4H12NC4H12NC4H12NC4H12NC4H12NC4H12NC4H12NC4H12NC4H12NC4H12NC4H12NC4H12NC4H12NC4H12NC4H12NC4H12
_chemical_formula_sum              "Fe128 S256 C640 H1024 N64"
_cell_length_a       68.80509431163267
_cell_length_b       68.91672282419269
_cell_length_c       32.52065042075919
_cell_angle_alpha    79.01928974134249
_cell_angle_beta     77.63452289812862
_cell_angle_gamma    76.42527025487442

_space_group_name_H-M_alt    "P 1"
_space_group_IT_number       1

loop_
  _space_group_symop_operation_xyz
  'x, y, z'

loop_
  _atom_site_type_symbol
  _atom_site_label
  _atom_site_symmetry_multiplicity
  _atom_site_fract_x
  _atom_site_fract_y
  _atom_site_fract_z
  _atom_site_occupancy
  Fe  Fe1       1.0  0.31674071541724536  0.15732348429950543  0.07559704563015604  1.0000
  S   S1        1.0  0.334885911235898  0.14737314546153807  0.12830338309287487  1.0000
  S   S2        1.0  0.3320346876886974  0.15392644446015197  0.008470110524044018  1.0000
  Fe  Fe2       1.0  0.27821343441408397  0.17331359849067096  0.13384392072337883  1.0000
  S   S3        1.0  0.29274650706875216  0.1651941619308032  0.19162836782478726  1.0000
  S   S4        1.0  0.2458071563385139  0.18911149655400616  0.13505393606405197  1.0000
  Fe  Fe3       1.0  0.31895024780514486  0.17693297756353532  0.14949600225435  1.0000
  S   S5        1.0  0.3353086795375753  0.19687837510066886  0.16990276825618572  1.0000
  Fe  Fe4       1.0  0.3071543135617274  0.13637905633823566  0.16550742379910097  1.0000
  S   S6        1.0  0.3083699327630605  0.1081104076564324  0.2125497181220285  1.0000
  S   S7        1.0  0.30308316499719085  0.18801971163317321  0.09387369761935226  1.0000
  S   S8        1.0  0.29039851993221677  0.14340586442231854  0.1108457287998958  1.0000
  Fe  Fe5       1.0  0.3403633704801074  0.13596723567783225  0.38715565131416807  1.0000
  S   S9        1.0  0.32179638517941445  0.13416225194741618  0.4525954170379644  1.0000
  S   S10       1.0  0.3501935707253597  0.16515030402499897  0.3577961956807912  1.0000
  Fe  Fe6       1.0  0.3430421239384894  0.09175717053306906  0.38339354596775793  1.0000
  S   S11       1.0  0.32435773189059236  0.08610089139264597  0.44864464746177474  1.0000
  S   S12       1.0  0.35903940734276146  0.06978877607772231  0.3382155897980107  1.0000
  Fe  Fe7       1.0  0.3046756909357863  0.11603817022086207  0.4285042941931511  1.0000
  S   S13       1.0  0.27084385758509916  0.12693420095386707  0.43611574045525053  1.0000
  Fe  Fe8       1.0  0.34321686882636854  0.10476569508008272  0.46658799609157153  1.0000
  S   S14       1.0  0.3559634710806008  0.09819605086532401  0.5272199030144259  1.0000
  S   S15       1.0  0.32173710086510576  0.12001921804741399  0.3616458907344138  1.0000
  S   S16       1.0  0.36326848263989653  0.10817099633066989  0.4027683314863316  1.0000
  Fe  Fe9       1.0  0.40305195293280055  0.2019888854374211  0.573757712606959  1.0000
  S   S17       1.0  0.4265466810293702  0.19698096172969043  0.5152066405570174  1.0000
  S   S18       1.0  0.37482325936828165  0.22570957802724922  0.5736886727567189  1.0000
  Fe  Fe10      1.0  0.42579944595451735  0.16873783701482062  0.6302174724547789  1.0000
  S   S19       1.0  0.45169682923689897  0.16075092516832035  0.5774563054734709  1.0000
  S   S20       1.0  0.4229794013657233  0.1517101943081709  0.6960948314992235  1.0000
  Fe  Fe11      1.0  0.4487892216257761  0.19420667909619813  0.5582957148216119  1.0000
  S   S21       1.0  0.4762999577520699  0.2084287750832346  0.5404141181820343  1.0000
  Fe  Fe12      1.0  0.4271894596455917  0.16412556881057036  0.5395866456265713  1.0000
  S   S22       1.0  0.4300172780391048  0.14152598040339076  0.4961845738909317  1.0000
  S   S23       1.0  0.4251759651251346  0.2017478561360904  0.6151590168625042  1.0000
  S   S24       1.0  0.40144655449281835  0.16956956853753583  0.5940015075515288  1.0000
  Fe  Fe13      1.0  0.39536817821104386  0.2628147848656152  0.852892130278444  1.0000
  S   S25       1.0  0.4058867424831013  0.24847941695329476  0.7937169998718613  1.0000
  S   S26       1.0  0.41318657485642174  0.28166058511608333  0.8731597684659713  1.0000
  Fe  Fe14      1.0  0.35630927194178275  0.24671257871080637  0.8749445008928592  1.0000
  S   S27       1.0  0.36366187179276516  0.23128486638324305  0.8172777505627653  1.0000
  S   S28       1.0  0.32737272237836956  0.24362853891843408  0.9200383914628059  1.0000
  Fe  Fe15      1.0  0.39472812094583504  0.22187991260572118  0.8343194877553675  1.0000
  S   S29       1.0  0.41315986957635237  0.19063227781219044  0.833227637552494  1.0000
  Fe  Fe16      1.0  0.37388318163704387  0.2595508863282036  0.7833802260651727  1.0000
  S   S30       1.0  0.36769195436811475  0.27666656020430724  0.720328794934033  1.0000
  S   S31       1.0  0.38674154036020614  0.23519796924856043  0.8946103400950657  1.0000
  S   S32       1.0  0.36386452841232325  0.27600719637842974  0.8398365810229705  1.0000
  Fe  Fe17      1.0  0.5577966506313681  0.15992927939952928  0.6943334022801783  1.0000
  S   S33       1.0  0.5573769711040811  0.1723568551466019  0.7530147347267951  1.0000
  S   S34       1.0  0.5784782562683705  0.1700034266403685  0.6352097051649247  1.0000
  Fe  Fe18      1.0  0.5284089152968785  0.13340495187303267  0.7389174583999351  1.0000
  S   S35       1.0  0.5255167243284871  0.14297876777026083  0.8025670906996768  1.0000
  S   S36       1.0  0.510714506180068  0.11105405944092024  0.7324051678793347  1.0000
  Fe  Fe19      1.0  0.5239280247992315  0.17392974864129185  0.7651711382553713  1.0000
  S   S37       1.0  0.5033675154818903  0.20115187735799006  0.7896986143436853  1.0000
  Fe  Fe20      1.0  0.5591793697136105  0.14045868273457246  0.785259928151981  1.0000
  S   S38       1.0  0.5810645212767839  0.13135462023082886  0.830597509128253  1.0000
  S   S39       1.0  0.5239085852742906  0.16481177266838049  0.7026642150285416  1.0000
  S   S40       1.0  0.5625239930680144  0.12768339126458578  0.7251683508961605  1.0000
  Fe  Fe21      1.0  0.6381918476317214  0.2095171658794055  0.8223154990652928  1.0000
  S   S41       1.0  0.6074724538607384  0.21887772341577744  0.8043903693987765  1.0000
  S   S42       1.0  0.6571803925961084  0.18236825734838577  0.7950063049078261  1.0000
  Fe  Fe22      1.0  0.6303323725385837  0.24347787972676255  0.873357939029133  1.0000
  S   S43       1.0  0.5986149720103326  0.25544683867409046  0.8607639418874553  1.0000
  S   S44       1.0  0.6445623803998347  0.26023194666019667  0.907366026048503  1.0000
  Fe  Fe23      1.0  0.5963061194935841  0.22303711751822064  0.87242470422016  1.0000
  S   S45       1.0  0.5669137716913074  0.2131822954594677  0.9007337162270141  1.0000
  Fe  Fe24      1.0  0.6126645640394837  0.2503221315437554  0.7940519889884804  1.0000
  S   S46       1.0  0.600813814529061  0.273599080586216  0.7423280228125404  1.0000
  S   S47       1.0  0.6268736537129171  0.211162124747291  0.891830137379937  1.0000
  S   S48       1.0  0.6446648573658852  0.24063432057669282  0.8054913953299453  1.0000
  Fe  Fe25      1.0  0.5071212581310566  0.3244516788395416  0.6381161636327364  1.0000
  S   S49       1.0  0.5067340159872431  0.30579094981855687  0.5889919690299117  1.0000
  S   S50       1.0  0.5082703154069083  0.3572689031237669  0.6262754618496106  1.0000
  Fe  Fe26      1.0  0.5047973587022263  0.28985348107115816  0.7106653746937726  1.0000
  S   S51       1.0  0.5038793397231289  0.26791604607670605  0.6688608136806503  1.0000
  S   S52       1.0  0.5038896910557797  0.2811656951167338  0.7811109159905679  1.0000
  Fe  Fe27      1.0  0.5281772060157321  0.2818686469597184  0.6237865780641714  1.0000
  S   S53       1.0  0.5563268297258082  0.2645462838941266  0.5874780879934872  1.0000
  Fe  Fe28      1.0  0.48258261492269944  0.293452544535692  0.6376993461108847  1.0000
  S   S54       1.0  0.4544760765847922  0.2879656988759468  0.6211993106824296  1.0000
  S   S55       1.0  0.5309211295494843  0.30189293517230353  0.6682823273748787  1.0000
  S   S56       1.0  0.4809814265245304  0.31419710913978927  0.684265445825941  1.0000
  Fe  Fe29      1.0  0.5584837066866235  0.44241816752398594  0.745555099327519  1.0000
  S   S57       1.0  0.5430785206004128  0.4283523857839107  0.7087978180778938  1.0000
  S   S58       1.0  0.5432883668131826  0.4451343414303053  0.8127352291436167  1.0000
  Fe  Fe30      1.0  0.5896015163845459  0.45305258517496316  0.6691323135535839  1.0000
  S   S59       1.0  0.5769882800864913  0.43977005978917255  0.6252085233821885  1.0000
  S   S60       1.0  0.6148291532192196  0.46995721413445074  0.6443812470305521  1.0000
  Fe  Fe31      1.0  0.5467905395686087  0.45471200351852237  0.6584301953468494  1.0000
  S   S61       1.0  0.5196487126519125  0.4704756239606637  0.6292262247592716  1.0000
  Fe  Fe32      1.0  0.5745726599302234  0.4143489773807516  0.6794072572430744  1.0000
  S   S62       1.0  0.5838248524366864  0.382352403956572  0.6649739753784294  1.0000
  S   S63       1.0  0.5594317063535371  0.4703196834054847  0.6974907313852353  1.0000
  S   S64       1.0  0.589980075148863  0.4262829393267834  0.7208235358701635  1.0000
  Fe  Fe33      1.0  0.7557338364943482  0.5241277117164456  0.8242180470575474  1.0000
  S   S65       1.0  0.7548641978024548  0.5357251807939787  0.8845580855833471  1.0000
  S   S66       1.0  0.7523911169296114  0.5458797879558391  0.7638816649199431  1.0000
  Fe  Fe34      1.0  0.7583514319676977  0.48076410958154064  0.866894986735572  1.0000
  S   S67       1.0  0.7587089225786968  0.48828526092224717  0.9307403737187353  1.0000
  S   S68       1.0  0.7604202590419398  0.44837185104289273  0.8602745494854237  1.0000
  Fe  Fe35      1.0  0.7339096768280322  0.5144656040343383  0.9152170057993414  1.0000
  S   S69       1.0  0.7056264329347297  0.5179154215364219  0.9650493096823016  1.0000
  Fe  Fe36      1.0  0.7796049375909337  0.5087055753670342  0.8954706461524174  1.0000
  S   S70       1.0  0.8066095748829646  0.512413784220595  0.9192331087899778  1.0000
  S   S71       1.0  0.7320451275888107  0.5057026586877207  0.8535766083453756  1.0000
  S   S72       1.0  0.7821220296458863  0.4984378184536493  0.8326850113897568  1.0000
  Fe  Fe37      1.0  0.6881382704060828  0.39179105715773804  0.8212897635366788  1.0000
  S   S73       1.0  0.6704070422140014  0.39161760362892445  0.771227395644303  1.0000
  S   S74       1.0  0.6806512545077565  0.4197339738463246  0.852305976938422  1.0000
  Fe  Fe38      1.0  0.7162553027931347  0.3525125203043701  0.8039560381853165  1.0000
  S   S75       1.0  0.7016189653779215  0.34941122174605843  0.7507343082836173  1.0000
  S   S76       1.0  0.7439464527359211  0.33024615582487604  0.820650899410405  1.0000
  Fe  Fe39      1.0  0.7006636444064627  0.3825759715133131  0.7309620411886387  1.0000
  S   S77       1.0  0.7042892125795428  0.40090598798212257  0.6658856647838626  1.0000
  Fe  Fe40      1.0  0.6726575071202391  0.3587707382445526  0.7953648687599768  1.0000
  S   S78       1.0  0.646835579787907  0.3447325400393308  0.7923146823412556  1.0000
  S   S79       1.0  0.7184131524067329  0.3847663199991364  0.7792193223495054  1.0000
  S   S80       1.0  0.6872431783565931  0.35962826086729577  0.8504594724142991  1.0000
  Fe  Fe41      1.0  0.615522788007141  0.5566928727537888  0.7477095369196656  1.0000
  S   S81       1.0  0.6366948760449469  0.567292685109601  0.6894021628601887  1.0000
  S   S82       1.0  0.6150865170076858  0.5248708985106822  0.7786355016333804  1.0000
  Fe  Fe42      1.0  0.5922972793010453  0.5991042903464132  0.7595135558853995  1.0000
  S   S83       1.0  0.6108546736604199  0.6133862710408015  0.7016868652230912  1.0000
  S   S84       1.0  0.5702821815185041  0.6201621306978614  0.800678723289834  1.0000
  Fe  Fe43      1.0  0.6083102853797923  0.5878108621687089  0.6714076891943502  1.0000
  S   S85       1.0  0.6007735517792592  0.5917643745503958  0.6065969179214686  1.0000
  Fe  Fe44      1.0  0.6371632710954288  0.591779429311189  0.7255248953200996  1.0000
  S   S86       1.0  0.6643445679857789  0.6040480802257236  0.7269842889476774  1.0000
  S   S87       1.0  0.5870780346002091  0.5753538021741863  0.7269396607945753  1.0000
  S   S88       1.0  0.618811727758946  0.579059719468524  0.7859166879153535  1.0000
  Fe  Fe45      1.0  0.7091065160796503  0.6298047051938068  0.8920865618181859  1.0000
  S   S89       1.0  0.6942937948852965  0.6623333853345269  0.877258314431538  1.0000
  S   S90       1.0  0.7345675877281971  0.6116292233060767  0.8511670237401051  1.0000
  Fe  Fe46      1.0  0.6824780105547621  0.6242412711584944  0.9786710057420058  1.0000
  S   S91       1.0  0.6647902674442032  0.6560749670618977  0.9717513693180752  1.0000
  S   S92       1.0  0.6769592641747186  0.6009734910562258  0.03562180004153048  1.0000
  Fe  Fe47      1.0  0.6652851854246622  0.6515654709853944  0.9049781973126312  1.0000
  S   S93       1.0  0.638633804055705  0.6590578604658814  0.8715117741924976  1.0000
  Fe  Fe48      1.0  0.6953537255164942  0.663886486459003  0.9449044685269502  1.0000
  S   S94       1.0  0.7041858955118495  0.6906195698388007  0.9602621962273551  1.0000
  S   S95       1.0  0.6800594668276517  0.6188527281920385  0.9145438013996317  1.0000
  S   S96       1.0  0.7130088904723454  0.6322951175597019  0.957155738870779  1.0000
  Fe  Fe49      1.0  0.47744845139640735  0.6064263987868823  0.4969683105458719  1.0000
  S   S97       1.0  0.46325217636687477  0.6076298171331288  0.5655234137780867  1.0000
  S   S98       1.0  0.4683561999771292  0.6291028173134187  0.44170536984738507  1.0000
  Fe  Fe50      1.0  0.5092997269054769  0.5693969042292076  0.5175453280065692  1.0000
  S   S99       1.0  0.4978935586209271  0.5671497290155243  0.5877391977066851  1.0000
  S   S100      1.0  0.5364248667911327  0.5463916075252663  0.4954149627083275  1.0000
  Fe  Fe51      1.0  0.467174354232008  0.5741707748227431  0.5693290042835958  1.0000
  S   S101      1.0  0.4430587881629956  0.556844551487131  0.6011032883523882  1.0000
  Fe  Fe52      1.0  0.4953737066555624  0.6006039734466331  0.5767933864118568  1.0000
  S   S102      1.0  0.5055021997177593  0.6150650308141763  0.622589182225232  1.0000
  S   S103      1.0  0.4787685015380549  0.5734366995046469  0.49986244114388356  1.0000
  S   S104      1.0  0.5092524929291802  0.6023855887644194  0.5077717392818396  1.0000
  Fe  Fe53      1.0  0.45722092585823065  0.5612630171123142  0.8212620892361586  1.0000
  S   S105      1.0  0.4476121989882827  0.5883762581736267  0.8549062526904684  1.0000
  S   S106      1.0  0.4349412113479092  0.5480747341152328  0.7997978903890252  1.0000
  Fe  Fe54      1.0  0.501132882168147  0.5545489024699897  0.8296005779135129  1.0000
  S   S107      1.0  0.49575748263355096  0.5809276266309062  0.8642623575349563  1.0000
  S   S108      1.0  0.5327212908778243  0.5382108270710848  0.8067761581175198  1.0000
  Fe  Fe55      1.0  0.46776511215387506  0.5701086541226236  0.9001856179460426  1.0000
  S   S109      1.0  0.46064664310813763  0.5715221653230899  0.9701723668171427  1.0000
  Fe  Fe56      1.0  0.4761353975226245  0.5970740093431716  0.8166695365134096  1.0000
  S   S110      1.0  0.47807662197007383  0.6293612938032245  0.7929390913151418  1.0000
  S   S111      1.0  0.4748761135967904  0.5420123104888437  0.8700987687974304  1.0000
  S   S112      1.0  0.48416649562132447  0.5716567706127347  0.7783063942227363  1.0000
  Fe  Fe57      1.0  0.3848064241516467  0.6588016906770385  0.036714188782048574  1.0000
  S   S113      1.0  0.37597779483288046  0.6591488970344528  0.10725201972526  1.0000
  S   S114      1.0  0.37949875371027614  0.6355641885953812  0.002973926660431614  1.0000
  Fe  Fe58      1.0  0.4025271538869286  0.6962579792286876  0.019183161883901345  1.0000
  S   S115      1.0  0.39593587901076455  0.6995332029994672  0.0877537426673991  1.0000
  S   S116      1.0  0.41738350377464434  0.717624549547202  0.9679041766555663  1.0000
  Fe  Fe59      1.0  0.40679939052513886  0.6662627068949599  0.1006457548911226  1.0000
  S   S117      1.0  0.42682585505905124  0.6558441091900753  0.14981314734527285  1.0000
  Fe  Fe60      1.0  0.36590384720235  0.692399472249666  0.08843044500868302  1.0000
  S   S118      1.0  0.3406664091062022  0.7137224697840611  0.12214230928465164  1.0000
  S   S119      1.0  0.4164997414968914  0.6634349376161178  0.03161607024602575  1.0000
  S   S120      1.0  0.3715553679837019  0.6915965837467318  0.01833895742808811  1.0000
  Fe  Fe61      1.0  0.37176411680213806  0.6982419552773663  0.42743906410439586  1.0000
  S   S121      1.0  0.34381984673071814  0.6937051358055674  0.4086418496030644  1.0000
  S   S122      1.0  0.3811302293374887  0.6823729116160318  0.4892178854627326  1.0000
  Fe  Fe62      1.0  0.38523610553636306  0.7223332705738231  0.3423419570557893  1.0000
  S   S123      1.0  0.35874947454090356  0.7199038412978321  0.3150294460200369  1.0000
  S   S124      1.0  0.4126261856522352  0.735082475860518  0.3089821536143903  1.0000
  Fe  Fe63      1.0  0.34061359157656185  0.7261165412526995  0.37894228086698045  1.0000
  S   S125      1.0  0.3107413891725031  0.7478117035816126  0.37871856118561675  1.0000
  Fe  Fe64      1.0  0.3639662683544435  0.6877883935560432  0.34681735757428567  1.0000
  S   S126      1.0  0.3616144611359288  0.6619458624421529  0.3169064958757388  1.0000
  S   S127      1.0  0.36671537720148084  0.7315057088800483  0.4037543915384145  1.0000
  S   S128      1.0  0.39217217977113256  0.6894238158661093  0.3678844110342183  1.0000
  Fe  Fe65      1.0  0.9154156882856067  0.1549322496567584  0.09618522317721083  1.0000
  S   S129      1.0  0.9065247050042596  0.15347784008746465  0.1665052579865493  1.0000
  S   S130      1.0  0.9453895482235036  0.1373406074015118  0.0673098512032399  1.0000
  Fe  Fe66      1.0  0.8761892907247228  0.18377292792492755  0.08022050262859669  1.0000
  S   S131      1.0  0.8640686515315292  0.18495949851076404  0.14988173140651764  1.0000
  S   S132      1.0  0.858319185143324  0.2037045380685209  0.03192616579597926  1.0000
  Fe  Fe67      1.0  0.8957382008677084  0.18678293849263075  0.15277346965204058  1.0000
  S   S133      1.0  0.905023512159326  0.20412112785978062  0.19404819882425256  1.0000
  Fe  Fe68      1.0  0.8759395987644456  0.15161746586172173  0.1570612354160976  1.0000
  S   S134      1.0  0.8612602671072881  0.13007080659644174  0.2073710098029826  1.0000
  S   S135      1.0  0.9071133469017081  0.1886480699748978  0.08268256234965675  1.0000
  S   S136      1.0  0.8856141408537593  0.149929721677159  0.08728602704944263  1.0000
  Fe  Fe69      1.0  0.8484746474444887  0.144886760677765  0.43215816522627376  1.0000
  S   S137      1.0  0.8606469967460652  0.14226558702901826  0.49223523314564227  1.0000
  S   S138      1.0  0.8445932575273262  0.11968420273084313  0.40188480403708604  1.0000
  Fe  Fe70      1.0  0.8488504108335315  0.18945970260204767  0.40825633160491304  1.0000
  S   S139      1.0  0.8620945477823143  0.19086296430604552  0.46459922019331057  1.0000
  S   S140      1.0  0.8384428052825997  0.21470832366463277  0.3584518379963936  1.0000
  Fe  Fe71      1.0  0.8820864771545145  0.16103377100459226  0.4512293362427643  1.0000
  S   S141      1.0  0.9155071859767221  0.14961831837515885  0.45041798559397206  1.0000
  Fe  Fe72      1.0  0.8395265900069844  0.17202191433973396  0.500652941385297  1.0000
  S   S142      1.0  0.8217781686924254  0.18059862526235212  0.5636140435299717  1.0000
  S   S143      1.0  0.8712076541730754  0.16182686880078181  0.3908493242992359  1.0000
  S   S144      1.0  0.8249900158524156  0.17266380047763671  0.4446325160305151  1.0000
  Fe  Fe73      1.0  0.785674205230095  0.1837706885606531  0.9075181621208209  1.0000
  S   S145      1.0  0.7939831142224004  0.17360617155012234  0.8433814043621429  1.0000
  S   S146      1.0  0.8014244436637284  0.16426667412899115  0.9591274621614672  1.0000
  Fe  Fe74      1.0  0.7529983306194503  0.21849519138784465  0.8808779407131058  1.0000
  S   S147      1.0  0.7579658317107022  0.21135534868617634  0.8146341941240833  1.0000
  S   S148      1.0  0.7271565559552937  0.2434483059806302  0.9007781532841963  1.0000
  Fe  Fe75      1.0  0.7604748742182027  0.17930517477790633  0.8454500938393525  1.0000
  S   S149      1.0  0.7485809230072168  0.1575306910125171  0.8195453430647343  1.0000
  Fe  Fe76      1.0  0.7910184213472119  0.20634719804611795  0.8177342869324075  1.0000
  S   S150      1.0  0.8108939722805103  0.21689364839926423  0.7575655971378921  1.0000
  S   S151      1.0  0.7521954968591659  0.18658293013049274  0.9118330867425614  1.0000
  S   S152      1.0  0.7859998298730682  0.21638625758728297  0.8816015885352956  1.0000
  Fe  Fe77      1.0  0.7348820136880202  0.28861676554015825  0.6326745347246768  1.0000
  S   S153      1.0  0.7161754369917622  0.2693187904709409  0.6166129800140102  1.0000
  S   S154      1.0  0.7442332755165529  0.2885549618905576  0.6941554189521242  1.0000
  Fe  Fe78      1.0  0.7347064866194085  0.31718004526899946  0.5509622250485212  1.0000
  S   S155      1.0  0.7167767157371177  0.3006629729076506  0.524940972359271  1.0000
  S   S156      1.0  0.7432206787983342  0.3468565266770431  0.5217326940358796  1.0000
  Fe  Fe79      1.0  0.6975225664805138  0.29848070876547583  0.5898841260929402  1.0000
  S   S157      1.0  0.6638600053460664  0.30947579753399773  0.5936365350368601  1.0000
  Fe  Fe80      1.0  0.7366281488647743  0.2727055916228619  0.5528269878515945  1.0000
  S   S158      1.0  0.7471422469351987  0.24685380587273908  0.5156271672303928  1.0000
  S   S159      1.0  0.7137605509275453  0.31723599724779145  0.6136049951624775  1.0000
  S   S160      1.0  0.7569588092689713  0.2895037923105513  0.5714162126001366  1.0000
  Fe  Fe81      1.0  0.29802002789163745  0.9859842582328266  0.2057350153281236  1.0000
  S   S161      1.0  0.3106604545536262  0.964494593093948  0.2588692873421199  1.0000
  S   S162      1.0  0.2655210709674524  0.9883267537099765  0.20091589065114052  1.0000
  Fe  Fe82      1.0  0.33595903836904145  0.003660685244723139  0.1765082619413146  1.0000
  S   S163      1.0  0.35203079203440807  0.9837185554804675  0.2273019303345478  1.0000
  S   S164      1.0  0.34796744999507995  0.028753633473106575  0.13100081404194888  1.0000
  Fe  Fe83      1.0  0.33939992372447964  0.9594974446438765  0.21096915039814312  1.0000
  S   S165      1.0  0.35743795161491815  0.9277767739794364  0.21192211136261346  1.0000
  Fe  Fe84      1.0  0.3219301663193034  0.9905120312042233  0.2704277223047822  1.0000
  S   S166      1.0  0.3166171813840241  0.9984253504409799  0.3363961373619142  1.0000
  S   S167      1.0  0.3257471637195324  0.9788153183860052  0.15617212485576273  1.0000
  S   S168      1.0  0.3069370882745785  0.012436222243639057  0.22110783556867677  1.0000
  Fe  Fe85      1.0  0.38348422625183365  0.8207081766349845  0.1528272611432779  1.0000
  S   S169      1.0  0.38051293301246414  0.8416472318776768  0.09184351474353658  1.0000
  S   S170      1.0  0.4048799123077568  0.8205665463909882  0.195687393616508  1.0000
  Fe  Fe86      1.0  0.35163724136773333  0.799252668284958  0.14502036638751495  1.0000
  S   S171      1.0  0.34492978233309435  0.8184408633650282  0.08368046883912239  1.0000
  S   S172      1.0  0.33884221995710384  0.7729700886284051  0.18168692529228142  1.0000
  Fe  Fe87      1.0  0.37881723187120453  0.8142653569017614  0.06602360962639198  1.0000
  S   S173      1.0  0.3950906826424892  0.8085900352296826  0.000639467319090592  1.0000
  Fe  Fe88      1.0  0.3470749470823168  0.8441001597144722  0.11486256700084875  1.0000
  S   S174      1.0  0.3274975196667124  0.8751702973492738  0.1089676875557062  1.0000
  S   S175      1.0  0.3853448255871379  0.7930216214664093  0.1248641227979983  1.0000
  S   S176      1.0  0.3502127071989987  0.8252054001449518  0.1781037727316584  1.0000
  Fe  Fe89      1.0  0.1867165989988378  0.12671423295825282  0.297075937339341  1.0000
  S   S177      1.0  0.1723394493673189  0.10859572532799411  0.35547191470806644  1.0000
  S   S178      1.0  0.18259927347804697  0.16028960969005077  0.29187512633473944  1.0000
  Fe  Fe90      1.0  0.20440937155509506  0.0900690782951294  0.2514453027360455  1.0000
  S   S179      1.0  0.19140043295158013  0.06889658313873658  0.30582718924603963  1.0000
  S   S180      1.0  0.2246824135761028  0.08089315618339774  0.19137372632719163  1.0000
  Fe  Fe91      1.0  0.16337077809225203  0.09344045436863214  0.30911384997200203  1.0000
  S   S181      1.0  0.1316416448630313  0.08760375560858163  0.3206136674267719  1.0000
  Fe  Fe92      1.0  0.2017066696505529  0.08609816152126126  0.3463916072577277  1.0000
  S   S182      1.0  0.21961698941355767  0.06975076812486837  0.39733508608028334  1.0000
  S   S183      1.0  0.17560224710230798  0.11338330748133242  0.251059242547145  1.0000
  S   S184      1.0  0.21683881509885716  0.10560768809524596  0.2915408588770799  1.0000
  Fe  Fe93      1.0  0.9962967461349936  0.17171524364166402  0.2753319338637844  1.0000
  S   S185      1.0  0.02038238309941274  0.1776533613058727  0.21858338410127703  1.0000
  S   S186      1.0  0.9670109700785885  0.19353487362633395  0.291088216625219  1.0000
  Fe  Fe94      1.0  0.016785642533363367  0.12865482481486046  0.2986075221652779  1.0000
  S   S187      1.0  0.04276295805237518  0.13051984506595946  0.24427925990155214  1.0000
  S   S188      1.0  0.013312931090474276  0.09973621397983012  0.34182521220191936  1.0000
  Fe  Fe95      1.0  0.04198344967735384  0.16048263056016682  0.26193204927004965  1.0000
  S   S189      1.0  0.07220132858687532  0.1676759476286026  0.2606499018272409  1.0000
  Fe  Fe96      1.0  0.01901230110677562  0.14723482565582469  0.20594898615839866  1.0000
  S   S190      1.0  0.022556821343250315  0.1400745993109797  0.14013162173603658  1.0000
  S   S191      1.0  0.018098608266006566  0.15722955471693112  0.32022878232915386  1.0000
  S   S192      1.0  0.9929863965102766  0.14276241200697953  0.2586864053465418  1.0000
  Fe  Fe97      1.0  0.23563009959988163  0.7187491190021722  0.19778760511271073  1.0000
  S   S193      1.0  0.21439356285642963  0.7082869950392492  0.25590052706053945  1.0000
  S   S194      1.0  0.2518842390712836  0.6992872749929925  0.14773083818232857  1.0000
  Fe  Fe98      1.0  0.2327857718008777  0.7592272891368498  0.22510294290208316  1.0000
  S   S195      1.0  0.2112822696431672  0.7526586144009729  0.2859111237593059  1.0000
  S   S196      1.0  0.24359320217518457  0.788455861224247  0.20268245332788662  1.0000
  Fe  Fe99      1.0  0.23138332566885203  0.7218299757207927  0.2911492618969928  1.0000
  S   S197      1.0  0.24444177682429413  0.7050163227440339  0.34836435952370676  1.0000
  Fe  Fe100     1.0  0.19611679399030416  0.7398594194295888  0.2455918332126579  1.0000
  S   S198      1.0  0.16232837249778007  0.7480949042455884  0.2486851808803397  1.0000
  S   S199      1.0  0.2541773411153536  0.7294533120928  0.23402312717601967  1.0000
  S   S200      1.0  0.2159037256189837  0.749126592039401  0.183994089122093  1.0000
  Fe  Fe101     1.0  0.09040932201655057  0.6999111200191294  0.1957851906534744  1.0000
  S   S201      1.0  0.07619700393257851  0.7298753796643834  0.1627992995850076  1.0000
  S   S202      1.0  0.12395346032787616  0.6873248537699606  0.18517615900287754  1.0000
  Fe  Fe102     1.0  0.05144525498946385  0.6937561287695589  0.2544171976030745  1.0000
  S   S203      1.0  0.03360240624733446  0.7229970931074009  0.2270232493399601  1.0000
  S   S204      1.0  0.0349309062422831  0.6754070287525586  0.3089302636457217  1.0000
  Fe  Fe103     1.0  0.05054358990392236  0.71465546356534  0.16411902402759426  1.0000
  S   S205      1.0  0.03205664092802712  0.7230627472245066  0.11198231667745451  1.0000
  Fe  Fe104     1.0  0.06034743843559082  0.7357964648706972  0.2283611434996884  1.0000
  S   S206      1.0  0.053780587473612425  0.7654066486355092  0.2531139103282667  1.0000
  S   S207      1.0  0.06613186139075185  0.6838792058975307  0.19121884223480015  1.0000
  S   S208      1.0  0.07686753215130279  0.7072059815359315  0.2614480424762152  1.0000
  Fe  Fe105     1.0  0.9491886403873093  0.00015770889681987477  0.3031614623015451  1.0000
  S   S209      1.0  0.960560619230515  0.011098089673043043  0.2347069628003938  1.0000
  S   S210      1.0  0.946967786099051  0.9676945707138934  0.32615992123809523  1.0000
  Fe  Fe106     1.0  0.9388937500783715  0.04202347910411519  0.32793176401376806  1.0000
  S   S211      1.0  0.948820363516155  0.056559836566604904  0.26170801095777624  1.0000
  S   S212      1.0  0.9310936404366542  0.062129034738392264  0.37828095541072615  1.0000
  Fe  Fe107     1.0  0.933228666845386  0.03578978841861202  0.24194719568380127  1.0000
  S   S213      1.0  0.9177870640316339  0.04535858026864026  0.18565520487814302  1.0000
  Fe  Fe108     1.0  0.9753395659566738  0.030661295129672306  0.2601978878067971  1.0000
  S   S214      1.0  0.004635153191281796  0.03945664230128898  0.22697735425112148  1.0000
  S   S215      1.0  0.9202809253039527  0.023645916736006356  0.30852769508832606  1.0000
  S   S216      1.0  0.9668211128866186  0.017436522654635134  0.32845442290255544  1.0000
  Fe  Fe109     1.0  0.9531235416827372  0.8541278882166281  0.25605080594000756  1.0000
  S   S217      1.0  0.9284242222581758  0.8788238108879897  0.23333296851775445  1.0000
  S   S218      1.0  0.956197641178185  0.8415241095590729  0.3235426418898464  1.0000
  Fe  Fe110     1.0  0.9753297760659647  0.8476639335994268  0.16745486557463815  1.0000
  S   S219      1.0  0.9531215528121456  0.8720464331128636  0.13590803071762175  1.0000
  S   S220      1.0  0.000663243031041031  0.8272327970699066  0.13092355658806867  1.0000
  Fe  Fe111     1.0  0.9540889338311571  0.8897056006441622  0.18640314335215943  1.0000
  S   S221      1.0  0.9576943540957366  0.9219359812034402  0.1701305724395001  1.0000
  Fe  Fe112     1.0  0.9294941235415013  0.8590571374713142  0.18496259562674616  1.0000
  S   S222      1.0  0.9023943786308818  0.8522276192982179  0.16674150978205973  1.0000
  S   S223      1.0  0.9787854477066118  0.8665987682724976  0.21316794981816567  1.0000
  S   S224      1.0  0.9516579393107026  0.8331710894309569  0.21277754878055039  1.0000
  Fe  Fe113     1.0  0.8225915354146159  0.6458139606235874  0.5835230147486873  1.0000
  S   S225      1.0  0.8417298387628704  0.632257281584572  0.6335617795722268  1.0000
  S   S226      1.0  0.84044873166662  0.6568533244571759  0.5209326893449844  1.0000
  Fe  Fe114     1.0  0.7833067495996812  0.640958059797738  0.6432371558860467  1.0000
  S   S227      1.0  0.799322206657015  0.6274133625992455  0.6982545756571736  1.0000
  S   S228      1.0  0.7491760730821511  0.6467502212906917  0.6569432925554101  1.0000
  Fe  Fe115     1.0  0.8174724941094998  0.6513343260479635  0.6746277973179726  1.0000
  S   S229      1.0  0.8238538354664343  0.6679904975076293  0.7211650961312994  1.0000
  Fe  Fe116     1.0  0.821689262126299  0.6095581371358738  0.651861325402586  1.0000
  S   S230      1.0  0.832574825815869  0.5769464385859342  0.6764033469222819  1.0000
  S   S231      1.0  0.7995727294382621  0.6667104395364696  0.6235940144887513  1.0000
  S   S232      1.0  0.804475367921127  0.621322950809215  0.597770364983082  1.0000
  Fe  Fe117     1.0  0.8453907965267026  0.6145673930705856  0.9231472846869953  1.0000
  S   S233      1.0  0.8477325199977548  0.6428092744038297  0.9444684202009348  1.0000
  S   S234      1.0  0.8627798787623864  0.6041997221019877  0.8621698002640501  1.0000
  Fe  Fe118     1.0  0.8093278606325626  0.6076509970603121  0.9913375549477305  1.0000
  S   S235      1.0  0.8081078740420469  0.6354827293371447  0.018955263825482946  1.0000
  S   S236      1.0  0.7850651967476472  0.5891530352259876  0.013042055591801605  1.0000
  Fe  Fe119     1.0  0.813979786525097  0.6502583789874727  0.9512892987411057  1.0000
  S   S237      1.0  0.7991412851053897  0.6817839787943072  0.9280632114224844  1.0000
  Fe  Fe120     1.0  0.842069391072697  0.6257083518552978  0.010252651914744088  1.0000
  S   S238      1.0  0.8572276054830296  0.6291504045840526  0.06258982184401732  1.0000
  S   S239      1.0  0.811910280959575  0.6235509361916284  0.9243560180164564  1.0000
  S   S240      1.0  0.8429058078233687  0.5963681915283028  0.9884450086227929  1.0000
  Fe  Fe121     1.0  0.9297218568997295  0.7055923982025345  0.13934473840147898  1.0000
  S   S241      1.0  0.931577296976666  0.7211854771148656  0.07222747664540052  1.0000
  S   S242      1.0  0.9561274074199778  0.6812345123694544  0.1559284948547932  1.0000
  Fe  Fe122     1.0  0.8886434472872802  0.7316667840507055  0.16726047237239422  1.0000
  S   S243      1.0  0.8873161501486007  0.7498607712724888  0.10247811484314708  1.0000
  S   S244      1.0  0.8651655045383978  0.7376192383701745  0.22510851626568268  1.0000
  Fe  Fe123     1.0  0.898871975095445  0.7195544209357111  0.08027579907042104  1.0000
  S   S245      1.0  0.8897381580433714  0.7102084318885393  0.02568055528071911  1.0000
  Fe  Fe124     1.0  0.9201471712048218  0.7496281693392208  0.10117155537174702  1.0000
  S   S246      1.0  0.9378908754198526  0.7743260243575779  0.0782551782098536  1.0000
  S   S247      1.0  0.8978854963465179  0.701371170091097  0.1454800815494604  1.0000
  S   S248      1.0  0.9204526302832409  0.7341012283071371  0.1681525852049496  1.0000
  Fe  Fe125     1.0  0.9471215801104824  0.7337605885246159  0.43551850105983336  1.0000
  S   S249      1.0  0.9319624143517785  0.7414430066431323  0.37841322871808164  1.0000
  S   S250      1.0  0.9792509109756216  0.7381960979556786  0.42338922598422946  1.0000
  Fe  Fe126     1.0  0.9094020095096617  0.7240207657232492  0.49508462271792153  1.0000
  S   S251      1.0  0.8908066801039564  0.7314833515534094  0.4433412280572984  1.0000
  S   S252      1.0  0.8933392311612347  0.7123880027019527  0.5590883487736066  1.0000
  Fe  Fe127     1.0  0.9184325840740789  0.7143107605753566  0.4060751434693001  1.0000
  S   S253      1.0  0.916143153514284  0.6922954659073065  0.36579012633133706  1.0000
  Fe  Fe128     1.0  0.9059828877356482  0.75793378995113  0.42110272980208785  1.0000
  S   S254      1.0  0.8901556853229571  0.7881290999153628  0.39233192136869144  1.0000
  S   S255      1.0  0.9361004422704412  0.7047643735751499  0.45932845484605606  1.0000
  S   S256      1.0  0.92198292923124  0.7523030916267044  0.4767649963831959  1.0000
  C   C1        1.0  0.8767481016768122  0.7239536456571027  0.2674529655072884  1.0000
  C   C2        1.0  0.8772139086249154  0.7335888864454058  0.30116919410619974  1.0000
  C   C3        1.0  0.8893580037343083  0.7238771413213642  0.3314968605079521  1.0000
  C   C4        1.0  0.9001718450519074  0.7041138043276908  0.32933304567410054  1.0000
  C   C5        1.0  0.8986593452317708  0.6939870138348856  0.2971278272340042  1.0000
  C   C6        1.0  0.8873512017104873  0.7040924945157884  0.2655497189674942  1.0000
  H   H1        1.0  0.8687869926496229  0.7488020530019565  0.30288823843326246  1.0000
  H   H2        1.0  0.890554785734933  0.731814922609431  0.35610741905554566  1.0000
  H   H3        1.0  0.9067484492765722  0.6785671351951746  0.2957327029677664  1.0000
  H   H4        1.0  0.8868732467280392  0.6965218293704752  0.23967984980643636  1.0000
  C   C7        1.0  0.8673679184157822  0.6510127191406332  0.052452670501433894  1.0000
  C   C8        1.0  0.8749073068617591  0.6590438903065485  0.010869392774531583  1.0000
  C   C9        1.0  0.8817732592424551  0.6772235264045295  0.002958118216113581  1.0000
  C   C10       1.0  0.881486045054554  0.6872551900111804  0.0367036840317192  1.0000
  C   C11       1.0  0.8741686363311094  0.6791321836201745  0.0783799612437192  1.0000
  C   C12       1.0  0.867272547798491  0.6609419311178121  0.08627145906288473  1.0000
  H   H5        1.0  0.8757565846342916  0.6510943893483333  0.9848202332544647  1.0000
  H   H6        1.0  0.8874324675080191  0.6834419914647925  0.9706283860896727  1.0000
  H   H7        1.0  0.8732483227871429  0.6870898598768285  0.10446484493898849  1.0000
  H   H8        1.0  0.8613431546182821  0.6548185938673916  0.11850219442700456  1.0000
  C   C13       1.0  0.8558752948696089  0.6712023741757044  0.5329255009933233  1.0000
  C   C14       1.0  0.874669765018885  0.6727370260123533  0.5071097093237482  1.0000
  C   C15       1.0  0.8861497355667604  0.685503056979764  0.5150085212559071  1.0000
  C   C16       1.0  0.8789301627968676  0.6966146472135585  0.5489465904027938  1.0000
  C   C17       1.0  0.8602443970371563  0.694960762699096  0.5749037899628359  1.0000
  C   C18       1.0  0.8488178452374798  0.6821708331147377  0.5670816100838083  1.0000
  H   H9        1.0  0.8804453987270413  0.6639858042352466  0.481175777199272  1.0000
  H   H10       1.0  0.900711858486877  0.6865181902460499  0.4950936916045516  1.0000
  H   H11       1.0  0.8543752303950775  0.7038864630096598  0.6005393833490548  1.0000
  H   H12       1.0  0.8342359203080351  0.6813783794091468  0.5867715517277367  1.0000
  C   C19       1.0  0.8352465206750583  0.6503262111645471  0.7595430650753812  1.0000
  C   C20       1.0  0.8376733173476594  0.6564742078975212  0.7962974729695957  1.0000
  C   C21       1.0  0.8463650044444014  0.642285960424824  0.8276071660464225  1.0000
  C   C22       1.0  0.8532992863397337  0.6220818290011413  0.8215708970092885  1.0000
  C   C23       1.0  0.8513861079025427  0.6160476436153064  0.7841861626914957  1.0000
  C   C24       1.0  0.8418645493260231  0.6300670501829437  0.7537025515749193  1.0000
  H   H13       1.0  0.8325607768249088  0.6721256812849058  0.8009727560315835  1.0000
  H   H14       1.0  0.8478966414240606  0.6470821339582802  0.8562283259470435  1.0000
  H   H15       1.0  0.8568002759793389  0.6004595975940161  0.7792416414622789  1.0000
  H   H16       1.0  0.8399329598466458  0.6251587667356019  0.7254989638317143  1.0000
  C   C25       1.0  0.9114105123641545  0.8317391890877136  0.13825013965031463  1.0000
  C   C26       1.0  0.8982917883122393  0.8199064383516955  0.13317406248954838  1.0000
  C   C27       1.0  0.9062178282850922  0.802095860398941  0.11486613894390278  1.0000
  C   C28       1.0  0.9271776938953256  0.7964917817712033  0.10076424771869172  1.0000
  C   C29       1.0  0.9400362006020447  0.8086881249176731  0.10489643677689986  1.0000
  C   C30       1.0  0.9322357513545881  0.8261099377852112  0.12379813688845998  1.0000
  H   H17       1.0  0.8821182632641051  0.824291707152492  0.1441425016029848  1.0000
  H   H18       1.0  0.8961484974733829  0.7928456698003792  0.11128537620481826  1.0000
  H   H19       1.0  0.9561407343569969  0.8045906357224321  0.09431812753322205  1.0000
  H   H20       1.0  0.9424696655218149  0.8351714020194138  0.12713780078758888  1.0000
  C   C31       1.0  0.9367489145994308  0.8283420387280708  0.34658176330295637  1.0000
  C   C32       1.0  0.9182707251694024  0.83361224512405  0.33185372680721925  1.0000
  C   C33       1.0  0.9033424006609647  0.8220150533542946  0.34829534252931027  1.0000
  C   C34       1.0  0.9073287485204875  0.8045196732832561  0.3776487976236276  1.0000
  C   C35       1.0  0.9257243650697694  0.7994525477285644  0.3926860517898307  1.0000
  C   C36       1.0  0.940224858383467  0.81162002656047  0.3779325051715246  1.0000
  H   H21       1.0  0.915420788758617  0.8466874894464825  0.3079690189123963  1.0000
  H   H22       1.0  0.8889384384408633  0.8263783470190409  0.3374219249637051  1.0000
  H   H23       1.0  0.9289270252014536  0.7860797345878093  0.41548417478282373  1.0000
  H   H24       1.0  0.9544954958474192  0.8075075812826521  0.3894679679668638  1.0000
  C   C37       1.0  0.9506255660869632  0.9543220884514664  0.28358382830603596  1.0000
  C   C38       1.0  0.9644470022650902  0.9585911223129902  0.24648923434357417  1.0000
  C   C39       1.0  0.9666499788800742  0.9484536360046689  0.21182608363010608  1.0000
  C   C40       1.0  0.9555781160936585  0.933491017896455  0.2147236351453616  1.0000
  C   C41       1.0  0.9421875413924248  0.928725184741971  0.2523028863496774  1.0000
  C   C42       1.0  0.9395126438511201  0.9393550139726974  0.2865274803340554  1.0000
  H   H25       1.0  0.973740974428446  0.9694427653907137  0.2447151316088416  1.0000
  H   H26       1.0  0.9771391435316048  0.9520429618445695  0.18287740854107346  1.0000
  H   H27       1.0  0.9333452549007277  0.9174056953424985  0.25440991968952625  1.0000
  H   H28       1.0  0.9286098574978454  0.9362190145115801  0.3150515192576338  1.0000
  C   C43       1.0  0.011367174848890105  0.7108988905156126  0.12450333088466081  1.0000
  C   C44       1.0  0.013459442600709979  0.6905377689499931  0.14255436926932408  1.0000
  C   C45       1.0  0.9966572241608342  0.6811106875781007  0.1511834171073998  1.0000
  C   C46       1.0  0.9776336008689608  0.6922886963224351  0.14335912514957605  1.0000
  C   C47       1.0  0.9756280021887666  0.7126629442391627  0.1260657662572613  1.0000
  C   C48       1.0  0.9924634103615279  0.7218074235652507  0.11606235666313536  1.0000
  H   H29       1.0  0.02812523459033943  0.681965662693992  0.14883170554759362  1.0000
  H   H30       1.0  0.9984782346554555  0.6652456433070613  0.1639292296618815  1.0000
  H   H31       1.0  0.9611152221247724  0.7215531045707898  0.12020956178475228  1.0000
  H   H32       1.0  0.9906367372034771  0.7374683022442422  0.10247561768729119  1.0000
  C   C49       1.0  0.02086666804941704  0.6917003366324674  0.34476833380384964  1.0000
  C   C50       1.0  0.003329097033674169  0.6869920085300044  0.37173073336236373  1.0000
  C   C51       1.0  0.9906141454242372  0.7011072212846665  0.39661354795134873  1.0000
  C   C52       1.0  0.995942660218152  0.7195407158601954  0.3960698046796889  1.0000
  C   C53       1.0  0.014110795890065145  0.7237431224875626  0.37095269704589834  1.0000
  C   C54       1.0  0.026310943229757976  0.7100494663263324  0.3445404768027779  1.0000
  H   H33       1.0  0.9993784391929318  0.6726188470348322  0.3726818090765416  1.0000
  H   H34       1.0  0.9768367785199552  0.6976083776426748  0.41653227191658815  1.0000
  H   H35       1.0  0.0184725186482847  0.7378209251999538  0.37099527101653396  1.0000
  H   H36       1.0  0.03994152949983555  0.713696710711032  0.3241270882258607  1.0000
  C   C55       1.0  0.01654353251663819  0.8111618679465094  0.16421473473090217  1.0000
  C   C56       1.0  0.027844036445930344  0.7929671220716786  0.15158324012834976  1.0000
  C   C57       1.0  0.03936820628729892  0.779096256008107  0.17881010353214022  1.0000
  C   C58       1.0  0.04027907442015415  0.7835683243907151  0.21836623812282482  1.0000
  C   C59       1.0  0.02949452349954104  0.8020631951865009  0.23074607680555512  1.0000
  C   C60       1.0  0.01739484432286138  0.8157660663370171  0.20386738245421235  1.0000
  H   H37       1.0  0.027461025304344706  0.7893376942652204  0.1210579012418717  1.0000
  H   H38       1.0  0.04746458396081228  0.7648967886216568  0.16901648016465845  1.0000
  H   H39       1.0  0.030153900085674448  0.8056132035369322  0.2613502489013818  1.0000
  H   H40       1.0  0.008799109119454264  0.8298347782195625  0.2138047653058817  1.0000
  C   C61       1.0  0.15314475355012191  0.7310092759044278  0.22823798382227342  1.0000
  C   C62       1.0  0.13744503718040435  0.7382810885990652  0.20479102293519838  1.0000
  C   C63       1.0  0.1284730661151996  0.7248238642433685  0.1916839179445579  1.0000
  C   C64       1.0  0.13531833961935008  0.704035575002065  0.20156658222799625  1.0000
  C   C65       1.0  0.15127507640388116  0.6966928734181087  0.2244116133779095  1.0000
  C   C66       1.0  0.16019725962815995  0.7101936745608467  0.23782905486487455  1.0000
  H   H41       1.0  0.13213807854474605  0.7543753029494348  0.19683547152899591  1.0000
  H   H42       1.0  0.11642744046446417  0.7305813971353606  0.1733889774757848  1.0000
  H   H43       1.0  0.15636539624059417  0.6805795751625322  0.23260073773420764  1.0000
  H   H44       1.0  0.17201410418877325  0.7045023298830944  0.25680502156113433  1.0000
  C   C67       1.0  0.009097346802784746  0.05526524315880077  0.2585118689925196  1.0000
  C   C68       1.0  0.014209509247096642  0.0738040630945882  0.23976405228389086  1.0000
  C   C69       1.0  0.01537766387993988  0.0874961025512564  0.2654485829009911  1.0000
  C   C70       1.0  0.012099028382689137  0.08243574088731309  0.3098172778914352  1.0000
  C   C71       1.0  0.007812948433196163  0.06355013447004954  0.32844353873698434  1.0000
  C   C72       1.0  0.0060085841318804605  0.05009276551484598  0.30281843861506785  1.0000
  H   H45       1.0  0.01649223270943241  0.0779271075924779  0.20552776711076748  1.0000
  H   H46       1.0  0.018560040083493337  0.10204385935229054  0.250668732133263  1.0000
  H   H47       1.0  0.005568734225154451  0.059396654358572665  0.36259187487991856  1.0000
  H   H48       1.0  0.0022789247235380674  0.03565938939562652  0.3173627928174773  1.0000
  C   C73       1.0  0.08829757325888792  0.14501312239853056  0.27650405020470015  1.0000
  C   C74       1.0  0.08244768356970646  0.13287201732223108  0.3147753522608484  1.0000
  C   C75       1.0  0.09581111775349939  0.11516529805680298  0.3283040690905418  1.0000
  C   C76       1.0  0.11487358479777762  0.10948881775341057  0.3032655348458038  1.0000
  C   C77       1.0  0.12045730718055842  0.12140015012309452  0.26453723058985673  1.0000
  C   C78       1.0  0.10724253034839253  0.1392115444381408  0.2512922587748633  1.0000
  H   H49       1.0  0.06775042751367977  0.13731235389598395  0.33426605396869125  1.0000
  H   H50       1.0  0.09144910622703915  0.1059695368486071  0.35829762582762903  1.0000
  H   H51       1.0  0.1348328797118236  0.1167524794004655  0.2444021136667405  1.0000
  H   H52       1.0  0.11163134874636023  0.1484115144653475  0.22131538365092046  1.0000
  C   C79       1.0  0.31237200883908833  0.7778838491159912  0.18811253936530042  1.0000
  C   C80       1.0  0.30159654579872935  0.7651513078699274  0.21826301628375916  1.0000
  C   C81       1.0  0.28040342471373264  0.7686658136148056  0.22355476966706636  1.0000
  C   C82       1.0  0.26996838374960597  0.7847838979655457  0.19832251843528695  1.0000
  C   C83       1.0  0.28072803640068283  0.7979661044107886  0.16911731667641233  1.0000
  C   C84       1.0  0.30195870722838003  0.7945548771853737  0.16410385764655  1.0000
  H   H53       1.0  0.30962174960152383  0.7527826083829479  0.23800979172245526  1.0000
  H   H54       1.0  0.27210749848728905  0.7591723989367243  0.24779054512230345  1.0000
  H   H55       1.0  0.2726280693947589  0.8106422983554893  0.15006184558672217  1.0000
  H   H56       1.0  0.3101859269217171  0.8047265739073245  0.1414995296565508  1.0000
  C   C85       1.0  0.2534902765946274  0.013891568212844976  0.19594149175471448  1.0000
  C   C86       1.0  0.23377601681867255  0.019827106621018185  0.21821222229040368  1.0000
  C   C87       1.0  0.22484904993478347  0.040418666546549076  0.2173617980575624  1.0000
  C   C88       1.0  0.23542318099090973  0.055046636289814786  0.19328838152315395  1.0000
  C   C89       1.0  0.2549326172678002  0.04906422838635849  0.17027148721386498  1.0000
  C   C90       1.0  0.264044723086615  0.028541281071511944  0.1719830360724769  1.0000
  H   H57       1.0  0.22560321177497888  0.008545725831331662  0.236966574714477  1.0000
  H   H58       1.0  0.2096716486048874  0.04493698184328881  0.2347144017387027  1.0000
  H   H59       1.0  0.2631964960765194  0.06030531229007252  0.1516338108536525  1.0000
  H   H60       1.0  0.27925204602590015  0.024064307929332784  0.1545851170050607  1.0000
  C   C91       1.0  0.34759962355888696  0.9137831069998537  0.18471497139201545  1.0000
  C   C92       1.0  0.34826133472503656  0.8932673915070882  0.1994807794033804  1.0000
  C   C93       1.0  0.34215515455179535  0.8813984133834744  0.17613226471003446  1.0000
  C   C94       1.0  0.3352157171239325  0.890017976961966  0.13807711191977506  1.0000
  C   C95       1.0  0.3341473650163572  0.9106503378155032  0.1236683282659671  1.0000
  C   C96       1.0  0.3403439801744835  0.9225456490694458  0.14699304132882418  1.0000
  H   H61       1.0  0.35354161290556885  0.88651890916596  0.22901762144362656  1.0000
  H   H62       1.0  0.34255896404772235  0.8656471010485572  0.18799693812067453  1.0000
  H   H63       1.0  0.3289847367940102  0.9173099374827289  0.09396657742804732  1.0000
  H   H64       1.0  0.34024652200916117  0.9382843667953468  0.13489542140604371  1.0000
  C   C97       1.0  0.7951209279042019  0.23876923851916892  0.7370226714027126  1.0000
  C   C98       1.0  0.7936294264869886  0.24288337494651668  0.6937622935912515  1.0000
  C   C99       1.0  0.7779929956827211  0.25825243502919454  0.6797241609723919  1.0000
  C   C100      1.0  0.7644672285923311  0.2697989887130214  0.7088641089093265  1.0000
  C   C101      1.0  0.7667883534648242  0.2663707253162338  0.7513632920418508  1.0000
  C   C102      1.0  0.7818793123377602  0.25072442067723116  0.7655471194406422  1.0000
  H   H65       1.0  0.8039116221199661  0.23364622677816022  0.6715942762574953  1.0000
  H   H66       1.0  0.776328526535682  0.26102949723542024  0.6466654059771659  1.0000
  H   H67       1.0  0.7564435248944312  0.2754207673751065  0.7737279119741431  1.0000
  H   H68       1.0  0.7829960040543317  0.24764587122822515  0.7989128615369269  1.0000
  C   C103      1.0  0.7994553623718288  0.19791132710056958  0.5549146633535549  1.0000
  C   C104      1.0  0.7884497212373246  0.195113370762519  0.5258736969896597  1.0000
  C   C105      1.0  0.7717174428428915  0.20982857940320498  0.5156252401241265  1.0000
  C   C106      1.0  0.7657474139059552  0.22728427004826113  0.5348533739492096  1.0000
  C   C107      1.0  0.7759235393616398  0.22957187624755743  0.5660551689650258  1.0000
  C   C108      1.0  0.7929255657102227  0.21490604346606823  0.5758538531665832  1.0000
  H   H69       1.0  0.7928145726116036  0.18156723410759348  0.5112584949716765  1.0000
  H   H70       1.0  0.7636618175571692  0.20788742676856284  0.4919956915022031  1.0000
  H   H71       1.0  0.7713048178572314  0.24304013208786748  0.5810787792789692  1.0000
  H   H72       1.0  0.8014980466111791  0.2171280188343187  0.5982483894915618  1.0000
  C   C109      1.0  0.8684279818346439  0.10338745135854488  0.39398638113756856  1.0000
  C   C110      1.0  0.872386722103196  0.0880785741166965  0.36862095606040984  1.0000
  C   C111      1.0  0.8917187460022501  0.07528716962744464  0.36291882768864314  1.0000
  C   C112      1.0  0.9068437993739713  0.07770112333758106  0.3832079017571999  1.0000
  C   C113      1.0  0.9028101226478953  0.09311414746924473  0.40796977882706065  1.0000
  C   C114      1.0  0.8838371169970745  0.10602958262809392  0.41285692759756687  1.0000
  H   H73       1.0  0.8605447686972837  0.0860513331340993  0.3536215191730764  1.0000
  H   H74       1.0  0.8947513779283124  0.06339480414739951  0.34361821512598384  1.0000
  H   H75       1.0  0.9143568596111222  0.09520610876380697  0.4234454035884286  1.0000
  H   H76       1.0  0.8811266199720171  0.11783393766649608  0.4319975159145178  1.0000
  C   C115      1.0  0.9296507980105276  0.1626419580816709  0.4073500090596011  1.0000
  C   C116      1.0  0.9501999692169891  0.15453323526781446  0.394713299415627  1.0000
  C   C117      1.0  0.9614772455024087  0.16390133589785316  0.35867075724794734  1.0000
  C   C118      1.0  0.9525793827667971  0.18202052287916906  0.33625050836040493  1.0000
  C   C119      1.0  0.9321483070479221  0.1905687251778667  0.34965707082612413  1.0000
  C   C120      1.0  0.9205519704842179  0.18065548420368457  0.38476278493746563  1.0000
  H   H77       1.0  0.9574602937623526  0.1409790132519922  0.4125983651932666  1.0000
  H   H78       1.0  0.9771655829594739  0.15718071619062626  0.3487589933311251  1.0000
  H   H79       1.0  0.9253332694730465  0.20484796346266945  0.33306502766227103  1.0000
  H   H80       1.0  0.9047435948334861  0.1871739390474009  0.3949875773515599  1.0000
  C   C121      1.0  0.8409661886688383  0.1928050890401357  0.016176269428017642  1.0000
  C   C122      1.0  0.8260144082827825  0.20517125119044038  0.9942572620138724  1.0000
  C   C123      1.0  0.8132199700008756  0.19659295342429045  0.9779160120379261  1.0000
  C   C124      1.0  0.815368527898196  0.17561999446810678  0.9835273552315597  1.0000
  C   C125      1.0  0.8298348224647809  0.16331730584401066  0.00667120781040508  1.0000
  C   C126      1.0  0.8426193536072129  0.17188982105896314  0.022930808040231645  1.0000
  H   H81       1.0  0.8245170616181483  0.22139385203009654  0.9894652732346855  1.0000
  H   H82       1.0  0.8017857100926397  0.2062003862251232  0.9609301742680113  1.0000
  H   H83       1.0  0.8314975365205373  0.1470794797367764  0.011191116097038848  1.0000
  H   H84       1.0  0.8540434371205691  0.16224288284099672  0.03976201051505944  1.0000
  C   C127      1.0  0.8863331037648785  0.20833715184200838  0.2389537571978984  1.0000
  C   C128      1.0  0.8921648444521048  0.20567392294887882  0.2785502965199401  1.0000
  C   C129      1.0  0.8774241224113364  0.20769539913490712  0.31537384068645374  1.0000
  C   C130      1.0  0.8568600627764065  0.21333102361771542  0.31229919633733716  1.0000
  C   C131      1.0  0.8509985666802806  0.2167923723315035  0.27246874446765496  1.0000
  C   C132      1.0  0.8657428539965416  0.21386097247671923  0.2358160934307604  1.0000
  H   H85       1.0  0.9080946069867848  0.20162430853245983  0.28073264167181117  1.0000
  H   H86       1.0  0.8819704704672316  0.20521444412541787  0.3460907089469894  1.0000
  H   H87       1.0  0.8350846492099545  0.22133126924823623  0.27002947184648923  1.0000
  H   H88       1.0  0.8612320855011981  0.21633078539422232  0.2050497169446835  1.0000
  C   C133      1.0  0.9663168543399859  0.13904161287256117  0.0882516193055715  1.0000
  C   C134      1.0  0.985768721654462  0.1342228774933423  0.06427399020858135  1.0000
  C   C135      1.0  0.0028685107066413625  0.13457610983737595  0.08067174024313534  1.0000
  C   C136      1.0  0.0006722308755465688  0.13953343237475838  0.12135902389510177  1.0000
  C   C137      1.0  0.9812461756203552  0.1441024035522534  0.14579880616821014  1.0000
  C   C138      1.0  0.9640364288163891  0.14406457809580553  0.12904772765420391  1.0000
  H   H89       1.0  0.9876284293431535  0.13036058560340477  0.032722823643963415  1.0000
  H   H90       1.0  0.01786624805569589  0.13105814419194833  0.061666440875466404  1.0000
  H   H91       1.0  0.9795044520011802  0.1477823448362602  0.1773293831886028  1.0000
  H   H92       1.0  0.94911092145063  0.14764499439622047  0.14785139918681492  1.0000
  C   C139      1.0  0.875677826723055  0.10593700340297695  0.20193727838474276  1.0000
  C   C140      1.0  0.8816070329376412  0.09289592216926264  0.23765553209739024  1.0000
  C   C141      1.0  0.8945359321835246  0.0741547571081349  0.23274526811769988  1.0000
  C   C142      1.0  0.900890586945255  0.06823867819668639  0.1923410087633172  1.0000
  C   C143      1.0  0.8944852071503352  0.08104389725866823  0.15685904060033198  1.0000
  C   C144      1.0  0.8821722054337341  0.10005995944294013  0.1615673024542249  1.0000
  H   H93       1.0  0.876546536863028  0.09742366720664788  0.26892132388174056  1.0000
  H   H94       1.0  0.8994271541478605  0.06425433003317083  0.260271363721934  1.0000
  H   H95       1.0  0.8993853825424623  0.0764951864168042  0.12559584564380213  1.0000
  H   H96       1.0  0.8774597993528741  0.11007980770461936  0.13399946628810244  1.0000
  C   C145      1.0  0.4091387804076877  0.7598059445320053  0.2818574882119691  1.0000
  C   C146      1.0  0.42557663788074773  0.7696154910259042  0.2712669766486262  1.0000
  C   C147      1.0  0.4239051477181773  0.7887088757719087  0.24640500587170244  1.0000
  C   C148      1.0  0.40601799729822974  0.7977417771827737  0.23075577029721508  1.0000
  C   C149      1.0  0.38948994491819455  0.7879768719397117  0.24146205255030512  1.0000
  C   C150      1.0  0.390885421881005  0.7691982050316859  0.2678386903455983  1.0000
  H   H97       1.0  0.4397303053298378  0.7623275388943218  0.2820118412038868  1.0000
  H   H98       1.0  0.4367527380060661  0.7961026411686357  0.2380160898257755  1.0000
  H   H99       1.0  0.37578078064886755  0.7947008531968603  0.22882374271478184  1.0000
  H   H100      1.0  0.37821839141165514  0.7615844468797665  0.27576350276191747  1.0000
  C   C151      1.0  0.29167151629676025  0.7362538013788  0.37211287127631937  1.0000
  C   C152      1.0  0.27759289401532  0.7466924201564495  0.3461513096238104  1.0000
  C   C153      1.0  0.26271040686692654  0.7373143231024197  0.33955858765950225  1.0000
  C   C154      1.0  0.2617113664151108  0.7175942522636777  0.35940335296287185  1.0000
  C   C155      1.0  0.275354523839256  0.7074410357115785  0.3864910321155452  1.0000
  C   C156      1.0  0.29048374993351145  0.7166560444780263  0.39239226561636603  1.0000
  H   H101      1.0  0.2783700311292531  0.7618919645470122  0.3305162478759654  1.0000
  H   H102      1.0  0.25205285962075197  0.7453342270489309  0.31901232747861424  1.0000
  H   H103      1.0  0.2744422554262644  0.6922958962753607  0.40234012281716786  1.0000
  H   H104      1.0  0.3008892214447242  0.708757638496441  0.4134861691754648  1.0000
  C   C157      1.0  0.4105091630199811  0.6548292102611047  0.19905135301998667  1.0000
  C   C158      1.0  0.41289682362011215  0.6651184290780465  0.23017803521264857  1.0000
  C   C159      1.0  0.3979484619839986  0.6672043453516584  0.26668600115932106  1.0000
  C   C160      1.0  0.38103239290169905  0.6583312809747452  0.27285344316144955  1.0000
  C   C161      1.0  0.3792889696678343  0.6469976943739112  0.24296792400840506  1.0000
  C   C162      1.0  0.3938778634447614  0.6455056898966274  0.20575362913359818  1.0000
  H   H105      1.0  0.4258439849097166  0.6721901005426867  0.22521844842150074  1.0000
  H   H106      1.0  0.3994533481689706  0.6759353504823843  0.2895504960385218  1.0000
  H   H107      1.0  0.3663916057503146  0.6398532666802479  0.24786453717399626  1.0000
  H   H108      1.0  0.3922586144031864  0.6371447756046019  0.18214659330933247  1.0000
  C   C163      1.0  0.3162368280473768  0.7099767112127052  0.12397092977954238  1.0000
  C   C164      1.0  0.3130237230752011  0.6918982686682086  0.11563715114615114  1.0000
  C   C165      1.0  0.2930933761333926  0.6888508422468762  0.12067326297236214  1.0000
  C   C166      1.0  0.2765484585285017  0.7040275453666945  0.13332923555194243  1.0000
  C   C167      1.0  0.2799072611157823  0.7225313059682369  0.13868971338988434  1.0000
  C   C168      1.0  0.29968237670776127  0.7253196391998423  0.13518061758132838  1.0000
  H   H109      1.0  0.325839237985036  0.6800328520249403  0.10676545458514797  1.0000
  H   H110      1.0  0.29054889698898306  0.6745227057479323  0.11631472453863823  1.0000
  H   H111      1.0  0.26719771845939155  0.7346535799531781  0.14639165200359505  1.0000
  H   H112      1.0  0.3020838601931972  0.7393760367612495  0.1414718027444437  1.0000
  C   C169      1.0  0.41112995341847464  0.742785498137517  0.9780017043231456  1.0000
  C   C170      1.0  0.4181425531158893  0.7578387943195913  0.9469296677634463  1.0000
  C   C171      1.0  0.41319874299750786  0.7779906565537663  0.954180312652323  1.0000
  C   C172      1.0  0.4014636700872804  0.7831788448674848  0.9927958068797849  1.0000
  C   C173      1.0  0.3945828004134209  0.7681476430349421  0.024113676225585357  1.0000
  C   C174      1.0  0.3991856299420554  0.7480377832490469  0.016470213983089455  1.0000
  H   H113      1.0  0.42732014679323554  0.7539417977537042  0.9170784983751568  1.0000
  H   H114      1.0  0.41853361519262877  0.7895754308710118  0.9298429046484699  1.0000
  H   H115      1.0  0.38542719817948234  0.7720809428315576  0.05383441841081127  1.0000
  H   H116      1.0  0.393369995451893  0.7366918626163316  0.040195830203073823  1.0000
  C   C175      1.0  0.4366870262414814  0.5867589522311278  0.9840898589369549  1.0000
  C   C176      1.0  0.4334235142165  0.5984039467094743  0.016707779454858906  1.0000
  C   C177      1.0  0.41536763405166977  0.6127842716595023  0.024039515597294336  1.0000
  C   C178      1.0  0.4005494661329483  0.6154974837229992  0.9988229953779839  1.0000
  C   C179      1.0  0.4032835254049765  0.6029922344305614  0.9679636654688872  1.0000
  C   C180      1.0  0.4213288791130623  0.5885849595935857  0.9606809097635071  1.0000
  H   H117      1.0  0.44510840743705976  0.5967549105797177  0.035441717381094584  1.0000
  H   H118      1.0  0.41298678904530906  0.6218331161181433  0.04907218788604184  1.0000
  H   H119      1.0  0.3916850078443301  0.6047972183280526  0.9489312503997377  1.0000
  H   H120      1.0  0.42342298288345864  0.5790316468361015  0.9366742504535007  1.0000
  C   C181      1.0  0.44479393823839997  0.6446801876342638  0.4573899206834013  1.0000
  C   C182      1.0  0.43110326833534784  0.6380010999995888  0.49272556657356875  1.0000
  C   C183      1.0  0.41188628136753314  0.6501232941608804  0.5038558093876552  1.0000
  C   C184      1.0  0.40624678032318323  0.668853135070551  0.47936952211652906  1.0000
  C   C185      1.0  0.4202150344248627  0.6758353027020335  0.4449968354935089  1.0000
  C   C186      1.0  0.43938973427793504  0.6636849064463427  0.4337328285422554  1.0000
  H   H121      1.0  0.43493874461076937  0.6231550245192607  0.510488549799947  1.0000
  H   H122      1.0  0.40111315013033433  0.6446635687584362  0.5304463679392161  1.0000
  H   H123      1.0  0.4162660504065078  0.6906676365961176  0.42708511044225883  1.0000
  H   H124      1.0  0.44999965683530047  0.6690574984514666  0.40669793070464705  1.0000
  C   C187      1.0  0.44013146104440115  0.5551621778643202  0.656194590660568  1.0000
  C   C188      1.0  0.4280872689176245  0.5424337748358364  0.6829272602862372  1.0000
  C   C189      1.0  0.42625846416041363  0.5405694833499698  0.7271782142495873  1.0000
  C   C190      1.0  0.43639210991680893  0.5515056021091871  0.7446220479134811  1.0000
  C   C191      1.0  0.44808410383729  0.5645266338934617  0.7178302971665166  1.0000
  C   C192      1.0  0.45010278357956895  0.5662560768585501  0.673608859635794  1.0000
  H   H125      1.0  0.42030300429161616  0.5339157051652047  0.6694119278723047  1.0000
  H   H126      1.0  0.41707718314897013  0.5305786418064615  0.7478742752730522  1.0000
  H   H127      1.0  0.45538536549135766  0.5733886626212764  0.7311307316195903  1.0000
  H   H128      1.0  0.45929944183072696  0.5762006634678166  0.6529807946241822  1.0000
  C   C193      1.0  0.7360956815195167  0.6203015820732336  0.7966604484944402  1.0000
  C   C194      1.0  0.7508029687397978  0.6095340428726624  0.7681199940810585  1.0000
  C   C195      1.0  0.7540905185178146  0.6174598347874282  0.7249518861712163  1.0000
  C   C196      1.0  0.7426812561505501  0.6360015264732194  0.7099921746059576  1.0000
  C   C197      1.0  0.7269971621588144  0.6461870126465212  0.7379838668269317  1.0000
  C   C198      1.0  0.7237906635339852  0.6383541715551918  0.7814644454007669  1.0000
  H   H129      1.0  0.7600009532589266  0.5952966452762825  0.7794625009385623  1.0000
  H   H130      1.0  0.7658618295268917  0.6094744827008733  0.7031551858228472  1.0000
  H   H131      1.0  0.7179454338385278  0.6604928642932208  0.7264616867068489  1.0000
  H   H132      1.0  0.7122272588523314  0.6466002870254458  0.8031609091944802  1.0000
  C   C199      1.0  0.7305293454700057  0.6881331776850769  0.9535102788787911  1.0000
  C   C200      1.0  0.7391765670341477  0.7051436562999932  0.9379602033594286  1.0000
  C   C201      1.0  0.7603263100609153  0.7031791889382916  0.9303357583911716  1.0000
  C   C202      1.0  0.7727857270539846  0.684258010213657  0.9390595181131285  1.0000
  C   C203      1.0  0.764157029611892  0.6673290798125229  0.9556556362976119  1.0000
  C   C204      1.0  0.7430415880544793  0.6692608599400433  0.9625689510028125  1.0000
  H   H133      1.0  0.7295134024501753  0.719763864030804  0.9309830263676534  1.0000
  H   H134      1.0  0.766991943571661  0.7162929384997458  0.9174596813055119  1.0000
  H   H135      1.0  0.77372469212108  0.6526886883365051  0.9627421571963876  1.0000
  H   H136      1.0  0.7364867383059299  0.6561871770598917  0.9753042626148353  1.0000
  C   C205      1.0  0.5745194271187948  0.6002526338954938  0.6094623324768528  1.0000
  C   C206      1.0  0.5654188819174011  0.5978036226571309  0.5768300204280612  1.0000
  C   C207      1.0  0.5442562196544265  0.6026463925504124  0.5805566674738479  1.0000
  C   C208      1.0  0.5320896931218358  0.6103762749716962  0.6164526294211415  1.0000
  C   C209      1.0  0.5412364262483655  0.6134613097892171  0.6485518786317398  1.0000
  C   C210      1.0  0.5624486657428924  0.6082947948047472  0.64517604683628  1.0000
  H   H137      1.0  0.5747043844010943  0.5916077301848218  0.5491747046025436  1.0000
  H   H138      1.0  0.5374655034465747  0.6000473815592945  0.5558602093678293  1.0000
  H   H139      1.0  0.5319211667151539  0.6194726013103425  0.6763861783708174  1.0000
  H   H140      1.0  0.5694101069116028  0.6105856984204934  0.6701856798093802  1.0000
  C   C211      1.0  0.5450679485479798  0.623977309526167  0.7934291307182054  1.0000
  C   C212      1.0  0.5388193672789128  0.6102484771729065  0.7750894512699887  1.0000
  C   C213      1.0  0.5182457418780705  0.6124033780144429  0.7734029951947026  1.0000
  C   C214      1.0  0.5040112224680646  0.6287923237961742  0.7883346060738708  1.0000
  C   C215      1.0  0.5104339728762964  0.6432444970037867  0.8042391277446413  1.0000
  C   C216      1.0  0.5308906474796613  0.6405823392046918  0.8076960557931706  1.0000
  H   H141      1.0  0.5496217308011209  0.5975721177342673  0.7634827023311772  1.0000
  H   H142      1.0  0.5133832122532898  0.6012341349184833  0.7608571764523372  1.0000
  H   H143      1.0  0.4995386765339459  0.6559820433699747  0.8155898957457429  1.0000
  H   H144      1.0  0.5356403157392277  0.6512155934410336  0.8220381849995795  1.0000
  C   C217      1.0  0.6569402128171087  0.6209001168073814  0.7643097149534233  1.0000
  C   C218      1.0  0.6372260361730326  0.6234601000975616  0.787892101041834  1.0000
  C   C219      1.0  0.6316897770412602  0.6350757759587027  0.8209599396136825  1.0000
  C   C220      1.0  0.6456551822023555  0.6447844145711961  0.8297134413301122  1.0000
  C   C221      1.0  0.6653165127951505  0.6425960188785103  0.805697791442425  1.0000
  C   C222      1.0  0.6709614854469537  0.6307137411485324  0.7728299136975557  1.0000
  H   H145      1.0  0.6261577297481854  0.6164043151637764  0.7810753024808658  1.0000
  H   H146      1.0  0.6167232989537162  0.6361310219557517  0.8403568491492851  1.0000
  H   H147      1.0  0.6761025109402836  0.6501840052279245  0.8123507488340802  1.0000
  H   H148      1.0  0.6862119696562774  0.6289868361312239  0.7545112895087273  1.0000
  C   C223      1.0  0.7171834306662229  0.3866001754113767  0.6255071529777646  1.0000
  C   C224      1.0  0.7169284563157733  0.39491495238794044  0.5828067560497343  1.0000
  C   C225      1.0  0.725837170006724  0.3829755069858246  0.5505240602107438  1.0000
  C   C226      1.0  0.7350243525457633  0.3627440526129222  0.5609827555732247  1.0000
  C   C227      1.0  0.7361779652467798  0.3548046954766651  0.6035424068984477  1.0000
  C   C228      1.0  0.727045598251113  0.3666513636536689  0.6358056763685116  1.0000
  H   H149      1.0  0.709373605874663  0.4104109568309729  0.5747100833573572  1.0000
  H   H150      1.0  0.724982463922176  0.3891974200114247  0.5176401985118678  1.0000
  H   H151      1.0  0.7438494890556646  0.33936774839416795  0.6115282878280678  1.0000
  H   H152      1.0  0.7273675711939346  0.36036391852310967  0.6686630764675661  1.0000
  C   C229      1.0  0.7390731037746165  0.30638871270028345  0.8445605934219912  1.0000
  C   C230      1.0  0.7191572946559996  0.30342504461446324  0.8588828973973212  1.0000
  C   C231      1.0  0.7156113032724406  0.28413043218210454  0.8772620369876779  1.0000
  C   C232      1.0  0.7319303595506962  0.26769044041964773  0.8802635077641496  1.0000
  C   C233      1.0  0.7518056327817851  0.27067803572702337  0.8660086734447865  1.0000
  C   C234      1.0  0.7553819252532492  0.29003943371845503  0.8486245121890864  1.0000
  H   H153      1.0  0.7064924636786674  0.3159853192092973  0.8560777604596309  1.0000
  H   H154      1.0  0.7002140801295305  0.28191090236392813  0.8885730925578017  1.0000
  H   H155      1.0  0.7644571016158039  0.25814581729954766  0.8687805138089433  1.0000
  H   H156      1.0  0.7708057749404346  0.292276604647905  0.8377928386860184  1.0000
  C   C235      1.0  0.7754978101497302  0.5522411050467101  0.7361563886861733  1.0000
  C   C236      1.0  0.7941486275999324  0.5421553795434568  0.7476942191934784  1.0000
  C   C237      1.0  0.812092833988051  0.5488692730892825  0.7273322349873163  1.0000
  C   C238      1.0  0.8112719577962214  0.5659208082143686  0.6960115523128114  1.0000
  C   C239      1.0  0.7928163632389991  0.5753210790165968  0.6831575015702139  1.0000
  C   C240      1.0  0.7750579516390411  0.5683761556947617  0.702940713087633  1.0000
  H   H157      1.0  0.7948035090227356  0.5294014848298215  0.772624474251956  1.0000
  H   H158      1.0  0.826433198834939  0.5413373618835803  0.7369487790995262  1.0000
  H   H159      1.0  0.7921390536155004  0.5882613314194711  0.6585428974890246  1.0000
  H   H160      1.0  0.7608524827023457  0.5760774598243283  0.693678367832852  1.0000
  C   C241      1.0  0.8006717200141698  0.5325799205489185  0.9486390517825742  1.0000
  C   C242      1.0  0.8161233080870108  0.541827537639055  0.9525607365060219  1.0000
  C   C243      1.0  0.8113770481477064  0.5591540369885424  0.9724115695574439  1.0000
  C   C244      1.0  0.7912089747709524  0.5670772290406045  0.9892213156211921  1.0000
  C   C245      1.0  0.7758104257765205  0.5574684745418717  0.9863154500237558  1.0000
  C   C246      1.0  0.7805288903618955  0.5402865278710323  0.9660104981822394  1.0000
  H   H161      1.0  0.8317562461130356  0.5358306064442311  0.9394423257911476  1.0000
  H   H162      1.0  0.82339367408702  0.5662655039492858  0.974850970127131  1.0000
  H   H163      1.0  0.7601633916918757  0.5634136929010933  0.9988922044206539  1.0000
  H   H164      1.0  0.768566464053536  0.5329659031669371  0.9639774879833799  1.0000
  C   C247      1.0  0.6993251303474737  0.5403049382344856  0.987415816944401  1.0000
  C   C248      1.0  0.7097231941324883  0.5560064892227855  0.9705309605876664  1.0000
  C   C249      1.0  0.7028169407739238  0.5747049864530483  0.9852005703488934  1.0000
  C   C250      1.0  0.6861960750795445  0.5773565901712326  0.01851412597456692  1.0000
  C   C251      1.0  0.6765288239011074  0.5612824332671433  0.03710238919789499  1.0000
  C   C252      1.0  0.6828710822427573  0.5428749270533862  0.021061534158152817  1.0000
  H   H165      1.0  0.7226854079854396  0.5540219699778118  0.9452504884746269  1.0000
  H   H166      1.0  0.7103828449916777  0.5870468360546051  0.9705658774515008  1.0000
  H   H167      1.0  0.6636451650547965  0.5633127555279575  0.06275292460411963  1.0000
  H   H168      1.0  0.6748288619621564  0.5307362752828184  0.034356806172878285  1.0000
  C   C253      1.0  0.7383191678166476  0.44088229966338277  0.8557967751393079  1.0000
  C   C254      1.0  0.7201096810098664  0.4548534706603964  0.8527745331121769  1.0000
  C   C255      1.0  0.7023630366049407  0.44828516279428404  0.8520990457327082  1.0000
  C   C256      1.0  0.7028614152452816  0.4277351425138512  0.8537315834086122  1.0000
  C   C257      1.0  0.7210922438804298  0.4137748122654413  0.8562595780986275  1.0000
  C   C258      1.0  0.7387689759291038  0.4203404865569781  0.8573364456215895  1.0000
  H   H169      1.0  0.7196178328664653  0.4706817728447003  0.85118832015381  1.0000
  H   H170      1.0  0.6882917771528895  0.459139657283539  0.8500154295817837  1.0000
  H   H171      1.0  0.721520362558646  0.3978370262825632  0.858311716422147  1.0000
  H   H172      1.0  0.7527860380194856  0.4094336302187661  0.8598542773871448  1.0000
  C   C259      1.0  0.5248434713863643  0.49069208519589064  0.58996138338782  1.0000
  C   C260      1.0  0.5448560159984095  0.4928373335755475  0.5729746005939773  1.0000
  C   C261      1.0  0.5485980060502285  0.5094534148269577  0.5420815983247393  1.0000
  C   C262      1.0  0.5323077657502814  0.5241079467461328  0.529162690152965  1.0000
  C   C263      1.0  0.5123796375965557  0.5217462866065156  0.5459878196862809  1.0000
  C   C264      1.0  0.5086568242959512  0.5049785655152247  0.5759702871077998  1.0000
  H   H173      1.0  0.5574443816554023  0.4818049384199221  0.583695941082833  1.0000
  H   H174      1.0  0.5640352494104638  0.5113020815126742  0.5293051197989591  1.0000
  H   H175      1.0  0.4997135781689737  0.5329025402500205  0.5360109788991256  1.0000
  H   H176      1.0  0.4931576039290737  0.5033457828435988  0.5888149473402626  1.0000
  C   C265      1.0  0.5414719148872482  0.4701824823631716  0.818545325352706  1.0000
  C   C266      1.0  0.5573167017113229  0.47996891573331907  0.7981892992178056  1.0000
  C   C267      1.0  0.5549395459368401  0.5007439143076371  0.797309609307726  1.0000
  C   C268      1.0  0.5364726303503239  0.5118700980155058  0.8155675128682816  1.0000
  C   C269      1.0  0.520984102617235  0.501939342829219  0.8379507962742968  1.0000
  C   C270      1.0  0.5235089177917086  0.48102136671288326  0.839642592998714  1.0000
  H   H177      1.0  0.5713444381462891  0.47147217072069325  0.782745535207809  1.0000
  H   H178      1.0  0.5672353279508637  0.5082622879584102  0.7814681209423269  1.0000
  H   H179      1.0  0.5069500002119685  0.510313567742996  0.8533037320010026  1.0000
  H   H180      1.0  0.5112919541039229  0.47340108663201064  0.8557976917350248  1.0000
  C   C271      1.0  0.6154339730044369  0.4849455447958883  0.6816265624567737  1.0000
  C   C272      1.0  0.6087636826744904  0.47901343305700644  0.7249126454766899  1.0000
  C   C273      1.0  0.6090264907472317  0.49117073538780637  0.7547224109332437  1.0000
  C   C274      1.0  0.6153377311194652  0.5095759814445298  0.741142765355947  1.0000
  C   C275      1.0  0.6218301596250879  0.5155875667848776  0.6977332578644552  1.0000
  C   C276      1.0  0.6222632717526155  0.5030842836943455  0.6680681030825653  1.0000
  H   H181      1.0  0.60366231053642  0.46489183470689815  0.7354870389714508  1.0000
  H   H182      1.0  0.6040032847428429  0.48645159829356055  0.7882856962179504  1.0000
  H   H183      1.0  0.6267889377261013  0.5297184207901646  0.6869624784920848  1.0000
  H   H184      1.0  0.6275139645214255  0.5076517621745036  0.6345476699655772  1.0000
  C   C277      1.0  0.529498036861431  0.3610623185750898  0.6428613985831078  1.0000
  C   C278      1.0  0.5267246076897485  0.37510586553621744  0.6704251233672135  1.0000
  C   C279      1.0  0.5435012844524193  0.380771439267307  0.6789727513972573  1.0000
  C   C280      1.0  0.5631285848384087  0.37284612874565115  0.6592848154892527  1.0000
  C   C281      1.0  0.5660680175181956  0.35772971163266987  0.6339122710381999  1.0000
  C   C282      1.0  0.5492115336931676  0.351756705928373  0.6258132294831943  1.0000
  H   H185      1.0  0.511519680078323  0.3818791910320515  0.6846538972123608  1.0000
  H   H186      1.0  0.5411336580775676  0.3912248717658666  0.7009745893737592  1.0000
  H   H187      1.0  0.5812633117843129  0.35119926639541094  0.6191661010267852  1.0000
  H   H188      1.0  0.5514223125528347  0.34075085525997634  0.6046371541957417  1.0000
  C   C283      1.0  0.6188498304740983  0.2822541216617033  0.7002137857717995  1.0000
  C   C284      1.0  0.6396444934810092  0.2739543901142398  0.6972595643378761  1.0000
  C   C285      1.0  0.6537501195857384  0.28197556807861324  0.6642086939414462  1.0000
  C   C286      1.0  0.6469573636121133  0.29829131686742644  0.6343220816874903  1.0000
  C   C287      1.0  0.6261507324928556  0.30630897984426586  0.6370351260703352  1.0000
  C   C288      1.0  0.6121350552929954  0.2982285578969389  0.6696687970543845  1.0000
  H   H189      1.0  0.6447833046056405  0.2611993340812754  0.7199252430873692  1.0000
  H   H190      1.0  0.6697816936733649  0.275431712139282  0.6613995156950199  1.0000
  H   H191      1.0  0.6208186769477636  0.3187401073624634  0.6136130381335626  1.0000
  H   H192      1.0  0.5960663828552352  0.30450805626268007  0.6712841947770796  1.0000
  C   C289      1.0  0.6824566480147607  0.1761661456779623  0.8025745195562736  1.0000
  C   C290      1.0  0.694588258534837  0.15821926395856095  0.7901540198048811  1.0000
  C   C291      1.0  0.7148228703729442  0.15264951311574948  0.7958350409721705  1.0000
  C   C292      1.0  0.7230772304494478  0.1650461936125491  0.8137363520474868  1.0000
  C   C293      1.0  0.7110711831351471  0.18319472628325034  0.8258632361295943  1.0000
  C   C294      1.0  0.6906437436660454  0.18874012829164905  0.8204214410157424  1.0000
  H   H193      1.0  0.688293186693422  0.14848600514266436  0.7764156868586226  1.0000
  H   H194      1.0  0.7240863704589827  0.13863149586810375  0.7864870689474232  1.0000
  H   H195      1.0  0.7175479297680359  0.19283146815560445  0.8393969782700597  1.0000
  H   H196      1.0  0.6812690662059553  0.20268476656546322  0.8296957830681341  1.0000
  C   C295      1.0  0.6464998256091645  0.32154275182988223  0.8253986603434001  1.0000
  C   C296      1.0  0.6362007836323252  0.30827077038655987  0.8157888359995235  1.0000
  C   C297      1.0  0.6352961116569518  0.2897285548720866  0.8415770540756885  1.0000
  C   C298      1.0  0.6447100460384032  0.2842379620548219  0.8772900735635594  1.0000
  C   C299      1.0  0.6552251481114004  0.297425745140859  0.8869328268785874  1.0000
  C   C300      1.0  0.6562303390749363  0.3160728933706459  0.8607817442331849  1.0000
  H   H197      1.0  0.6293236368825015  0.31207388362453126  0.7877203432523179  1.0000
  H   H198      1.0  0.6274862816998819  0.2796470042277451  0.8332300873652273  1.0000
  H   H199      1.0  0.6626453591987522  0.2932301439384406  0.914423794052967  1.0000
  H   H200      1.0  0.664234600417982  0.3262831440357007  0.8684366943409233  1.0000
  C   C301      1.0  0.5726147705146901  0.196298564022915  0.6236070890113271  1.0000
  C   C302      1.0  0.5857239325146061  0.206418905955593  0.5926849075274327  1.0000
  C   C303      1.0  0.5806073676082334  0.22742471971947562  0.5819155489136265  1.0000
  C   C304      1.0  0.5623359579694924  0.2383190951114958  0.6018395702216671  1.0000
  C   C305      1.0  0.5492277911245574  0.22813359853657716  0.6326697631073225  1.0000
  C   C306      1.0  0.5544803515777231  0.20716876856340039  0.6440125702130647  1.0000
  H   H201      1.0  0.5997996468425514  0.1980510658810065  0.5769090835313175  1.0000
  H   H202      1.0  0.5908127675719449  0.23527610695150147  0.558055424141069  1.0000
  H   H203      1.0  0.5349703529634243  0.23633911963021992  0.6474678370456943  1.0000
  H   H204      1.0  0.5442322714129042  0.19940109160039154  0.6677532849985024  1.0000
  C   C307      1.0  0.576640719133216  0.15202238048091662  0.8578096885867037  1.0000
  C   C308      1.0  0.5929429511111711  0.15819523332699406  0.8672808775608509  1.0000
  C   C309      1.0  0.5898425606621188  0.1768091067824453  0.881593178572355  1.0000
  C   C310      1.0  0.570323334734633  0.18884602807409162  0.8881864316568538  1.0000
  C   C311      1.0  0.5538497967171978  0.1820545847981951  0.8812736894826769  1.0000
  C   C312      1.0  0.557071477625727  0.16386124254342693  0.8652859631885935  1.0000
  H   H205      1.0  0.6080957693781094  0.14909420246349625  0.861746279289873  1.0000
  H   H206      1.0  0.6026241079758072  0.1818706708005791  0.8872196398649912  1.0000
  H   H207      1.0  0.5387164168709362  0.191062039921518  0.8867574165389123  1.0000
  H   H208      1.0  0.5444002339148093  0.1590809422305315  0.8583407838776896  1.0000
  C   C313      1.0  0.4386355215803508  0.1915235934720757  0.8299778602608596  1.0000
  C   C314      1.0  0.4539402861165583  0.17607695151846817  0.8142325884776233  1.0000
  C   C315      1.0  0.47414962605047667  0.17853922489310045  0.8036861276083934  1.0000
  C   C316      1.0  0.4790444483157047  0.19624748108742793  0.8097988156675834  1.0000
  C   C317      1.0  0.4639149135533227  0.21111645306754945  0.8281134071535707  1.0000
  C   C318      1.0  0.44368343847589936  0.20879649941219683  0.8380256411618332  1.0000
  H   H209      1.0  0.4500699904517683  0.16273951760246197  0.8077385080191994  1.0000
  H   H210      1.0  0.48570939895239645  0.16709290576067104  0.7890539153036881  1.0000
  H   H211      1.0  0.46765708076785173  0.2248490059429074  0.8327056825168347  1.0000
  H   H212      1.0  0.43193855961392313  0.2206346758578171  0.8508186611085722  1.0000
  C   C319      1.0  0.43842799705590785  0.28110729823110125  0.8471529203403865  1.0000
  C   C320      1.0  0.4474221085717947  0.2692154766793143  0.8149976828134562  1.0000
  C   C321      1.0  0.46741963257847574  0.2695641367579595  0.7938974794340604  1.0000
  C   C322      1.0  0.47865339508024757  0.28135747855187476  0.8058871775400247  1.0000
  C   C323      1.0  0.469890502522135  0.29286254624697716  0.8387050647776094  1.0000
  C   C324      1.0  0.44974609723056974  0.2928883099258495  0.8589968909091057  1.0000
  H   H213      1.0  0.43910216580592876  0.2596663386410577  0.8065279901443599  1.0000
  H   H214      1.0  0.47433848633654124  0.26035557404521714  0.7690657017695282  1.0000
  H   H215      1.0  0.47853920073242007  0.3020488624912732  0.8479545634221219  1.0000
  H   H216      1.0  0.4428930756458485  0.3020978571088259  0.8838888143828417  1.0000
  C   C325      1.0  0.4702907464840666  0.23312965103407715  0.5528737536414919  1.0000
  C   C326      1.0  0.48578487960812755  0.24221929965697295  0.5573410222445815  1.0000
  C   C327      1.0  0.4809785334301949  0.25991750267837194  0.5759151883448398  1.0000
  C   C328      1.0  0.4606594953498835  0.26877440675791586  0.5892524087992304  1.0000
  C   C329      1.0  0.4451941411857534  0.26076413880641025  0.5810733063564918  1.0000
  C   C330      1.0  0.4500009586988098  0.24285181521376606  0.563241976033487  1.0000
  H   H217      1.0  0.5014994228984998  0.2351677805841251  0.5485782054731834  1.0000
  H   H218      1.0  0.49301609063129304  0.2662582012124054  0.5813324254460703  1.0000
  H   H219      1.0  0.42943839048238486  0.26781698606724885  0.5905025172056315  1.0000
  H   H220      1.0  0.4379449208386075  0.23635848073867965  0.5584635656888188  1.0000
  C   C331      1.0  0.4471278509605318  0.14169930134593012  0.7086279405725947  1.0000
  C   C332      1.0  0.46384502183325743  0.14963993646702883  0.6855256340934931  1.0000
  C   C333      1.0  0.48341461983542944  0.14048279771906835  0.693397145565755  1.0000
  C   C334      1.0  0.48625637004960415  0.12330729092391403  0.7240694874128238  1.0000
  C   C335      1.0  0.46948499583208125  0.11547362079716078  0.7472651593401574  1.0000
  C   C336      1.0  0.4498787258751398  0.1248384511208576  0.739964648326437  1.0000
  H   H221      1.0  0.4617500186951376  0.1627485978596773  0.661441245365209  1.0000
  H   H222      1.0  0.4963730480328992  0.14629954357476405  0.6748068878283106  1.0000
  H   H223      1.0  0.4716835822054017  0.10223407052096131  0.7710935368049912  1.0000
  H   H224      1.0  0.43695259608676734  0.11871163428978398  0.7579328947293522  1.0000
  C   C337      1.0  0.37202795423203217  0.23935837450654845  0.6157563330966593  1.0000
  C   C338      1.0  0.3639608718307709  0.2600747838116734  0.6103678086365066  1.0000
  C   C339      1.0  0.3626895107132027  0.27136326424843493  0.6427464816204844  1.0000
  C   C340      1.0  0.3691210133438495  0.2619311573088794  0.6809686545394994  1.0000
  C   C341      1.0  0.37683428837120936  0.24109880292949995  0.6869208128433749  1.0000
  C   C342      1.0  0.37831821984158615  0.22981813077197857  0.6542212452630783  1.0000
  H   H225      1.0  0.35907265359971635  0.2674927052401315  0.5807749718752766  1.0000
  H   H226      1.0  0.35666952325134704  0.28745186630015435  0.6381267821213606  1.0000
  H   H227      1.0  0.3816925596614099  0.23377047880488308  0.7165213619294608  1.0000
  H   H228      1.0  0.38403328376836726  0.2137227173529998  0.6588728165046848  1.0000
  C   C343      1.0  0.37802076872404566  0.10785309865482413  0.5208465273050861  1.0000
  C   C344      1.0  0.3811531622822659  0.11688143850354286  0.5533308513710835  1.0000
  C   C345      1.0  0.3974776759546909  0.12676284271998114  0.5465347363873395  1.0000
  C   C346      1.0  0.41076404814130996  0.12751025848314457  0.5074005876476874  1.0000
  C   C347      1.0  0.40835667594581143  0.11740125156620344  0.47599251585022656  1.0000
  C   C348      1.0  0.39200473161903343  0.10761812316173462  0.48269779179230565  1.0000
  H   H229      1.0  0.37049531136557395  0.11687072357480749  0.5831138278938356  1.0000
  H   H230      1.0  0.3995724864925714  0.13389729808890788  0.5714465702373642  1.0000
  H   H231      1.0  0.41884761265666126  0.11752881245496952  0.44597934421006025  1.0000
  H   H232      1.0  0.39031043362091206  0.09978139325786355  0.4584045220404534  1.0000
  C   C349      1.0  0.2569884703576217  0.11070533025275313  0.42537123507494257  1.0000
  C   C350      1.0  0.2631280590045158  0.08974438063910872  0.4341908135623652  1.0000
  C   C351      1.0  0.2511912907235959  0.07716125050218847  0.42703770273658437  1.0000
  C   C352      1.0  0.23375031047610306  0.08550650542128795  0.408960599909561  1.0000
  C   C353      1.0  0.22784988202205467  0.10645048957868924  0.39949219464622965  1.0000
  C   C354      1.0  0.23918375223233615  0.1190212179279821  0.4086523724949876  1.0000
  H   H233      1.0  0.2766737791176484  0.0832785665964009  0.44782576194542034  1.0000
  H   H234      1.0  0.2555324188015436  0.06098069226183389  0.4353566661192538  1.0000
  H   H235      1.0  0.21422195581275802  0.11297901124821338  0.3861998492038171  1.0000
  H   H236      1.0  0.23411279093316845  0.13520017587891422  0.40275026183400703  1.0000
  C   C355      1.0  0.3461053537699866  0.0509174016954995  0.3372831499177817  1.0000
  C   C356      1.0  0.3303761914684444  0.046400453045712345  0.3703353455657687  1.0000
  C   C357      1.0  0.32115377545870377  0.03031651139788137  0.3700152355512333  1.0000
  C   C358      1.0  0.3273616895715538  0.01910853225397538  0.3361314795270653  1.0000
  C   C359      1.0  0.3427398005070637  0.023963769476703502  0.30276487355952514  1.0000
  C   C360      1.0  0.352263098798973  0.03968512720287882  0.3035281621378209  1.0000
  H   H237      1.0  0.32561540441104436  0.05499052827854708  0.39657263727563613  1.0000
  H   H238      1.0  0.3093511451782092  0.026520269558407153  0.39618007248701964  1.0000
  H   H239      1.0  0.3476877283241021  0.015287339072239862  0.276769195720941  1.0000
  H   H240      1.0  0.36437051196106657  0.04316767265571954  0.2778079836743585  1.0000
  C   C361      1.0  0.3293951984829572  0.17786948655505386  0.9777445732036725  1.0000
  C   C362      1.0  0.3115368667109644  0.19227474500243916  0.98597331227386  1.0000
  C   C363      1.0  0.3105385960482114  0.2123215354729199  0.9662481440196079  1.0000
  C   C364      1.0  0.32743079248647144  0.2179965147193555  0.9383478109485449  1.0000
  C   C365      1.0  0.3449127121466882  0.20334369953835785  0.928184977828732  1.0000
  C   C366      1.0  0.3458613439371169  0.18324588886751822  0.9477519386094199  1.0000
  H   H241      1.0  0.29853772764846415  0.1880135018404463  0.008018183337872095  1.0000
  H   H242      1.0  0.29689723066185036  0.22355214359511197  0.9737043135480624  1.0000
  H   H243      1.0  0.35800803164328343  0.2075773763160111  0.9065973807362924  1.0000
  H   H244      1.0  0.3597037021028238  0.1721170461263098  0.9413674576866767  1.0000
  C   C367      1.0  0.3402605009647762  0.18754402871753392  0.22130735261698276  1.0000
  C   C368      1.0  0.3467924385058365  0.19959630087589922  0.24347733867363783  1.0000
  C   C369      1.0  0.3500636262825909  0.192499320590734  0.28527295862510477  1.0000
  C   C370      1.0  0.3469447366151228  0.17329590673851095  0.30482142160123665  1.0000
  C   C371      1.0  0.34096379394130294  0.16103743453474084  0.2821598907598328  1.0000
  C   C372      1.0  0.33746569111306896  0.16820253285410966  0.2405192967690673  1.0000
  H   H245      1.0  0.3490032804074109  0.21454825440040917  0.22861628585021412  1.0000
  H   H246      1.0  0.3547946883991752  0.20199711797320416  0.30259373469180867  1.0000
  H   H247      1.0  0.3389688115744273  0.14610465116166985  0.2966848756210208  1.0000
  H   H248      1.0  0.3325522431826693  0.15880432163087493  0.2233419954290058  1.0000
  C   C373      1.0  0.3381731548121358  0.051214936676733526  0.15287335939685442  1.0000
  C   C374      1.0  0.3344098694757608  0.06982665398273225  0.12661868605153512  1.0000
  C   C375      1.0  0.32522761756518126  0.08748217608238472  0.14467859345107964  1.0000
  C   C376      1.0  0.3200294311041045  0.08647251196851242  0.1889745353278568  1.0000
  C   C377      1.0  0.3246569271301581  0.06803923905266908  0.2150904028434894  1.0000
  C   C378      1.0  0.33358494945051226  0.05045774546932306  0.1970338640081  1.0000
  H   H249      1.0  0.3380593335390438  0.07048694881779065  0.0923792880407892  1.0000
  H   H250      1.0  0.3219691343944431  0.10176134670097522  0.12429440311140769  1.0000
  H   H251      1.0  0.3214229826276467  0.06734966847094047  0.2493152887474742  1.0000
  H   H252      1.0  0.3370323717803094  0.03624302894084687  0.21720352360758746  1.0000
  C   C379      1.0  0.2291359498564723  0.18228776705120125  0.18157783683574438  1.0000
  C   C380      1.0  0.23549626275618032  0.16610031755813542  0.21218720397171315  1.0000
  C   C381      1.0  0.22126145117915588  0.15936162757876116  0.24654955044282695  1.0000
  C   C382      1.0  0.20083734824988825  0.16924012736367372  0.25096356225242644  1.0000
  C   C383      1.0  0.194738154831512  0.1860585224698064  0.2216143235501336  1.0000
  C   C384      1.0  0.20882129929880133  0.1924033315692655  0.1866584012363197  1.0000
  H   H253      1.0  0.25114214567046134  0.1581493645839669  0.20833698161097552  1.0000
  H   H254      1.0  0.2260620627781427  0.14650517985888575  0.26951724583814696  1.0000
  H   H255      1.0  0.17898235852261007  0.19376761630081665  0.22502496522494514  1.0000
  H   H256      1.0  0.20389660108567775  0.2049828527676256  0.16313506767657784  1.0000
  N   N1        1.0  0.9818818907989428  0.8888582466868789  0.3289778246382995  1.0000
  C   C385      1.0  0.9599353332263739  0.8892486775455082  0.33390552613582325  1.0000
  C   C386      1.0  0.988292985020185  0.902730968680891  0.2903940726955787  1.0000
  C   C387      1.0  0.9934760130665895  0.86812597987416  0.3249920511738289  1.0000
  C   C388      1.0  0.9857842447430559  0.8953437676199422  0.3667275672449173  1.0000
  H   H257      1.0  0.9506401513211287  0.9043183076774826  0.33959460131715  1.0000
  H   H258      1.0  0.9548164834976121  0.878068296018083  0.3612618953848923  1.0000
  H   H259      1.0  0.9561982934138109  0.8855016825986426  0.30504100187236083  1.0000
  H   H260      1.0  0.9846720184317608  0.8989297149467684  0.2614455551110544  1.0000
  H   H261      1.0  0.9804945203958986  0.9186184438527771  0.29316118059871576  1.0000
  H   H262      1.0  0.00491993115622135  0.9022222325747121  0.28467031271316223  1.0000
  H   H263      1.0  0.9909034828689203  0.8628477651038656  0.2966940646231977  1.0000
  H   H264      1.0  0.9887128622901523  0.8571656788983443  0.35317704778510084  1.0000
  H   H265      1.0  0.010093948893250087  0.8671359632420211  0.3216486712539355  1.0000
  H   H266      1.0  0.0021974836785052373  0.8952312370730406  0.36419601697146775  1.0000
  H   H267      1.0  0.9809956981839552  0.8852502704136322  0.39642282779553906  1.0000
  H   H268      1.0  0.9772485616050496  0.9109900223902037  0.370514593531438  1.0000
  N   N2        1.0  0.5571846459996119  0.2386995936666486  0.7473740284451033  1.0000
  C   C389      1.0  0.5585192212019546  0.24343486363163516  0.7890132544570211  1.0000
  C   C390      1.0  0.5758330311490835  0.2246361443577896  0.7313044674353603  1.0000
  C   C391      1.0  0.5548489273467079  0.2574888221307599  0.7167302891658808  1.0000
  C   C392      1.0  0.5394236263222072  0.229327348905185  0.7525768778644963  1.0000
  H   H269      1.0  0.5444628291235944  0.2537926335906784  0.802037303503277  1.0000
  H   H270      1.0  0.5713702763121207  0.2510577054111126  0.7863107714226699  1.0000
  H   H271      1.0  0.5608004459684035  0.22953993392597546  0.8127808720048435  1.0000
  H   H272      1.0  0.5894510121682025  0.23150356704006833  0.7263451858766276  1.0000
  H   H273      1.0  0.5782034008382955  0.21034345605238522  0.7539036732696904  1.0000
  H   H274      1.0  0.575096491992834  0.22075619975059696  0.7000373722567029  1.0000
  H   H275      1.0  0.5530353391337248  0.2547687231928134  0.6852876724162847  1.0000
  H   H276      1.0  0.5682849286560899  0.26466016458215785  0.711010326918568  1.0000
  H   H277      1.0  0.5413978325019257  0.26864268163704946  0.7287897135904126  1.0000
  H   H278      1.0  0.5381168022987086  0.22485498187837827  0.722437908953162  1.0000
  H   H279      1.0  0.5249680799822433  0.23984309019654976  0.7629126052684676  1.0000
  H   H280      1.0  0.5404615547486539  0.21548638272273146  0.7767232163296346  1.0000
  N   N3        1.0  0.9057456505341607  0.9866429112988617  0.1897520195317841  1.0000
  C   C393      1.0  0.9163154837569618  0.9674571411297452  0.17400611916277506  1.0000
  C   C394      1.0  0.8844697991951099  0.9854782436663627  0.20899882314360846  1.0000
  C   C395      1.0  0.9060758346860407  0.0034267010740385295  0.1538943828198496  1.0000
  C   C396      1.0  0.9161072960622187  0.990242271304484  0.22216489989397942  1.0000
  H   H281      1.0  0.9325912261370046  0.9675567874552949  0.1602357399966492  1.0000
  H   H282      1.0  0.9092297711421212  0.9643764986231566  0.14884702477942055  1.0000
  H   H283      1.0  0.9159683122292379  0.9544055551113827  0.2000286208679127  1.0000
  H   H284      1.0  0.8761249226945615  0.9997059909652779  0.22143390340356658  1.0000
  H   H285      1.0  0.8761501308995309  0.9828569217040919  0.18539202695166823  1.0000
  H   H286      1.0  0.8837075299088841  0.9729209388457324  0.23614108076351906  1.0000
  H   H287      1.0  0.8991579664472638  0.0008635125788363229  0.1279561822613841  1.0000
  H   H288      1.0  0.9218859049097615  0.005416451097294717  0.14010071701425753  1.0000
  H   H289      1.0  0.8974763839232764  0.018016064084921624  0.16434404969366148  1.0000
  H   H290      1.0  0.9156587250273985  0.9782099087092988  0.25034549343465984  1.0000
  H   H291      1.0  0.90895929825949  0.004946250540991182  0.23369430848316222  1.0000
  H   H292      1.0  0.9323642840815525  0.990586728631158  0.20909938772385228  1.0000
  N   N4        1.0  0.9685728372271735  0.07611083666537134  0.12977558651262266  1.0000
  C   C397      1.0  0.9705118374655206  0.054018834967909345  0.14120356068725207  1.0000
  C   C398      1.0  0.9472180058316592  0.08622930121925837  0.14261196804544138  1.0000
  C   C399      1.0  0.9747527635190324  0.08113896277006294  0.08325363423248365  1.0000
  C   C400      1.0  0.9818071088068677  0.08301025583700551  0.15190059170035597  1.0000
  H   H293      1.0  0.9603224811455261  0.04832205830624765  0.1260367709111619  1.0000
  H   H294      1.0  0.9663532639043346  0.049657510818357405  0.17607876523864302  1.0000
  H   H295      1.0  0.9863998331338162  0.04586941986154036  0.13165952949328896  1.0000
  H   H296      1.0  0.9452543477716512  0.10294912740537761  0.13521722404485106  1.0000
  H   H297      1.0  0.9369143984791144  0.08173714790436173  0.12564379209734294  1.0000
  H   H298      1.0  0.9417369227924042  0.08228890438367605  0.17727986920544184  1.0000
  H   H299      1.0  0.9909248290707069  0.07417541508512991  0.07246788774373326  1.0000
  H   H300      1.0  0.9729855147370348  0.09771361499624383  0.07333392858408318  1.0000
  H   H301      1.0  0.9652292419378015  0.0758886844524211  0.06565016474072473  1.0000
  H   H302      1.0  0.9810185275750092  0.0995705188231776  0.14346011786761864  1.0000
  H   H303      1.0  0.9979906680210481  0.07539110587741792  0.143516660753428  1.0000
  H   H304      1.0  0.9774532089358757  0.07955237547348847  0.18710967175715695  1.0000
  N   N5        1.0  0.7272056296116433  0.6090333342362926  0.07937061043042318  1.0000
  C   C401      1.0  0.7457236624807024  0.6116149587598755  0.09209067417491697  1.0000
  C   C402      1.0  0.7143590005354512  0.6290245106744384  0.06825222852244132  1.0000
  C   C403      1.0  0.7156387847165986  0.5971414347669586  0.1147777818331604  1.0000
  C   C404      1.0  0.7331314179997186  0.5982047896697372  0.04215987734745175  1.0000
  H   H305      1.0  0.7419991900904638  0.6196189283525999  0.12027198328083104  1.0000
  H   H306      1.0  0.7548130166163561  0.6203966309972784  0.0657040007150413  1.0000
  H   H307      1.0  0.7559099303384899  0.5967712145392269  0.09992188995023056  1.0000
  H   H308      1.0  0.7093959672307008  0.6375269257137903  0.09577706404053483  1.0000
  H   H309      1.0  0.722636088768078  0.6384371554939049  0.04179197797091152  1.0000
  H   H310      1.0  0.70040711929046  0.6275616722581866  0.05785454489668901  1.0000
  H   H311      1.0  0.7016638875478655  0.5948701611077584  0.10569247469525851  1.0000
  H   H312      1.0  0.7108178906602791  0.6048052561739132  0.143530711788765  1.0000
  H   H313      1.0  0.7248585988600054  0.5819068899816774  0.12376219093874606  1.0000
  H   H314      1.0  0.7196525960998996  0.5959667632942657  0.03150472000328603  1.0000
  H   H315      1.0  0.7427108765491691  0.5830418701747533  0.04978074312524203  1.0000
  H   H316      1.0  0.742054415372941  0.606541374480975  0.014707987926418385  1.0000
  N   N6        1.0  0.672014948532702  0.45276002959853046  0.7301133777618988  1.0000
  C   C405      1.0  0.6657229957381029  0.44454925383369875  0.6973207119304642  1.0000
  C   C406      1.0  0.6574401947632865  0.4505323315964861  0.7704952858390095  1.0000
  C   C407      1.0  0.6723607996627589  0.47437139147106516  0.7158172873198236  1.0000
  C   C408      1.0  0.6925219480767306  0.44164367712279246  0.7368468163374642  1.0000
  H   H317      1.0  0.6503520949301158  0.45261358018087117  0.6912214144410468  1.0000
  H   H318      1.0  0.6652400789903176  0.428287874074201  0.7070459755610988  1.0000
  H   H319      1.0  0.6765057577910984  0.44579621706510025  0.6665168390553358  1.0000
  H   H320      1.0  0.6618229231908994  0.45642286233341495  0.7960547410379213  1.0000
  H   H321      1.0  0.6418310023349862  0.4587283978993034  0.7667474456475861  1.0000
  H   H322      1.0  0.656713484257921  0.4344406944792484  0.7823546216049942  1.0000
  H   H323      1.0  0.657086583111445  0.4831544967609547  0.7105695043614975  1.0000
  H   H324      1.0  0.6831596953793303  0.4766379956171011  0.6853489357493618  1.0000
  H   H325      1.0  0.6769803159667569  0.48106317058161185  0.7398890781874448  1.0000
  H   H326      1.0  0.6926936420464118  0.4253611642489836  0.748277633176576  1.0000
  H   H327      1.0  0.6978423536429267  0.44747956665750666  0.761237128413971  1.0000
  H   H328      1.0  0.7038860993285321  0.4426017758249217  0.7068672949578327  1.0000
  N   N7        1.0  0.0024688763163489076  0.7818147160189088  0.043892037307614595  1.0000
  C   C409      1.0  0.9877680794597039  0.7979730183232111  0.023367081244350052  1.0000
  C   C410      1.0  0.005059188647572105  0.7630957193149326  0.025663422742462583  1.0000
  C   C411      1.0  0.9948196738131762  0.7781302294899441  0.09018245746449205  1.0000
  C   C412      1.0  0.022222344277250953  0.7880559807709233  0.036433479614495834  1.0000
  H   H329      1.0  0.9727896274115392  0.7935506926180987  0.02766015826008661  1.0000
  H   H330      1.0  0.9932256125426726  0.801429950414067  0.9885557988484467  1.0000
  H   H331      1.0  0.9850981668806705  0.8122079302551394  0.03712812446637681  1.0000
  H   H332      1.0  0.01606612053745921  0.7505622689388133  0.0405050452086666  1.0000
  H   H333      1.0  0.9903782361045458  0.7579804332334291  0.03096083518599957  1.0000
  H   H334      1.0  0.01081055507325657  0.7652794912971341  0.9907878146800735  1.0000
  H   H335      1.0  0.9799998307093846  0.7732146707511249  0.09700371236849437  1.0000
  H   H336      1.0  0.9924458554249295  0.792016013896368  0.1049172620295753  1.0000
  H   H337      1.0  0.005688439087444808  0.7661543663679092  0.10671178125812708  1.0000
  H   H338      1.0  0.03362450618248818  0.7761921141010768  0.05176689124064415  1.0000
  H   H339      1.0  0.020701118189740065  0.8022219443541827  0.049756070142361164  1.0000
  H   H340      1.0  0.028546133738362324  0.7908783032488651  0.0018812058667863063  1.0000
  N   N8        1.0  0.3921610272904315  0.6246061822118475  0.41139093162347706  1.0000
  C   C413      1.0  0.40059348956338553  0.6105112502727065  0.4465642328757985  1.0000
  C   C414      1.0  0.4079873791952838  0.6351184612310374  0.3848527762637562  1.0000
  C   C415      1.0  0.3747820474745314  0.6396186788834841  0.4291820156890169  1.0000
  C   C416      1.0  0.38527274546253937  0.6132198468188164  0.3849514588355351  1.0000
  H   H341      1.0  0.40560684596154883  0.6186896939947488  0.46743708865628814  1.0000
  H   H342      1.0  0.41402287098226787  0.5992139334441147  0.4344382499946218  1.0000
  H   H343      1.0  0.3891124033033224  0.602175101364217  0.46701338432765027  1.0000
  H   H344      1.0  0.4022208605409885  0.64549246014138  0.35740182864827735  1.0000
  H   H345      1.0  0.41311348039432383  0.6443264465000639  0.40352659636403027  1.0000
  H   H346      1.0  0.42160789236508256  0.6243051441378026  0.3717689492301133  1.0000
  H   H347      1.0  0.36801702068637715  0.650461325568486  0.40354007874269576  1.0000
  H   H348      1.0  0.3794739364374807  0.6486217888793364  0.44900487243988757  1.0000
  H   H349      1.0  0.3625271589797802  0.6323244192421749  0.4496044234931941  1.0000
  H   H350      1.0  0.37893598958350194  0.6234159568903981  0.3579393082273465  1.0000
  H   H351      1.0  0.3731395579782024  0.6052934332144929  0.4037919302297787  1.0000
  H   H352      1.0  0.3980108485086307  0.6017540782667881  0.3710507841685667  1.0000
  N   N9        1.0  0.5008373438280699  0.23646181277294176  0.9046955790896279  1.0000
  C   C417      1.0  0.5091788513748318  0.2277301720922714  0.864948387277374  1.0000
  C   C418      1.0  0.47839552807498026  0.2408840968746096  0.9109586849008352  1.0000
  C   C419      1.0  0.508208289785223  0.2552667050781643  0.9016782144685622  1.0000
  C   C420      1.0  0.5076409045025245  0.22188652057271288  0.9410045219469145  1.0000
  H   H353      1.0  0.526061011818929  0.22491540054240342  0.8582781523472197  1.0000
  H   H354      1.0  0.5036221404744073  0.23792467731181316  0.8370651444859534  1.0000
  H   H355      1.0  0.5046519935034921  0.2130576333489443  0.8668451071476673  1.0000
  H   H356      1.0  0.4724070838822118  0.22696794097990483  0.9131715978201019  1.0000
  H   H357      1.0  0.47145612027276024  0.24769690089891733  0.9404395446134914  1.0000
  H   H358      1.0  0.47279044836210415  0.2516776869575739  0.883930822830995  1.0000
  H   H359      1.0  0.5018421864029153  0.26260001404221495  0.9306796150357245  1.0000
  H   H360      1.0  0.5038409716366871  0.2663728628723372  0.8738631842302547  1.0000
  H   H361      1.0  0.5251004595955607  0.252261823793292  0.8977865294826826  1.0000
  H   H362      1.0  0.5026360400930351  0.20737501135660008  0.943812755713404  1.0000
  H   H363      1.0  0.5015588099240285  0.2279366475699553  0.971611650599866  1.0000
  H   H364      1.0  0.5245214163168584  0.21827380357943887  0.93733258674617  1.0000
  N   N10       1.0  0.44825620266804383  0.6314609584985101  0.6913775008865921  1.0000
  C   C421      1.0  0.43194694294937214  0.6221844203543946  0.6852715479266601  1.0000
  C   C422      1.0  0.44021570953755196  0.6447502063399208  0.7244534662406282  1.0000
  C   C423      1.0  0.45594938971344745  0.6434617847773436  0.6509676347170095  1.0000
  C   C424      1.0  0.46499996711041164  0.6154074383371481  0.7049911053843084  1.0000
  H   H365      1.0  0.4374883835457936  0.6122993943067626  0.660011049502397  1.0000
  H   H366      1.0  0.41886824545722023  0.6338298857195129  0.6756180448827487  1.0000
  H   H367      1.0  0.42615640790588494  0.6126149428257448  0.7149719619701865  1.0000
  H   H368      1.0  0.45227884542202496  0.6518446592981761  0.7297838970016262  1.0000
  H   H369      1.0  0.42750382913937957  0.6570567472232453  0.7154204270753266  1.0000
  H   H370      1.0  0.434522875039478  0.6361232923748464  0.7555641467436953  1.0000
  H   H371      1.0  0.46847564594073615  0.65042674753388  0.65442277357439  1.0000
  H   H372      1.0  0.44375164655180027  0.6557147220598079  0.6395177482675906  1.0000
  H   H373      1.0  0.46235387518666166  0.6338666564016835  0.6254866343990203  1.0000
  H   H374      1.0  0.4600478571161712  0.6070623344198368  0.7368242209822534  1.0000
  H   H375      1.0  0.4781986738991343  0.621700900737788  0.7072164282086112  1.0000
  H   H376      1.0  0.4706954450412624  0.6043320519765569  0.6821606303533972  1.0000
  N   N11       1.0  0.6978717697850637  0.268172262009784  0.7729645006600556  1.0000
  C   C425      1.0  0.714519712058051  0.25552318735176816  0.7469615179131119  1.0000
  C   C426      1.0  0.7039090947911815  0.2869441226643444  0.7764527370238191  1.0000
  C   C427      1.0  0.6933081665830674  0.25672559503081444  0.8158851287170648  1.0000
  C   C428      1.0  0.6797275966432855  0.2733920615079815  0.7526170761101393  1.0000
  H   H377      1.0  0.7108616492160691  0.2407050449605386  0.7463239621388367  1.0000
  H   H378      1.0  0.7289417592264982  0.25250277567330914  0.7595606834637988  1.0000
  H   H379      1.0  0.7174122501419674  0.26297149786616925  0.713444498581239  1.0000
  H   H380      1.0  0.6922011191317414  0.296043428629594  0.7984647133726323  1.0000
  H   H381      1.0  0.718474410483398  0.2836634943823866  0.7885265635721852  1.0000
  H   H382      1.0  0.7060702889226577  0.29674202656749193  0.7451455710442849  1.0000
  H   H383      1.0  0.6879133540247931  0.24287036544654908  0.8148480929868767  1.0000
  H   H384      1.0  0.681418912853823  0.2659403110398144  0.837172492177062  1.0000
  H   H385      1.0  0.7070247013693275  0.2521004356072245  0.8310814763626486  1.0000
  H   H386      1.0  0.6754585033642991  0.2596583121497257  0.7470691937135545  1.0000
  H   H387      1.0  0.6824484840754522  0.2830263257385984  0.7211657286089265  1.0000
  H   H388      1.0  0.666502219275124  0.28188453214865716  0.7725019489455507  1.0000
  N   N12       1.0  0.5620126337448494  0.5394209689609568  0.6548756140378404  1.0000
  C   C429      1.0  0.5812014644464797  0.545178140038556  0.6313041668898971  1.0000
  C   C430      1.0  0.5542349666619107  0.5289128373853232  0.6281581886997428  1.0000
  C   C431      1.0  0.5468603445686485  0.5576927193621616  0.6654016521806038  1.0000
  C   C432      1.0  0.565813642513856  0.5258793167941476  0.6946191374564591  1.0000
  H   H389      1.0  0.5928980179632681  0.5317449535486332  0.622571360900678  1.0000
  H   H390      1.0  0.5876865134339261  0.5530174724585403  0.6504615874392026  1.0000
  H   H391      1.0  0.5789021657681708  0.5556041135685141  0.6013152095131006  1.0000
  H   H392      1.0  0.5652326636002222  0.5148931843800686  0.6201356199476408  1.0000
  H   H393      1.0  0.5396186234557906  0.5245650345416869  0.6444244658892869  1.0000
  H   H394      1.0  0.5515125596738186  0.5386628452076779  0.5975320316326707  1.0000
  H   H395      1.0  0.5325919980117237  0.553876100454544  0.68536108759705  1.0000
  H   H396      1.0  0.5427282323889655  0.567678218241298  0.6361661853235854  1.0000
  H   H397      1.0  0.552751159265922  0.5666730197553056  0.683278120962892  1.0000
  H   H398      1.0  0.5516122041463524  0.5215217543904749  0.7136570905058188  1.0000
  H   H399      1.0  0.5720781892074109  0.5332443832757522  0.7151236723312674  1.0000
  H   H400      1.0  0.5768863520845827  0.5117390106666546  0.6880342918185044  1.0000
  N   N13       1.0  0.7692067176242926  0.6647684127908826  0.819323749975715  1.0000
  C   C433      1.0  0.7478751019359255  0.6678551351812089  0.8417203690762324  1.0000
  C   C434      1.0  0.7768237674661344  0.6836336038844697  0.8136123610932403  1.0000
  C   C435      1.0  0.7703832616039427  0.6589593508118008  0.7772757308317026  1.0000
  C   C436      1.0  0.7818004976356496  0.6485498319837679  0.844730314043233  1.0000
  H   H401      1.0  0.7463714184885466  0.6725622849559071  0.8732997161040403  1.0000
  H   H402      1.0  0.7418405604097364  0.6537526905683877  0.8472195349887447  1.0000
  H   H403      1.0  0.7378111905210778  0.6797552864159336  0.8232122463400603  1.0000
  H   H404      1.0  0.7763767047176342  0.6883285376488565  0.844800814233082  1.0000
  H   H405      1.0  0.7928853090294585  0.6817706782631477  0.7966072224666292  1.0000
  H   H406      1.0  0.7676491643868284  0.6962435785956882  0.7946961700003374  1.0000
  H   H407      1.0  0.7605906778805077  0.6705182086912215  0.7575362218790718  1.0000
  H   H408      1.0  0.7654977076960569  0.6444045985129104  0.7804369633463062  1.0000
  H   H409      1.0  0.7861595287826088  0.6571170690585988  0.7590737673579943  1.0000
  H   H410      1.0  0.781678791699865  0.6527588193040513  0.8761770616498322  1.0000
  H   H411      1.0  0.7979298178910788  0.6454958029624462  0.8283176844229996  1.0000
  H   H412      1.0  0.7761258735630259  0.6342292419825922  0.8507606784497531  1.0000
  N   N14       1.0  0.44378030187195877  0.6508253772065764  0.9111931835249385  1.0000
  C   C437      1.0  0.4547488549673675  0.664258921060521  0.8782064517249389  1.0000
  C   C438      1.0  0.45345381898374953  0.6458388567424305  0.9493437266871902  1.0000
  C   C439      1.0  0.44465958021925195  0.6320331332549998  0.8947698612815403  1.0000
  C   C440      1.0  0.42234228482818537  0.6610718852940881  0.9224216392894407  1.0000
  H   H413      1.0  0.4481569793570422  0.667915326635212  0.8485723274584921  1.0000
  H   H414      1.0  0.47097883540903507  0.656959797125152  0.8694921191205663  1.0000
  H   H415      1.0  0.45413318963911253  0.6787364953923245  0.8894095296605735  1.0000
  H   H416      1.0  0.4455215200783269  0.6356794786708663  0.9748447233975918  1.0000
  H   H417      1.0  0.4695680296008668  0.6378655361491974  0.942037421885998  1.0000
  H   H418      1.0  0.4531806426471164  0.6596623758269992  0.9626391497656893  1.0000
  H   H419      1.0  0.4378979185868206  0.6350991875351396  0.86545467436334  1.0000
  H   H420      1.0  0.4362333047603512  0.6217471423766976  0.91868406704003  1.0000
  H   H421      1.0  0.46059523870987396  0.6236491482429394  0.8868855976170007  1.0000
  H   H422      1.0  0.4136439255364346  0.6513432296507945  0.9474013223819422  1.0000
  H   H423      1.0  0.41452206036373895  0.6648016030951043  0.894486468892839  1.0000
  H   H424      1.0  0.42106974473218367  0.6754128569472971  0.9348201201727452  1.0000
  N   N15       1.0  0.37191644482609343  0.17389239026974715  0.7810975058000951  1.0000
  C   C441      1.0  0.3523244733205479  0.18611284867031577  0.7709825282601016  1.0000
  C   C442      1.0  0.37151671009969506  0.17143972346439798  0.8274518971496202  1.0000
  C   C443      1.0  0.38854607115999806  0.1841471815308435  0.7579174413573531  1.0000
  C   C444      1.0  0.3753759864671551  0.15381078399743323  0.7678885686926868  1.0000
  H   H425      1.0  0.35218041285463597  0.18837060880968057  0.7361958057744098  1.0000
  H   H426      1.0  0.3492662840812836  0.20135069932085886  0.7806603000797441  1.0000
  H   H427      1.0  0.33941065715225494  0.17881461931653755  0.7878327409144105  1.0000
  H   H428      1.0  0.38612816064050015  0.16232212199995832  0.8361205978200337  1.0000
  H   H429      1.0  0.369201066700401  0.18624761938397036  0.8385896020320589  1.0000
  H   H430      1.0  0.35909651565144135  0.16384277405583125  0.8460719224675292  1.0000
  H   H431      1.0  0.3866189477259998  0.19928278180910475  0.7671216447580465  1.0000
  H   H432      1.0  0.38937190470172217  0.18612267053454667  0.7228651673306169  1.0000
  H   H433      1.0  0.40355888796078143  0.17529372072880445  0.7648711556821556  1.0000
  H   H434      1.0  0.37599401521384745  0.1550770189802536  0.732989329099572  1.0000
  H   H435      1.0  0.3631635287297745  0.14554825316656453  0.784659025418417  1.0000
  H   H436      1.0  0.390150319154407  0.1443336297906093  0.7749219961145423  1.0000
  N   N16       1.0  0.8937104364079425  0.790479488420722  0.2576399918836574  1.0000
  C   C445      1.0  0.9082070093015926  0.7754968936909691  0.2810329425148703  1.0000
  C   C446      1.0  0.9020932304182251  0.8088379633077029  0.24079175616487003  1.0000
  C   C447      1.0  0.8741608678890648  0.7957836802485165  0.2865642098861674  1.0000
  C   C448      1.0  0.8903737816798818  0.7819465963195822  0.22193720971623687  1.0000
  H   H437      1.0  0.9114449122997399  0.7816734164369245  0.307508658733056  1.0000
  H   H438      1.0  0.9228227840337923  0.7707775121444778  0.2596056805308511  1.0000
  H   H439      1.0  0.9020781571754974  0.7617158895306892  0.29544984454324674  1.0000
  H   H440      1.0  0.9058441331997817  0.8152288936574136  0.2662873654410176  1.0000
  H   H441      1.0  0.9161943800374249  0.8058548140929855  0.21672261705981755  1.0000
  H   H442      1.0  0.8909131137128388  0.8208285429820176  0.22537098136461786  1.0000
  H   H443      1.0  0.8674145447161561  0.7823509208188874  0.3005121415329872  1.0000
  H   H444      1.0  0.8628726984282296  0.8069742124585448  0.26968984432334864  1.0000
  H   H445      1.0  0.8760849970857089  0.8024771463254908  0.3135631506943868  1.0000
  H   H446      1.0  0.879252731965192  0.7927191211343915  0.203942242062932  1.0000
  H   H447      1.0  0.8843787048716933  0.7678920058670324  0.23336743368594082  1.0000
  H   H448      1.0  0.9047166497078711  0.7781649731833311  0.19890515583650625  1.0000
  N   N17       1.0  0.658844097290066  0.3608659363520359  0.6480379074637722  1.0000
  C   C449      1.0  0.6733616396159413  0.3628703537746532  0.6074823207267774  1.0000
  C   C450      1.0  0.6386923857824854  0.36069497312324683  0.639177742733296  1.0000
  C   C451      1.0  0.6571995713169975  0.3780257187458189  0.6706533895278497  1.0000
  C   C452      1.0  0.6661412669038419  0.3418189987269732  0.6749813408086477  1.0000
  H   H449      1.0  0.6888138224049705  0.3627443542196645  0.6129566257089815  1.0000
  H   H450      1.0  0.6685404718985193  0.3772231552213875  0.5865617368316745  1.0000
  H   H451      1.0  0.6747927660243194  0.35023150802538533  0.589414399366249  1.0000
  H   H452      1.0  0.6273608569247087  0.3592234144120481  0.6690417540445288  1.0000
  H   H453      1.0  0.6326461066056005  0.37486733327664296  0.6190110948063619  1.0000
  H   H454      1.0  0.6394041856336151  0.34788826399646045  0.6221677340955446  1.0000
  H   H455      1.0  0.6465370712454965  0.37682358181048264  0.7016794874631902  1.0000
  H   H456      1.0  0.6516546738430606  0.39270336657034915  0.6514471970536195  1.0000
  H   H457      1.0  0.6721961043755497  0.378609040264667  0.6775291243960718  1.0000
  H   H458      1.0  0.6678100366021648  0.3285540978236933  0.6588352056347591  1.0000
  H   H459      1.0  0.6553904597822361  0.3396562539564669  0.7054921771907913  1.0000
  H   H460      1.0  0.681203189174927  0.34155364377259967  0.6826666383952767  1.0000
  N   N18       1.0  0.8268225882150784  0.1628516115894143  0.29646930787695  1.0000
  C   C453      1.0  0.8237653521975221  0.17459371572781146  0.2544769886773102  1.0000
  C   C454      1.0  0.8145108598922842  0.17425727583717365  0.33057303354261336  1.0000
  C   C455      1.0  0.8485084366284691  0.15922273897830563  0.2997417971498983  1.0000
  C   C456      1.0  0.8205266017285825  0.14331993109838614  0.30132250093065793  1.0000
  H   H461      1.0  0.8325748470865006  0.16617656911550682  0.22811089600311807  1.0000
  H   H462      1.0  0.828855244760464  0.18918773830412183  0.24937275586490035  1.0000
  H   H463      1.0  0.8075196565855565  0.17795941969267126  0.25108934038710684  1.0000
  H   H464      1.0  0.8166743849358191  0.16575709079460355  0.36256238162706267  1.0000
  H   H465      1.0  0.8188220738193568  0.18909117204344783  0.32796487099735633  1.0000
  H   H466      1.0  0.7980283154565981  0.17721078122053702  0.32937874929059524  1.0000
  H   H467      1.0  0.858321751051934  0.1512906189319856  0.2736791119245659  1.0000
  H   H468      1.0  0.8514305653400341  0.14968716112410352  0.33026905060914197  1.0000
  H   H469      1.0  0.8535573815173689  0.17360095754148097  0.2979887572435061  1.0000
  H   H470      1.0  0.822481450288698  0.13415497343981486  0.3328411127125973  1.0000
  H   H471      1.0  0.8297350296367622  0.1340678804101887  0.27671776569951567  1.0000
  H   H472      1.0  0.8043201075367459  0.14547847321373886  0.29844927627716983  1.0000
  N   N19       1.0  0.1985719412618824  0.6934595824998204  0.12058863356951746  1.0000
  C   C457      1.0  0.19613487269575353  0.7143549472041465  0.1287918254268461  1.0000
  C   C458      1.0  0.2152771979994883  0.6895316480095454  0.08423487723035919  1.0000
  C   C459      1.0  0.1794954258646927  0.6907959835217559  0.1104542184805947  1.0000
  C   C460      1.0  0.20341753202734417  0.6791438292202199  0.1588311500678134  1.0000
  H   H473      1.0  0.1925380196233051  0.7256136408188477  0.10065998063408324  1.0000
  H   H474      1.0  0.2102540690353665  0.7168241446528667  0.1366747755389395  1.0000
  H   H475      1.0  0.18366651923749552  0.7178764739138117  0.15601458743749597  1.0000
  H   H476      1.0  0.2299065269043783  0.6914498400166331  0.09076953314684219  1.0000
  H   H477      1.0  0.21765575935036277  0.6738502282083516  0.07735724953597667  1.0000
  H   H478      1.0  0.21217609724456055  0.7000902783656624  0.05485261007758314  1.0000
  H   H479      1.0  0.1665716929380451  0.6936038635989101  0.13714450364839798  1.0000
  H   H480      1.0  0.18070425949947153  0.6751735586249036  0.10432413776182056  1.0000
  H   H481      1.0  0.17528124127516276  0.7014291660438376  0.08193643318435423  1.0000
  H   H482      1.0  0.20517356801059433  0.6632254410493356  0.15404116841563256  1.0000
  H   H483      1.0  0.19132156856454957  0.6818728480113966  0.18702878047572538  1.0000
  H   H484      1.0  0.21782137526989612  0.6806248564022683  0.167171635659946  1.0000
  N   N20       1.0  0.8042504199866095  0.2567448419643522  0.43548633244983004  1.0000
  C   C461      1.0  0.802818830167121  0.2567421927232597  0.4814798359295795  1.0000
  C   C462      1.0  0.7915927409483172  0.2755609884711418  0.4173499594300827  1.0000
  C   C463      1.0  0.7968804452704049  0.23921734280151868  0.4291467775335706  1.0000
  C   C464      1.0  0.825651258918305  0.2554496989030982  0.414018990113957  1.0000
  H   H485      1.0  0.8092208497372617  0.26913836133269836  0.4874139698051645  1.0000
  H   H486      1.0  0.8110975212740947  0.242200540676248  0.4968704564275864  1.0000
  H   H487      1.0  0.7867241882337525  0.25896825156624576  0.49806747650924726  1.0000
  H   H488      1.0  0.7965745695980978  0.2891405729273246  0.4218558348717587  1.0000
  H   H489      1.0  0.792333114761031  0.2760924142748926  0.3826288976198659  1.0000
  H   H490      1.0  0.7753115988411776  0.2768492518823293  0.43288822956231565  1.0000
  H   H491      1.0  0.7983108803047847  0.23843099675557775  0.3947296773640719  1.0000
  H   H492      1.0  0.780606485378551  0.23999835601194322  0.44387511979249905  1.0000
  H   H493      1.0  0.8057010364760611  0.22472373094964668  0.44345504184183565  1.0000
  H   H494      1.0  0.8354754113159453  0.2411518476653481  0.4264136577524736  1.0000
  H   H495      1.0  0.8318776354712666  0.2682459593718962  0.4185457000944551  1.0000
  H   H496      1.0  0.8272634121081807  0.25564099811220276  0.3791254825551744  1.0000
  N   N21       1.0  0.10101236625594859  0.7453937865916742  0.3237034249047924  1.0000
  C   C465      1.0  0.07988086341956536  0.742747954718159  0.34004384341715377  1.0000
  C   C466      1.0  0.1144414589972706  0.725537035734275  0.3182040708093655  1.0000
  C   C467      1.0  0.10786397465442242  0.754569465612722  0.35419918335330497  1.0000
  C   C468      1.0  0.10193591958653596  0.7587754256128387  0.28230527056552623  1.0000
  H   H497      1.0  0.07850146515713649  0.7328065622392016  0.37133948904895925  1.0000
  H   H498      1.0  0.07432837965551371  0.7358560198358726  0.31769097233795385  1.0000
  H   H499      1.0  0.06927748206306003  0.7574757135242175  0.34386538874808137  1.0000
  H   H500      1.0  0.11076773057633013  0.7187800713432463  0.2930133793118824  1.0000
  H   H501      1.0  0.13065484032941985  0.7268702141608059  0.3087243844114132  1.0000
  H   H502      1.0  0.1131726778722333  0.7146099704888427  0.34812454138819854  1.0000
  H   H503      1.0  0.12378152286234528  0.7568065589540984  0.34249298413205453  1.0000
  H   H504      1.0  0.10751279334493416  0.7448271307962134  0.3857482394370017  1.0000
  H   H505      1.0  0.0981079918225045  0.7695972833334698  0.359032623937964  1.0000
  H   H506      1.0  0.09120295473079655  0.7735306288847227  0.2846889309060558  1.0000
  H   H507      1.0  0.09780286862290477  0.7519091694499659  0.2578338544644015  1.0000
  H   H508      1.0  0.11745429298668619  0.7619237842181313  0.27007164876239287  1.0000
  N   N22       1.0  0.7205051896621347  0.5995871390415582  0.6438658650608717  1.0000
  C   C469      1.0  0.7112050182481189  0.591096358366616  0.6161982703759793  1.0000
  C   C470      1.0  0.7199945579398046  0.5866588242366206  0.6858084164782435  1.0000
  C   C471      1.0  0.7089629955896446  0.6202001415708774  0.649393060276189  1.0000
  C   C472      1.0  0.741809684768933  0.6003904073762849  0.624046539380194  1.0000
  H   H509      1.0  0.7112811726301697  0.6005075297912901  0.5843131864995321  1.0000
  H   H510      1.0  0.6950905981542398  0.590311248915546  0.6303810079676492  1.0000
  H   H511      1.0  0.7195030503560879  0.5755233354111552  0.6114219494960021  1.0000
  H   H512      1.0  0.7261343244111147  0.5930436929705699  0.7081619013874858  1.0000
  H   H513      1.0  0.7042626720639482  0.585069291295271  0.7008163696546208  1.0000
  H   H514      1.0  0.7291134219927459  0.5711460665591616  0.6831300290285637  1.0000
  H   H515      1.0  0.7146558009670737  0.6265867007753799  0.6723096486024742  1.0000
  H   H516      1.0  0.6925710093726138  0.6203987758715722  0.6618387554329221  1.0000
  H   H517      1.0  0.7101725675679116  0.6307362551617754  0.6188736770129577  1.0000
  H   H518      1.0  0.7492546874488297  0.6066626270814234  0.6442292731876459  1.0000
  H   H519      1.0  0.7428125133162603  0.6102440801282678  0.5926103438425905  1.0000
  H   H520      1.0  0.7510194834515282  0.5851268835141149  0.6192438759857503  1.0000
  N   N23       1.0  0.4507216749393441  0.22275275289738464  0.696560380751807  1.0000
  C   C473      1.0  0.4594493077696843  0.23099598843765368  0.7255761283485213  1.0000
  C   C474      1.0  0.4431052928759999  0.20451660153918005  0.7190039405422752  1.0000
  C   C475      1.0  0.4667683488329838  0.2173269982982496  0.6600981676044505  1.0000
  C   C476      1.0  0.43379408757270616  0.23818603426171936  0.6816036293380823  1.0000
  H   H521      1.0  0.47298923365118395  0.22023979411201586  0.7354453943883864  1.0000
  H   H522      1.0  0.44828130973013053  0.23421161645735253  0.7548071467791654  1.0000
  H   H523      1.0  0.46450074744605707  0.24527909322173166  0.7100157852127114  1.0000
  H   H524      1.0  0.4362011406285085  0.1980763534993481  0.6981542960176815  1.0000
  H   H525      1.0  0.45556667035365106  0.1924516414286387  0.7299664365021286  1.0000
  H   H526      1.0  0.4313010697397565  0.2078767126319957  0.7473537790154491  1.0000
  H   H527      1.0  0.4608258779890346  0.21162946356867046  0.6365092205460966  1.0000
  H   H528      1.0  0.4794523296241075  0.2053263367211875  0.6704602018567091  1.0000
  H   H529      1.0  0.4733402509638558  0.23057746731815287  0.6435503622045777  1.0000
  H   H530      1.0  0.4280940775973322  0.23352380887997454  0.6562995035679566  1.0000
  H   H531      1.0  0.43851033633059855  0.2527973049792919  0.6683287975816955  1.0000
  H   H532      1.0  0.4206645841829568  0.24117600293485733  0.7077306784789705  1.0000
  N   N24       1.0  0.23220274762690316  0.13193632454989856  0.1094463354644657  1.0000
  C   C477      1.0  0.248651915614781  0.11532089381620567  0.09481393715471831  1.0000
  C   C478      1.0  0.2123273920425031  0.12763614871301204  0.10791853194881385  1.0000
  C   C479      1.0  0.23483848965625762  0.15115901837212953  0.08173142048461401  1.0000
  C   C480      1.0  0.23293845533531696  0.133699098529438  0.1535876429707197  1.0000
  H   H533      1.0  0.2469880152296326  0.10060765893734881  0.11505216680726638  1.0000
  H   H534      1.0  0.2638453200546612  0.11788218223120467  0.09627490864876509  1.0000
  H   H535      1.0  0.24870327911361992  0.11365685279736891  0.06143931762558785  1.0000
  H   H536      1.0  0.1995846865678588  0.13986363763076282  0.11887774362956716  1.0000
  H   H537      1.0  0.21124761032627404  0.12606715315969522  0.07511350437865372  1.0000
  H   H538      1.0  0.20982335365641971  0.11331845948621924  0.1289021493318614  1.0000
  H   H539      1.0  0.24975076229125753  0.15480075136344398  0.0819396419998264  1.0000
  H   H540      1.0  0.2229823402160162  0.16408965366717818  0.09273558351498656  1.0000
  H   H541      1.0  0.23408440671107614  0.15063276179223822  0.04815497115875944  1.0000
  H   H542      1.0  0.2317501693098083  0.11938402171749583  0.1754479498506214  1.0000
  H   H543      1.0  0.22019596092266064  0.1455193716323667  0.16613805908720924  1.0000
  H   H544      1.0  0.2474496673663361  0.13760472513499158  0.15567167198238963  1.0000
  N   N25       1.0  0.0800505310771424  0.0719161305574092  0.26318750036089256  1.0000
  C   C481      1.0  0.07271080795612847  0.05281656020251413  0.27796800965917395  1.0000
  C   C482      1.0  0.10237431837279143  0.06800733800654468  0.2597578750767211  1.0000
  C   C483      1.0  0.07050388020423393  0.08606514371569962  0.2940248514411969  1.0000
  C   C484      1.0  0.0745375452494599  0.08092053313079339  0.22113245788976443  1.0000
  H   H545      1.0  0.05587827498549128  0.05536217169244373  0.28084598471497313  1.0000
  H   H546      1.0  0.0764732025975701  0.045739535789510066  0.3098000970660051  1.0000
  H   H547      1.0  0.07959776451700883  0.0417169807528619  0.25549448484335124  1.0000
  H   H548      1.0  0.10832183527713585  0.08218781711237555  0.24869631595224378  1.0000
  H   H549      1.0  0.10707543256002934  0.061579175427198596  0.2911242750960254  1.0000
  H   H550      1.0  0.11022428328233899  0.0572720911795499  0.2370001158903106  1.0000
  H   H551      1.0  0.053672372564291235  0.08887520688794592  0.298636127564838  1.0000
  H   H552      1.0  0.07501486421839482  0.10089705766550261  0.2828214519085762  1.0000
  H   H553      1.0  0.074941433498566  0.08024053166246836  0.3257657065863885  1.0000
  H   H554      1.0  0.057771144948416224  0.08421702876989023  0.22271005219674953  1.0000
  H   H555      1.0  0.0814339622725692  0.07065295965670582  0.19697187814864073  1.0000
  H   H556      1.0  0.07975310467973347  0.09544291336707267  0.2091344954539212  1.0000
  N   N26       1.0  0.2727452817476129  0.9305501390366252  0.1720956709954004  1.0000
  C   C485      1.0  0.26207673098969425  0.93764498059521  0.21272312270392468  1.0000
  C   C486      1.0  0.28565445544505763  0.9447926787060404  0.14789730400395024  1.0000
  C   C487      1.0  0.2576768053066736  0.929453305345524  0.14676382179834588  1.0000
  C   C488      1.0  0.2855675213848366  0.9103110000534709  0.1809125962658409  1.0000
  H   H557      1.0  0.25152339756827924  0.9524610815998569  0.20716782940834186  1.0000
  H   H558      1.0  0.272973326879013  0.9397910473288688  0.23155459758757885  1.0000
  H   H559      1.0  0.2529055808405246  0.926841617775419  0.2327634196407371  1.0000
  H   H560      1.0  0.2764308069603056  0.9601849378614464  0.14021954566796166  1.0000
  H   H561      1.0  0.2969557816477468  0.946327131873788  0.16639699827720858  1.0000
  H   H562      1.0  0.2942046983568362  0.9397565417076316  0.11736196364894219  1.0000
  H   H563      1.0  0.26525993344890836  0.9241320047256634  0.11587330644910343  1.0000
  H   H564      1.0  0.24777930438267518  0.9445185675964437  0.13945018002478476  1.0000
  H   H565      1.0  0.24767294109864804  0.9188337636073353  0.16405409075653327  1.0000
  H   H566      1.0  0.29305473065357995  0.904128436623643  0.15089363322643565  1.0000
  H   H567      1.0  0.2765023955837357  0.8993056689530825  0.2004795418900805  1.0000
  H   H568      1.0  0.2977692204175723  0.9107329498602527  0.19820608459680722  1.0000
  N   N27       1.0  0.448519232482807  0.09886465609446611  0.6213828494386704  1.0000
  C   C489      1.0  0.4521579890037897  0.10258167002461342  0.5743253474396348  1.0000
  C   C490      1.0  0.46519202664455633  0.10383674965090343  0.6369423934021472  1.0000
  C   C491      1.0  0.447669774580354  0.07739140412149259  0.6363636663528869  1.0000
  C   C492      1.0  0.42899804157740923  0.11163034444417991  0.6379620986603145  1.0000
  H   H569      1.0  0.4532077496247826  0.11857315213685383  0.5618821394755178  1.0000
  H   H570      1.0  0.4396044142982923  0.09948728482271654  0.561449877854832  1.0000
  H   H571      1.0  0.46656576479761297  0.09297632495675245  0.5605150451449565  1.0000
  H   H572      1.0  0.46317777871579074  0.10076470340974733  0.6723091726149498  1.0000
  H   H573      1.0  0.480249230804842  0.09486690870277827  0.6243034695513906  1.0000
  H   H574      1.0  0.46589696965775734  0.12007806641424226  0.6274225956935173  1.0000
  H   H575      1.0  0.44472170080908335  0.07414632982719356  0.6717893027399726  1.0000
  H   H576      1.0  0.4622324710754568  0.06730869884515633  0.6247920052230205  1.0000
  H   H577      1.0  0.4353442758775933  0.07309912620645868  0.6248762672185416  1.0000
  H   H578      1.0  0.41598419681777005  0.1078862467558513  0.6279534746151133  1.0000
  H   H579      1.0  0.42886192102276505  0.12789278482863434  0.6261661070561864  1.0000
  H   H580      1.0  0.42609358970382466  0.10984812799608445  0.6733887395335071  1.0000
  N   N28       1.0  0.37014580090284077  0.17971108039924147  0.4588198922642179  1.0000
  C   C493      1.0  0.35918590917455007  0.16290528475169086  0.4736701276548056  1.0000
  C   C494      1.0  0.3770067888365757  0.18455154484438907  0.4950822532940175  1.0000
  C   C495      1.0  0.3564288029751082  0.1976269160110268  0.4404801865271559  1.0000
  C   C496      1.0  0.38796757282573313  0.17370073688107573  0.42595017685066605  1.0000
  H   H581      1.0  0.35403672880201276  0.15870159295896527  0.4469877591200298  1.0000
  H   H582      1.0  0.345550201423658  0.1668173401182643  0.49833462593794725  1.0000
  H   H583      1.0  0.3690453809334207  0.14917292799039836  0.48769890222910073  1.0000
  H   H584      1.0  0.38761656583453175  0.1713892918089431  0.5091288319254329  1.0000
  H   H585      1.0  0.3851163420562928  0.19736156362383328  0.4851844745979973  1.0000
  H   H586      1.0  0.3640103952265839  0.18891564017089918  0.5208444248673592  1.0000
  H   H587      1.0  0.3509818962556512  0.1944049372525214  0.4130475840876843  1.0000
  H   H588      1.0  0.36421090730310884  0.21060326524274475  0.4288287957939833  1.0000
  H   H589      1.0  0.34280445837904727  0.20253413388931493  0.46444559944011365  1.0000
  H   H590      1.0  0.3966546831011835  0.1859826228724163  0.41400380675866566  1.0000
  H   H591      1.0  0.38332822853575327  0.16984647775840514  0.39818659995498085  1.0000
  H   H592      1.0  0.3986202825246256  0.16018615357689114  0.4386996951142992  1.0000
  N   N29       1.0  0.8916924567940013  0.657479781092202  0.6650594672659541  1.0000
  C   C497      1.0  0.8974317660675669  0.6544806183909953  0.6198731837960821  1.0000
  C   C498      1.0  0.8865435716570471  0.6388048160536247  0.6915217293279036  1.0000
  C   C499      1.0  0.8738945300133873  0.6742439046182213  0.6701344294606089  1.0000
  C   C500      1.0  0.9088702237036348  0.6624611814652032  0.6786896996170964  1.0000
  H   H593      1.0  0.9102429538876403  0.6413908911281299  0.6150435591895724  1.0000
  H   H594      1.0  0.9022989678750255  0.667993814185036  0.5993138242103316  1.0000
  H   H595      1.0  0.8844590946365458  0.651736332237091  0.6078187591317598  1.0000
  H   H596      1.0  0.8819408996107194  0.6405919456593645  0.725813017195922  1.0000
  H   H597      1.0  0.8736680127164173  0.6346661971498329  0.6818355972973378  1.0000
  H   H598      1.0  0.8996054170281209  0.6257936642992162  0.6887352445151109  1.0000
  H   H599      1.0  0.8774286499982051  0.6887244343627359  0.6515449964375477  1.0000
  H   H600      1.0  0.8686040583325775  0.6765107744090859  0.7040437455741799  1.0000
  H   H601      1.0  0.8608024982836961  0.6712709343464016  0.6589595975177481  1.0000
  H   H602      1.0  0.9226075123439571  0.6501715416560475  0.6751686126232376  1.0000
  H   H603      1.0  0.904999708374803  0.6648529619173701  0.712644675643356  1.0000
  H   H604      1.0  0.913042912843867  0.6765579262295834  0.6592797312089822  1.0000
  N   N30       1.0  0.6917905252258024  0.5714203587338885  0.8347681412869393  1.0000
  C   C501      1.0  0.6946298755094351  0.5538153145967677  0.8127218806402328  1.0000
  C   C502      1.0  0.7001386679729535  0.5649461824208742  0.874463737366784  1.0000
  C   C503      1.0  0.6698858602054268  0.5802757746179776  0.8449769689815869  1.0000
  C   C504      1.0  0.7026333510346107  0.5865997226488563  0.8070601299506338  1.0000
  H   H605      1.0  0.6885305818836814  0.5582242355016503  0.7824592303730045  1.0000
  H   H606      1.0  0.686825204389617  0.5419593840479393  0.8329507029054473  1.0000
  H   H607      1.0  0.7110124938469334  0.5468092383424641  0.8045897973424715  1.0000
  H   H608      1.0  0.6982288611654568  0.5778682883321633  0.8919075987764515  1.0000
  H   H609      1.0  0.6926186650398625  0.5532610033830231  0.8962667614197763  1.0000
  H   H610      1.0  0.7166613571211315  0.5584817586837137  0.8677467850188072  1.0000
  H   H611      1.0  0.6627794118773456  0.5839800733701267  0.816082546537942  1.0000
  H   H612      1.0  0.6672443777614799  0.5944729888034046  0.8587941667441896  1.0000
  H   H613      1.0  0.6615711199224474  0.5696706529574843  0.8683469279673484  1.0000
  H   H614      1.0  0.7005224048637867  0.6002382893124132  0.822486226978138  1.0000
  H   H615      1.0  0.697056384136914  0.5915777492310688  0.7764434255497973  1.0000
  H   H616      1.0  0.7193037412035221  0.5804934195565248  0.7997178826126068  1.0000
  N   N31       1.0  0.9710414480114411  0.6736630679807565  0.2832399017020608  1.0000
  C   C505      1.0  0.9705991593614861  0.6563734837325432  0.26290531353634594  1.0000
  C   C506      1.0  0.9558446543989282  0.6913399548098482  0.26910882529853364  1.0000
  C   C507      1.0  0.9914501465832259  0.6786185628453795  0.2709767977119302  1.0000
  C   C508      1.0  0.9662915551911659  0.6682584845900357  0.3299899277674325  1.0000
  H   H617      1.0  0.981857810199267  0.6427536884032714  0.2729858857948628  1.0000
  H   H618      1.0  0.974184444173902  0.6598639050224729  0.2276809013877763  1.0000
  H   H619      1.0  0.9553085076069027  0.6524070234177468  0.27109995091090644  1.0000
  H   H620      1.0  0.9404127080406169  0.6878553421025717  0.27654279644898816  1.0000
  H   H621      1.0  0.9551536890852427  0.7044103135450265  0.28520888287181445  1.0000
  H   H622      1.0  0.9592872242882238  0.6961406341196403  0.23409674293729532  1.0000
  H   H623      1.0  0.003399435285865367  0.665384246837782  0.2798010404693261  1.0000
  H   H624      1.0  0.9925802613273443  0.6911105593260543  0.28697895431357123  1.0000
  H   H625      1.0  0.9953781168837638  0.683373620187728  0.23611193615319914  1.0000
  H   H626      1.0  0.9514455957232895  0.6633917141811647  0.34015748229954257  1.0000
  H   H627      1.0  0.965262679634365  0.6813034748554327  0.3465344333993541  1.0000
  H   H628      1.0  0.9780952900829417  0.6556763053805292  0.341946865332448  1.0000
  N   N32       1.0  0.8385802008837615  0.7084999209517538  0.4217197606424818  1.0000
  C   C509      1.0  0.8402717903788824  0.727125345154494  0.39119509905333866  1.0000
  C   C510      1.0  0.8351623400739576  0.7131267314805051  0.46560077355152263  1.0000
  C   C511      1.0  0.8575252027230631  0.6932355710636059  0.4138273406792781  1.0000
  C   C512      1.0  0.8213183598824483  0.7004731348653997  0.41621157628706673  1.0000
  H   H629      1.0  0.8531368173163344  0.7335259252721693  0.3948430600560084  1.0000
  H   H630      1.0  0.82621916956471  0.7389558590964059  0.39598593031382684  1.0000
  H   H631      1.0  0.8428847397365832  0.7241760844167495  0.3577466390751487  1.0000
  H   H632      1.0  0.8317050887930008  0.6999834177283819  0.4894368811116295  1.0000
  H   H633      1.0  0.8487577037821268  0.7171816443188117  0.4725771991745033  1.0000
  H   H634      1.0  0.8220660907464159  0.7258564583995324  0.4714159882969628  1.0000
  H   H635      1.0  0.8563068766598668  0.67862785062935  0.4347911860371933  1.0000
  H   H636      1.0  0.8708397086649515  0.6981903137031695  0.4198045942552415  1.0000
  H   H637      1.0  0.8611198487789935  0.6901516500551369  0.38035406633071855  1.0000
  H   H638      1.0  0.819785201775068  0.6862994450989365  0.4388155848448676  1.0000
  H   H639      1.0  0.8233883206565039  0.6968379395794517  0.38342494381748493  1.0000
  H   H640      1.0  0.806711826565025  0.7114778557381317  0.4222152837297067  1.0000
  N   N33       1.0  0.9202194940975058  0.13384043986846061  0.29284956114980476  1.0000
  C   C513      1.0  0.9022317471783972  0.125431066746026  0.2935142609953865  1.0000
  C   C514      1.0  0.936937623904975  0.1261456677631705  0.2593764679859938  1.0000
  C   C515      1.0  0.9267974661719336  0.1275734351763175  0.33457126569188084  1.0000
  C   C516      1.0  0.9150151473216418  0.1561236823767904  0.28420015703792645  1.0000
  H   H641      1.0  0.8895168047401105  0.13045702447996438  0.3192302759020041  1.0000
  H   H642      1.0  0.9057622638281468  0.10861646080471819  0.2994501712789422  1.0000
  H   H643      1.0  0.8965887319622594  0.13006279153184053  0.2627212107698425  1.0000
  H   H644      1.0  0.9324712324128112  0.13037710237824748  0.22746618333003502  1.0000
  H   H645      1.0  0.9507008302400222  0.1323094360600498  0.25782675288936946  1.0000
  H   H646      1.0  0.9413771572266874  0.10936666007234719  0.26541847406416935  1.0000
  H   H647      1.0  0.9403533042920884  0.13364381971855718  0.3351575269644983  1.0000
  H   H648      1.0  0.9307858288944507  0.11083145364095535  0.34209427346319415  1.0000
  H   H649      1.0  0.9146074105380331  0.13313839004466343  0.3607777255344559  1.0000
  H   H650      1.0  0.902570931307149  0.16238409555024352  0.3091181572259204  1.0000
  H   H651      1.0  0.9098940224735538  0.16156933990082994  0.2530216130146461  1.0000
  H   H652      1.0  0.9282438711624306  0.1629641086267169  0.28366562927618166  1.0000
  N   N34       1.0  0.8175069789986779  0.7081929239347934  0.014785952675581804  1.0000
  C   C517      1.0  0.8020501081847999  0.711997602214978  0.053190690755355874  1.0000
  C   C518      1.0  0.8355785442721964  0.7159848302254401  0.01622425591331189  1.0000
  C   C519      1.0  0.8090092335780898  0.7185181223825945  0.9763988985231236  1.0000
  C   C520      1.0  0.8233512643106874  0.6862374043482241  0.013408714180551451  1.0000
  H   H653      1.0  0.8079999068235655  0.7043410287585811  0.08271044219125145  1.0000
  H   H654      1.0  0.7882277889373988  0.7062336983407665  0.05307351884742206  1.0000
  H   H655      1.0  0.7972718691323137  0.728419405688635  0.05530132963427503  1.0000
  H   H656      1.0  0.847888808825697  0.7127212254778408  0.9885007405646016  1.0000
  H   H657      1.0  0.831949468366314  0.7326015080394273  0.016028357090359213  1.0000
  H   H658      1.0  0.8419454582050337  0.709010646017545  0.045534919095061355  1.0000
  H   H659      1.0  0.8052957623817172  0.7351905276287328  0.9752413750379695  1.0000
  H   H660      1.0  0.7947937489588691  0.7136725461575637  0.9753947321798929  1.0000
  H   H661      1.0  0.8198564979333428  0.7149675210452204  0.9467531468686922  1.0000
  H   H662      1.0  0.8350312468733125  0.6827378658624305  0.9848726435327861  1.0000
  H   H663      1.0  0.8100829995384674  0.6799202786967481  0.011937662191820575  1.0000
  H   H664      1.0  0.8297324135481359  0.6778795823531081  0.04196957481915575  1.0000
  N   N35       1.0  0.5299585576512071  0.4218976210191673  0.5632040026491655  1.0000
  C   C521      1.0  0.5480087721169703  0.40544008706377793  0.5660085857448027  1.0000
  C   C522      1.0  0.5178826909758257  0.41780940375057635  0.5344704401085838  1.0000
  C   C523      1.0  0.5365466293798052  0.44127171387845365  0.5464599975836978  1.0000
  C   C524      1.0  0.5173522969826293  0.4230006479281236  0.6059700504712958  1.0000
  H   H665      1.0  0.5435446247187432  0.3905606126833003  0.5771926169954206  1.0000
  H   H666      1.0  0.5571136892099516  0.4075677822072609  0.5887287930857731  1.0000
  H   H667      1.0  0.5581940177575355  0.4044859925988195  0.5345819370630641  1.0000
  H   H668      1.0  0.5127096593974709  0.4032305172837499  0.5463855040471963  1.0000
  H   H669      1.0  0.5040861737206754  0.42990524872249436  0.5318001288998842  1.0000
  H   H670      1.0  0.5268954613106825  0.41680098002173005  0.5018880856571513  1.0000
  H   H671      1.0  0.5458888850231763  0.4411259836010716  0.5140158268591385  1.0000
  H   H672      1.0  0.5458324968723464  0.4446538610297635  0.5673250944937941  1.0000
  H   H673      1.0  0.5233094226550168  0.4541314341118511  0.5447707548701123  1.0000
  H   H674      1.0  0.5041998654131019  0.4359822790575209  0.6055210277840434  1.0000
  H   H675      1.0  0.5262483245961392  0.42499404077239494  0.6291602888209182  1.0000
  H   H676      1.0  0.5111951874127012  0.40904755584603225  0.6185161993857149  1.0000
  N   N36       1.0  0.48950694876913464  0.5012599128012254  0.7357396197192895  1.0000
  C   C525      1.0  0.47852962941227944  0.5111753436139157  0.7729677609807701  1.0000
  C   C526      1.0  0.49187747418620464  0.47912559145158035  0.7474310118952816  1.0000
  C   C527      1.0  0.5097898370683696  0.5064679890552376  0.7220373891646648  1.0000
  C   C528      1.0  0.47788177048548125  0.5082826249319627  0.7004837166477562  1.0000
  H   H677      1.0  0.4770147306324694  0.5278521051434323  0.7656960359978385  1.0000
  H   H678      1.0  0.48646833974133386  0.5058157479108241  0.8006530605526946  1.0000
  H   H679      1.0  0.4628567463062714  0.5081755996426133  0.783346965068459  1.0000
  H   H680      1.0  0.4999690778524598  0.4711849579375427  0.7199078205565675  1.0000
  H   H681      1.0  0.5008691082759389  0.47329468079036  0.7735646611093295  1.0000
  H   H682      1.0  0.47687577112932333  0.4746427738444831  0.7583874954029625  1.0000
  H   H683      1.0  0.5182104707043769  0.4995347682030739  0.6933837347221288  1.0000
  H   H684      1.0  0.5191411196535717  0.5009220993732957  0.7475569314976203  1.0000
  H   H685      1.0  0.5085907293981642  0.5230920797792273  0.7140998698656035  1.0000
  H   H686      1.0  0.4760313984537406  0.5248963038655786  0.6905379684064438  1.0000
  H   H687      1.0  0.46234549660153  0.5049104382775217  0.7098626596848309  1.0000
  H   H688      1.0  0.48557413056533355  0.5009318057245586  0.6719548832694535  1.0000
  N   N37       1.0  0.40700445698661836  0.7278597523408141  0.1779104340495783  1.0000
  C   C529      1.0  0.4181633707047728  0.7439060723099766  0.17680112683975424  1.0000
  C   C530      1.0  0.3987760731970957  0.7204728098196667  0.22244319054578776  1.0000
  C   C531      1.0  0.4210182390889073  0.7109594420438786  0.1583894260376273  1.0000
  C   C532      1.0  0.3900325375224133  0.7360564413387702  0.15420460494612298  1.0000
  H   H689      1.0  0.42544804833052696  0.7490670676575171  0.143773376589311  1.0000
  H   H690      1.0  0.4302072568604438  0.7386579688648011  0.1968186631835196  1.0000
  H   H691      1.0  0.4078485932808989  0.7573512479834276  0.1891076608332296  1.0000
  H   H692      1.0  0.38983764135760285  0.7087040249103568  0.2242770813565973  1.0000
  H   H693      1.0  0.4111164815620941  0.7137386745543425  0.24126430315049197  1.0000
  H   H694      1.0  0.38855558843916294  0.7329135605848166  0.23847606548051425  1.0000
  H   H695      1.0  0.41332737278452225  0.6982225841844432  0.1604636440557594  1.0000
  H   H696      1.0  0.434293862556552  0.704863328569674  0.17479439013411313  1.0000
  H   H697      1.0  0.4269226907031141  0.7156177127819352  0.12415397510425907  1.0000
  H   H698      1.0  0.3808405776802555  0.7245541680234825  0.15549459258428522  1.0000
  H   H699      1.0  0.39560649937807596  0.7413987214271139  0.12014845124729434  1.0000
  H   H700      1.0  0.37942689428796167  0.7490288678789244  0.16795105328186177  1.0000
  N   N38       1.0  0.3701573364276452  0.10433775735208277  0.22227401792228915  1.0000
  C   C533      1.0  0.36683677010682336  0.09762897882624838  0.18422663496656513  1.0000
  C   C534      1.0  0.35101306269438143  0.10679818750739335  0.25349046548422416  1.0000
  C   C535      1.0  0.37682051590303794  0.12385848938649781  0.20998245547299374  1.0000
  C   C536      1.0  0.38590924413559946  0.0890327069387416  0.24157816697373116  1.0000
  H   H701      1.0  0.3806630751317653  0.0964784225835947  0.15907338739518762  1.0000
  H   H702      1.0  0.3542354014345186  0.1082105511668198  0.17024290112526752  1.0000
  H   H703      1.0  0.36259644440998345  0.08253822029343792  0.19222699280815994  1.0000
  H   H704      1.0  0.3392204738565335  0.11929230418666815  0.24136567163278316  1.0000
  H   H705      1.0  0.34461134498781515  0.09283820657283658  0.2611030192299045  1.0000
  H   H706      1.0  0.35334165752111274  0.11019021765643404  0.2839611651319672  1.0000
  H   H707      1.0  0.3787523274154666  0.12963899364086265  0.2383125071376849  1.0000
  H   H708      1.0  0.36548480203554806  0.1355658307888733  0.19422671280833093  1.0000
  H   H709      1.0  0.39152232453529323  0.1225173092504088  0.18733539087827072  1.0000
  H   H710      1.0  0.381244517945885  0.07415794975494037  0.25111014477140753  1.0000
  H   H711      1.0  0.38851370340165586  0.09336864176167967  0.2709633050031113  1.0000
  H   H712      1.0  0.40063103764136726  0.08682938897825569  0.2191101303062556  1.0000
  N   N39       1.0  0.26659074778006114  0.04416534042036594  0.3080483380371985  1.0000
  C   C537      1.0  0.2679464433713789  0.04060098450348537  0.35367493525031807  1.0000
  C   C538      1.0  0.24893733655820582  0.060355198811596636  0.30036114608426817  1.0000
  C   C539      1.0  0.26416993441000447  0.02545997483405075  0.2956642491017629  1.0000
  C   C540      1.0  0.285182283263011  0.0504372423872643  0.2825044028647247  1.0000
  H   H713      1.0  0.2535569843967001  0.03724319220327759  0.37402179587379997  1.0000
  H   H714      1.0  0.2710194671362836  0.054034875424510374  0.3634400047676468  1.0000
  H   H715      1.0  0.28033048177836073  0.027622362022491846  0.3610758632973982  1.0000
  H   H716      1.0  0.24801570869510334  0.06421362633497076  0.2659053613058275  1.0000
  H   H717      1.0  0.23449379127499506  0.05582901421872877  0.3173465638791812  1.0000
  H   H718      1.0  0.24979596476553487  0.0742669913395179  0.3119306426807745  1.0000
  H   H719      1.0  0.263538788065774  0.027568091402023463  0.26126431817810497  1.0000
  H   H720      1.0  0.2499055430037659  0.020769134552738922  0.3135359407741376  1.0000
  H   H721      1.0  0.2770196488935725  0.012734014145446176  0.30199932123604983  1.0000
  H   H722      1.0  0.2989085583026444  0.03867676351069762  0.28734618376146365  1.0000
  H   H723      1.0  0.28729705474868145  0.06457913133666367  0.29120887598463546  1.0000
  H   H724      1.0  0.28463141034892375  0.05332836404462619  0.247825431042136  1.0000
  N   N40       1.0  0.8077616269661889  0.576046447803159  0.834013742470695  1.0000
  C   C541      1.0  0.8152828666398817  0.5542802912521329  0.8317686356625513  1.0000
  C   C542      1.0  0.7873813543841073  0.5792097545060829  0.8610148872967519  1.0000
  C   C543      1.0  0.8065199608286223  0.5871540186111663  0.7907397157930895  1.0000
  C   C544      1.0  0.8219463338427304  0.5834851006099481  0.8525357656635973  1.0000
  H   H725      1.0  0.8295819248703669  0.5514583479109931  0.8081624312057339  1.0000
  H   H726      1.0  0.8039189201589879  0.5474816005193223  0.8229022941013819  1.0000
  H   H727      1.0  0.8186279925848765  0.5457773737687212  0.8628968558839212  1.0000
  H   H728      1.0  0.7813662236226637  0.5953895811234978  0.8642578597441267  1.0000
  H   H729      1.0  0.7761919277620393  0.5740592010574352  0.8475755574311263  1.0000
  H   H730      1.0  0.7877211324264454  0.5706704362991645  0.8936003120379251  1.0000
  H   H731      1.0  0.8216564217214538  0.5851517329381012  0.7694479502442211  1.0000
  H   H732      1.0  0.8008087286746396  0.6036086008722656  0.7911885028381377  1.0000
  H   H733      1.0  0.7961157202552772  0.5817210746468527  0.7757199448304564  1.0000
  H   H734      1.0  0.8222930463885662  0.5764337527241773  0.8861817435863539  1.0000
  H   H735      1.0  0.8177197626925843  0.6000986242803611  0.8519954360505774  1.0000
  H   H736      1.0  0.837780052801052  0.5798774072895262  0.8348711856069146  1.0000
  N   N41       1.0  0.3322019148343827  0.7682193603871303  0.04188092722543191  1.0000
  C   C545      1.0  0.3453740105510087  0.7776426914081738  0.005142901860751392  1.0000
  C   C546      1.0  0.3428115314739472  0.7621214361716873  0.07870434938659998  1.0000
  C   C547      1.0  0.3275181584794604  0.7502329186872678  0.030610474071039784  1.0000
  C   C548      1.0  0.31309558893505346  0.7827948780463294  0.05322208938271045  1.0000
  H   H737      1.0  0.3375340053876956  0.7832303408658824  0.9773216547116707  1.0000
  H   H738      1.0  0.35947339938566664  0.76667932176667  0.9946900762494982  1.0000
  H   H739      1.0  0.35013778908713594  0.790689254128035  0.012983708739650046  1.0000
  H   H740      1.0  0.3328377344080526  0.756101639696238  0.10770362472303363  1.0000
  H   H741      1.0  0.3565900199845865  0.750110204280535  0.07261719081996487  1.0000
  H   H742      1.0  0.3475900382162281  0.7750158134862415  0.0868019537949043  1.0000
  H   H743      1.0  0.31704595613964204  0.7431736825748028  0.05702147833814575  1.0000
  H   H744      1.0  0.34149983301385384  0.738438029196838  0.024052134388445  1.0000
  H   H745      1.0  0.3201716406071624  0.7540784582953055  0.0019975606722550943  1.0000
  H   H746      1.0  0.30299858420294906  0.776166411457395  0.08134703873536164  1.0000
  H   H747      1.0  0.3044472400871322  0.7875419897538294  0.026518687819478748  1.0000
  H   H748      1.0  0.31609461658567833  0.7965978815144141  0.06161233676778877  1.0000
  N   N42       1.0  0.32685650807897354  0.7987358164652554  0.31487769183198605  1.0000
  C   C549      1.0  0.34076065999669497  0.7888732316285929  0.3451225148587805  1.0000
  C   C550      1.0  0.30574105190997214  0.8031171303577092  0.3382238790904848  1.0000
  C   C551      1.0  0.3281654584729955  0.7852354368359745  0.28368615772146594  1.0000
  C   C552      1.0  0.3327282044459753  0.8178021934773001  0.29227304922377906  1.0000
  H   H749      1.0  0.35682696452490065  0.7855247094901516  0.3285632450064509  1.0000
  H   H750      1.0  0.33701483834822604  0.7742849788210358  0.36233222815207844  1.0000
  H   H751      1.0  0.3399164463366879  0.7984782077948147  0.3695680477350369  1.0000
  H   H752      1.0  0.2948792822794837  0.8104081786902493  0.3162008592214064  1.0000
  H   H753      1.0  0.30076271855083325  0.7890627801198866  0.3555341923372755  1.0000
  H   H754      1.0  0.30409311863239447  0.8131838612752023  0.3622464758908666  1.0000
  H   H755      1.0  0.31778063404924145  0.7921773226119774  0.2605589664798083  1.0000
  H   H756      1.0  0.3238770410564167  0.7706450342615567  0.29944229862555566  1.0000
  H   H757      1.0  0.34378052360981065  0.781643510115884  0.2650989818832976  1.0000
  H   H758      1.0  0.3228420931979506  0.8254140504595293  0.26846721072491825  1.0000
  H   H759      1.0  0.34870550626061725  0.8150725445432199  0.27493986137615056  1.0000
  H   H760      1.0  0.3315537914884668  0.8285058396207196  0.31475783555447906  1.0000
  N   N43       1.0  0.5389226864509394  0.19110007891937908  0.5306798649739145  1.0000
  C   C553      1.0  0.5328977988907443  0.20744721792159923  0.49634413139240685  1.0000
  C   C554      1.0  0.5319719712572105  0.17282707053318397  0.5272914418247343  1.0000
  C   C555      1.0  0.5295609223066102  0.19753011727709863  0.572531003774739  1.0000
  C   C556      1.0  0.5612795060659171  0.18660653701278024  0.5266595062443999  1.0000
  H   H761      1.0  0.5400237485354378  0.2032480490929023  0.46433504815229937  1.0000
  H   H762      1.0  0.5374235636349557  0.22164948513284166  0.4986812641693813  1.0000
  H   H763      1.0  0.5161579373490555  0.2109653463305473  0.49771674267799587  1.0000
  H   H764      1.0  0.5151194332473505  0.1758438456679248  0.5300459858892396  1.0000
  H   H765      1.0  0.5387621528812044  0.16745567232733435  0.49618607797664244  1.0000
  H   H766      1.0  0.5361664638433999  0.1602747885851038  0.5529980098017354  1.0000
  H   H767      1.0  0.5347270112697743  0.18597539133073063  0.5990594828280167  1.0000
  H   H768      1.0  0.512701970035346  0.19998672605149742  0.5776965988892298  1.0000
  H   H769      1.0  0.533552158152942  0.21191800487480428  0.5752681078801147  1.0000
  H   H770      1.0  0.566419857037777  0.1744680983524613  0.5522974480788185  1.0000
  H   H771      1.0  0.5669279878711663  0.20016120668241374  0.529032461814451  1.0000
  H   H772      1.0  0.5689264622237873  0.18156945815616446  0.4956144887278091  1.0000
  N   N44       1.0  0.5792719145075169  0.33495928753197246  0.7710250748576725  1.0000
  C   C557      1.0  0.5986785583717369  0.3352828332518574  0.740992475725693  1.0000
  C   C558      1.0  0.569816629264569  0.3556458514311586  0.7801372529828379  1.0000
  C   C559      1.0  0.5832025490130227  0.3216587639206234  0.8110330741019163  1.0000
  C   C560      1.0  0.565461403281089  0.32723166349549354  0.7519298192811494  1.0000
  H   H773      1.0  0.608904538463339  0.3424629286331379  0.7528831687845519  1.0000
  H   H774      1.0  0.5961630001569276  0.3437951942008744  0.7093045891236324  1.0000
  H   H775      1.0  0.6069164179035137  0.3197722969338574  0.7358679816965441  1.0000
  H   H776      1.0  0.5668196449181219  0.36610042771996143  0.7505818336966847  1.0000
  H   H777      1.0  0.5550745634133599  0.3560540449045111  0.8025192599041342  1.0000
  H   H778      1.0  0.5798698406863446  0.3619424113053641  0.7945160309408454  1.0000
  H   H779      1.0  0.5935277288690759  0.3271284085705685  0.8263210233337019  1.0000
  H   H780      1.0  0.5904963963560067  0.3059374532766174  0.8051965786225231  1.0000
  H   H781      1.0  0.5689003502335758  0.3209402179519964  0.8344157807720118  1.0000
  H   H782      1.0  0.5506787984273661  0.3266638822083335  0.7737141566681811  1.0000
  H   H783      1.0  0.5722493514690997  0.31172951906659707  0.7442727874993643  1.0000
  H   H784      1.0  0.5621247263384489  0.3369287560860059  0.7217261812522306  1.0000
  N   N45       1.0  0.5860293495523641  0.6775012543025734  0.7718104211449782  1.0000
  C   C561      1.0  0.567067505748779  0.6773280648248119  0.7575373123472868  1.0000
  C   C562      1.0  0.5897212618394168  0.6982937097787775  0.763464662966784  1.0000
  C   C563      1.0  0.6031926359244091  0.6642763769886766  0.7482769426787489  1.0000
  C   C564      1.0  0.5841871792455539  0.6700561546106055  0.817960725348844  1.0000
  H   H785      1.0  0.5536233822288106  0.6865956595263861  0.7754905070481091  1.0000
  H   H786      1.0  0.5642701725174397  0.6617177416092688  0.7622496041069703  1.0000
  H   H787      1.0  0.567751808669043  0.6832353103996732  0.7230466191854182  1.0000
  H   H788      1.0  0.6038854081704683  0.6988583861116078  0.7742692415396875  1.0000
  H   H789      1.0  0.5914270753356785  0.7043387959002924  0.7288967669141141  1.0000
  H   H790      1.0  0.5769986047859442  0.7086956415865006  0.7806014153926168  1.0000
  H   H791      1.0  0.604598090831682  0.6689184845616015  0.7132511925853793  1.0000
  H   H792      1.0  0.6012045598423741  0.6483161928575281  0.7552433686874261  1.0000
  H   H793      1.0  0.6178922848845572  0.6645661540736356  0.7570494998799215  1.0000
  H   H794      1.0  0.598111442601381  0.6703708046080646  0.8299853285125286  1.0000
  H   H795      1.0  0.5818535457265485  0.6542077652067579  0.8253724515285232  1.0000
  H   H796      1.0  0.5711250756765737  0.679388736064784  0.8367219434252487  1.0000
  N   N46       1.0  0.9626486165281573  0.08925034833848011  0.4505113854630282  1.0000
  C   C565      1.0  0.9453264168409974  0.08044668198969074  0.4755305308158843  1.0000
  C   C566      1.0  0.980921797637405  0.07307146564894595  0.44437544716589367  1.0000
  C   C567      1.0  0.9664771342004023  0.10418689121915636  0.4733951447282169  1.0000
  C   C568      1.0  0.957838815737187  0.0993372450329193  0.408528479738271  1.0000
  H   H797      1.0  0.9486243157429679  0.07221762865287285  0.5069729463309631  1.0000
  H   H798      1.0  0.9415911904212234  0.06957179858705609  0.4584753753063953  1.0000
  H   H799      1.0  0.9314050384189247  0.09236548521884802  0.48164290564116574  1.0000
  H   H800      1.0  0.9783646432443016  0.06158238586688691  0.4272506541548943  1.0000
  H   H801      1.0  0.9942004333846022  0.0792387520093909  0.4251362970362076  1.0000
  H   H802      1.0  0.9851680100937406  0.06514991887457433  0.47530198540346263  1.0000
  H   H803      1.0  0.9793685432019889  0.11124229486230086  0.45515378690741304  1.0000
  H   H804      1.0  0.9702238294363731  0.09712429479479301  0.5052057599501446  1.0000
  H   H805      1.0  0.9528752087125674  0.11659706480632481  0.4784943979109928  1.0000
  H   H806      1.0  0.9553007381146174  0.08841465112126179  0.3900224049325181  1.0000
  H   H807      1.0  0.9704867505860792  0.10639539954998778  0.38898594914391954  1.0000
  H   H808      1.0  0.9438782751741738  0.11137347153314225  0.4120924904251187  1.0000
  N   N47       1.0  0.37426761538050235  0.975189384921936  0.37995527087100256  1.0000
  C   C569      1.0  0.3735122479472394  0.9789689814878777  0.3339587685830749  1.0000
  C   C570      1.0  0.3594343390068804  0.9910696302279413  0.4013799830084821  1.0000
  C   C571      1.0  0.39490783070709534  0.9754361901337448  0.3859078900034625  1.0000
  C   C572      1.0  0.3691730922843451  0.9553024023955923  0.39855517244226785  1.0000
  H   H809      1.0  0.37711437899942646  0.9939184976765993  0.3188179463845371  1.0000
  H   H810      1.0  0.358154832928236  0.978851896649318  0.32826288427890143  1.0000
  H   H811      1.0  0.38447876442735396  0.9672730575554193  0.31673986543753924  1.0000
  H   H812      1.0  0.36021893121289483  0.98926385929491  0.4357562756386919  1.0000
  H   H813      1.0  0.36205555851193555  0.006441830587626818  0.38668020667783415  1.0000
  H   H814      1.0  0.3435866885055449  0.9906336001835574  0.39943003113881914  1.0000
  H   H815      1.0  0.39608742571946287  0.9725060549617568  0.4202534326860171  1.0000
  H   H816      1.0  0.39901097361747795  0.9903769766693927  0.3724747209903474  1.0000
  H   H817      1.0  0.40654657878795497  0.9637634500934071  0.3698542801761993  1.0000
  H   H818      1.0  0.3536840935484233  0.9547256220619544  0.3941404576772474  1.0000
  H   H819      1.0  0.36936670015391754  0.9519985095348762  0.43335324983716844  1.0000
  H   H820      1.0  0.3800681270643533  0.9429082593236989  0.383296594507467  1.0000
  N   N48       1.0  0.5250893239165221  0.5992673049428417  0.37652150734262785  1.0000
  C   C573      1.0  0.5410645066241025  0.5867723527145691  0.39986632853837745  1.0000
  C   C574      1.0  0.5061424372364013  0.5914929257682089  0.3916599363799802  1.0000
  C   C575      1.0  0.5317242088097278  0.5983546291158615  0.33047850528996325  1.0000
  C   C576      1.0  0.5213252939828685  0.6204418848086322  0.38408684188127257  1.0000
  H   H821      1.0  0.5556454557418735  0.5921120693154716  0.3893042327514202  1.0000
  H   H822      1.0  0.5440436714732542  0.5706184650087823  0.3955121931032487  1.0000
  H   H823      1.0  0.5365954696167891  0.5870706802897215  0.4347383726629763  1.0000
  H   H824      1.0  0.5083519278610195  0.5754234021717369  0.38740753126164756  1.0000
  H   H825      1.0  0.5006287209506448  0.592388495365839  0.4260120365339278  1.0000
  H   H826      1.0  0.4936933771350907  0.6005239568688416  0.37483422987678827  1.0000
  H   H827      1.0  0.5199778305527816  0.6076128349381988  0.31199537031026764  1.0000
  H   H828      1.0  0.5346001487420687  0.582584205427446  0.3236989640239076  1.0000
  H   H829      1.0  0.5460053332717001  0.6041209902997463  0.3179455705954275  1.0000
  H   H830      1.0  0.509060871590309  0.6301896085558983  0.36756663604324685  1.0000
  H   H831      1.0  0.5352222944619123  0.6269453860650864  0.37298579567491824  1.0000
  H   H832      1.0  0.5161993270648733  0.6217129985038198  0.4185165443735944  1.0000
  N   N49       1.0  0.4090804226161887  0.880634196399907  0.14331327174831543  1.0000
  C   C577      1.0  0.42159199059051256  0.8627468477393289  0.12479461639366884  1.0000
  C   C578      1.0  0.3988882023115265  0.874171320539685  0.18696398646093937  1.0000
  C   C579      1.0  0.39361571216431146  0.8910837788210151  0.1168571265563112  1.0000
  C   C580      1.0  0.4222087830877986  0.8945741100663093  0.1447692808643697  1.0000
  H   H833      1.0  0.4121371416777469  0.8519096615826797  0.12348802311542384  1.0000
  H   H834      1.0  0.4332398133196552  0.8543199860365209  0.14428987219904332  1.0000
  H   H835      1.0  0.4295231136644465  0.866945675784857  0.09180655621848888  1.0000
  H   H836      1.0  0.38810316956763274  0.8643928566761012  0.18686017020595358  1.0000
  H   H837      1.0  0.4099997499122725  0.865209088997354  0.20723115420486482  1.0000
  H   H838      1.0  0.3901421570955553  0.8873693593722701  0.20271556472893404  1.0000
  H   H839      1.0  0.3844267939731546  0.9050592437373377  0.12912573706731245  1.0000
  H   H840      1.0  0.38284522780535246  0.8813379405468285  0.11650949805970878  1.0000
  H   H841      1.0  0.40067724500532487  0.8955108438219714  0.08327037446194407  1.0000
  H   H842      1.0  0.4131533418840126  0.9082392426862351  0.15863271174296467  1.0000
  H   H843      1.0  0.4301234906408222  0.8997865299018897  0.11234231583071641  1.0000
  H   H844      1.0  0.43399541659523716  0.8871876597233105  0.16463188039949572  1.0000
  N   N50       1.0  0.7763427131414126  0.17856622099781846  0.69678135453419  1.0000
  C   C581      1.0  0.786977590119682  0.1646596244159704  0.7292380864099098  1.0000
  C   C582      1.0  0.7814260030785416  0.16980328440575582  0.6567785879119593  1.0000
  C   C583      1.0  0.7828524239503384  0.19809788429214725  0.6890306494285038  1.0000
  C   C584      1.0  0.7541610407205532  0.18175271155771522  0.7121800740993387  1.0000
  H   H845      1.0  0.7836770251672701  0.17099816527689485  0.7595763320400482  1.0000
  H   H846      1.0  0.8037494932658136  0.1617673250025332  0.7184909659984218  1.0000
  H   H847      1.0  0.7820974150256619  0.1498783901475955  0.7368277508198197  1.0000
  H   H848      1.0  0.7739255219449382  0.1800445346229827  0.6312972373499623  1.0000
  H   H849      1.0  0.7980939101621614  0.16711223536767342  0.6444470963035929  1.0000
  H   H850      1.0  0.7766330286075442  0.15508950300112428  0.661370624564693  1.0000
  H   H851      1.0  0.7796179807714574  0.20490175106681524  0.718811456560111  1.0000
  H   H852      1.0  0.7748894979718898  0.20916573495177226  0.665306438134171  1.0000
  H   H853      1.0  0.79950088311869  0.19631392816608537  0.6768271242914319  1.0000
  H   H854      1.0  0.7456384634407393  0.1918623498407622  0.688123900860896  1.0000
  H   H855      1.0  0.7498286650793865  0.18867464185703914  0.7419622201839307  1.0000
  H   H856      1.0  0.7487976536187868  0.16721634997851895  0.7196667048635679  1.0000
  N   N51       1.0  0.711572519551017  0.45463937422103595  0.9871308731205681  1.0000
  C   C585      1.0  0.730038104265165  0.44122030883044633  0.9679660591231022  1.0000
  C   C586      1.0  0.7025981360018632  0.4691146489588541  0.9531140345142232  1.0000
  C   C587      1.0  0.7169292850509488  0.46583763584025034  0.016213169794845106  1.0000
  C   C588      1.0  0.696671867470528  0.44239575744058923  0.011121979781628877  1.0000
  H   H857      1.0  0.7373419546567267  0.430113167389524  0.9925597596466081  1.0000
  H   H858      1.0  0.7415949205139439  0.4499364137499473  0.9492948625063597  1.0000
  H   H859      1.0  0.726546965951015  0.43259124348064604  0.9457098337932823  1.0000
  H   H860      1.0  0.6894001864118021  0.48033965010063356  0.9664126549770088  1.0000
  H   H861      1.0  0.7138556133301311  0.47776469763355556  0.9327735104026181  1.0000
  H   H862      1.0  0.6972314529195831  0.46129381781335743  0.9321165046656049  1.0000
  H   H863      1.0  0.7033627039287123  0.4762448928260759  0.030962400194001205  1.0000
  H   H864      1.0  0.727952771466333  0.4754101645819969  0.998949860891168  1.0000
  H   H865      1.0  0.7239108640623384  0.45546074190476865  0.042166640574600844  1.0000
  H   H866      1.0  0.6824676505696787  0.4520806133916417  0.025629697195922896  1.0000
  H   H867      1.0  0.7029101241877388  0.43134569027143915  0.037184564079418614  1.0000
  H   H868      1.0  0.6924263170156506  0.43368102395370867  0.9899917540713628  1.0000
  N   N52       1.0  0.9649945513724724  0.20575879241294337  0.1609713791749556  1.0000
  C   C589      1.0  0.9813414228736104  0.19556912222100364  0.12997827826455596  1.0000
  C   C590      1.0  0.9561722912260492  0.19043778351254836  0.19307768774512798  1.0000
  C   C591      1.0  0.94900483487422  0.21886918057382432  0.1385276856060532  1.0000
  C   C592      1.0  0.9733752996195365  0.21817328041143624  0.18246900844505112  1.0000
  H   H869      1.0  0.9886880118748158  0.2066262085965107  0.10579349602113455  1.0000
  H   H870      1.0  0.9753595254525742  0.18643078491425058  0.11262239175143834  1.0000
  H   H871      1.0  0.9934594529929708  0.18513822930026902  0.1459216104617091  1.0000
  H   H872      1.0  0.967918079644111  0.1800060862523527  0.20986620331972644  1.0000
  H   H873      1.0  0.9443007085308466  0.19762131684440298  0.2178688904537469  1.0000
  H   H874      1.0  0.9489214056295775  0.18131836263317536  0.1783426110202035  1.0000
  H   H875      1.0  0.9366214386484689  0.2270581233319635  0.16097736951475167  1.0000
  H   H876      1.0  0.9417908455548942  0.20992387605497198  0.12317642909622271  1.0000
  H   H877      1.0  0.9551609376380912  0.23034339319514507  0.11337431627390285  1.0000
  H   H878      1.0  0.9614038787616759  0.22581108954871354  0.20649156573437005  1.0000
  H   H879      1.0  0.9801320181479997  0.2299824180965404  0.15942066354456041  1.0000
  H   H880      1.0  0.9853525480531772  0.20877220702533128  0.20003598039986778  1.0000
  N   N53       1.0  0.40909358550330027  0.31238191562856604  0.7201883541029419  1.0000
  C   C593      1.0  0.40443900533517435  0.3064047169826011  0.6825861387504705  1.0000
  C   C594      1.0  0.4293990036058244  0.30110869004634483  0.7277985947045891  1.0000
  C   C595      1.0  0.3937286948506596  0.30773150446561853  0.7579773801542614  1.0000
  C   C596      1.0  0.40887057575222735  0.33426190923100896  0.7124017972233848  1.0000
  H   H881      1.0  0.38865595180512186  0.3134782399980597  0.6775880703833802  1.0000
  H   H882      1.0  0.40580931621080374  0.289780236503467  0.6860949481173702  1.0000
  H   H883      1.0  0.415003080681843  0.3107963819150607  0.6529743879140186  1.0000
  H   H884      1.0  0.4335584869601162  0.30538261586583626  0.7556467463582792  1.0000
  H   H885      1.0  0.43008579827364085  0.28454857758400265  0.7339791679520611  1.0000
  H   H886      1.0  0.4412712233179419  0.3041034396770146  0.6996804295891741  1.0000
  H   H887      1.0  0.37815716363338325  0.315988356818237  0.7535918998830079  1.0000
  H   H888      1.0  0.3969763603387518  0.3116003138297298  0.7872433820626781  1.0000
  H   H889      1.0  0.39333526141700836  0.29142640791536056  0.7640735313898573  1.0000
  H   H890      1.0  0.412167328604619  0.33929680647859845  0.7403039585683258  1.0000
  H   H891      1.0  0.3938084459958492  0.34319385365811006  0.7060373004638454  1.0000
  H   H892      1.0  0.42052381567540636  0.3381986712712063  0.6843644320528076  1.0000
  N   N54       1.0  0.8547157937287713  0.19468477352010877  0.8625616163400514  1.0000
  C   C597      1.0  0.8474240889629437  0.207199158188458  0.8244639729022037  1.0000
  C   C598      1.0  0.8536087512811517  0.20773179977558737  0.8945387627555409  1.0000
  C   C599      1.0  0.8759671578018826  0.18412090852940213  0.8506338855808614  1.0000
  C   C600      1.0  0.8418241190350141  0.17965222404749506  0.8807322671741117  1.0000
  H   H893      1.0  0.8314327195755424  0.2154464717010954  0.8324720935135278  1.0000
  H   H894      1.0  0.8477456072469349  0.1978506645354756  0.7998019490502127  1.0000
  H   H895      1.0  0.8568126490265648  0.21868010569385582  0.8096125004388307  1.0000
  H   H896      1.0  0.8377807291702606  0.21603539581796197  0.9040715433506188  1.0000
  H   H897      1.0  0.8587380314534636  0.19874774906841244  0.9240367650834156  1.0000
  H   H898      1.0  0.8632971917102293  0.21916264907061925  0.8822205446285379  1.0000
  H   H899      1.0  0.8773344402531098  0.1740984261581355  0.8266121617289695  1.0000
  H   H900      1.0  0.881828609805295  0.17456296209039088  0.8788653498997281  1.0000
  H   H901      1.0  0.8861574869072599  0.1950050208158653  0.8368628238269842  1.0000
  H   H902      1.0  0.8466958763792238  0.17001314975490942  0.9098468464850279  1.0000
  H   H903      1.0  0.8421893824310307  0.16950049599655453  0.8576436328585973  1.0000
  H   H904      1.0  0.8256976268559739  0.18709625791155945  0.8901008996241685  1.0000
  N   N55       1.0  0.3487441897382797  0.22783550476421022  0.04393683855164707  1.0000
  C   C601      1.0  0.3598401065897114  0.23576162513544693  0.002344434361883908  1.0000
  C   C602      1.0  0.3560518665695745  0.2337182888923766  0.07840988815765011  1.0000
  C   C603      1.0  0.35232427957442675  0.20558563758469842  0.04829197902022982  1.0000
  C   C604      1.0  0.32675044427557454  0.23628622647002318  0.046625664730438256  1.0000
  H   H905      1.0  0.37655581544378136  0.23046081963572326  0.9999206767530047  1.0000
  H   H906      1.0  0.35651902093736576  0.2525624370246258  0.9965178320068523  1.0000
  H   H907      1.0  0.3554495721509119  0.23066695662376235  0.9758675285612896  1.0000
  H   H908      1.0  0.3474058394891069  0.2287115532361687  0.1101838677930114  1.0000
  H   H909      1.0  0.37236689496406883  0.22683566383301298  0.07865144292509173  1.0000
  H   H910      1.0  0.35424553014239435  0.2503902679251002  0.07503502287069365  1.0000
  H   H911      1.0  0.34635756997759876  0.20069881278339435  0.02353495459852553  1.0000
  H   H912      1.0  0.3446282974724885  0.19901530668235431  0.07972602909814713  1.0000
  H   H913      1.0  0.3687800498320936  0.1986498200049949  0.04522477172639376  1.0000
  H   H914      1.0  0.3178899121694947  0.23021436978582305  0.07729554484380317  1.0000
  H   H915      1.0  0.32082365088860476  0.2325418502299348  0.02050105448383325  1.0000
  H   H916      1.0  0.3233970931984723  0.2530289566968189  0.04395247041482216  1.0000
  N   N56       1.0  0.56393297742845  0.557054728310321  0.8780633841906034  1.0000
  C   C605      1.0  0.5516776372360673  0.5413197567127576  0.8942975466709385  1.0000
  C   C606      1.0  0.5851817856665907  0.5486588708608463  0.8837684199350321  1.0000
  C   C607      1.0  0.5554337650305317  0.5744666518731025  0.9014136828059574  1.0000
  C   C608      1.0  0.5634586604426749  0.5638374489675418  0.8323759282176325  1.0000
  H   H917      1.0  0.5575145820388905  0.528129411012068  0.8766960438753372  1.0000
  H   H918      1.0  0.5355464670159903  0.5471458910212745  0.8903571118999469  1.0000
  H   H919      1.0  0.5517519725985177  0.5357148425327413  0.9286778401934016  1.0000
  H   H920      1.0  0.5920439432942817  0.5357237372824496  0.8657004650954252  1.0000
  H   H921      1.0  0.5948158681265896  0.5601757754291883  0.8719493399525748  1.0000
  H   H922      1.0  0.5861942661270222  0.5431332781348465  0.917832437925459  1.0000
  H   H923      1.0  0.5641662985620638  0.5867555875748451  0.889336122411579  1.0000
  H   H924      1.0  0.555618970388059  0.5700349301087068  0.9360792712634357  1.0000
  H   H925      1.0  0.5393910395747269  0.581051564893516  0.8975272686669195  1.0000
  H   H926      1.0  0.5698636683233077  0.5511448571800167  0.8135035074444973  1.0000
  H   H927      1.0  0.5723474551360505  0.5758606978398498  0.8193625639772928  1.0000
  H   H928      1.0  0.5476461862514743  0.5701308005882045  0.8267350040187224  1.0000
  N   N57       1.0  0.9826879556130341  0.7687149334371075  0.28818046920470886  1.0000
  C   C609      1.0  0.9889604359014672  0.7741749179595232  0.24180854545551117  1.0000
  C   C610      1.0  0.9628826294671967  0.7815774006123605  0.302600397427883  1.0000
  C   C611      1.0  0.9979703227866249  0.7718573395786713  0.310667927034753  1.0000
  C   C612      1.0  0.9809148363783949  0.7472941657614234  0.29790221168871217  1.0000
  H   H929      1.0  0.004200792165735878  0.7652001874970756  0.23018987232617957  1.0000
  H   H930      1.0  0.9898406341796079  0.790401668597581  0.23334326730178465  1.0000
  H   H931      1.0  0.9780736637464902  0.7715236293366342  0.22368434405918813  1.0000
  H   H932      1.0  0.9575839105599211  0.7774269376911191  0.33735397358945807  1.0000
  H   H933      1.0  0.9638737597882998  0.7978192419729934  0.29694119707409233  1.0000
  H   H934      1.0  0.9510241682753454  0.7801137616923094  0.285706323592875  1.0000
  H   H935      1.0  0.9935136324486641  0.768082297823719  0.34583140708873944  1.0000
  H   H936      1.0  0.9998380104439015  0.7878306072296751  0.3037668540968987  1.0000
  H   H937      1.0  0.0131289296522068  0.7622433160782741  0.3010088095724901  1.0000
  H   H938      1.0  0.9698693437563214  0.7442227988114944  0.2807663393964304  1.0000
  H   H939      1.0  0.9757022785935396  0.7429006806826  0.3325445790889374  1.0000
  H   H940      1.0  0.9958145235824379  0.7371237423019065  0.28896842977384246  1.0000
  N   N58       1.0  0.26757011018435944  0.1694404277080091  0.32254544816202063  1.0000
  C   C613      1.0  0.2539921741601885  0.18187034981148814  0.29359944454402465  1.0000
  C   C614      1.0  0.2878314667445594  0.1748003922766953  0.31014176705874236  1.0000
  C   C615      1.0  0.2695599370132232  0.14783751365530676  0.3199633443846009  1.0000
  C   C616      1.0  0.25889296233329884  0.17327480085085803  0.3666275050706713  1.0000
  H   H941      1.0  0.238540593783863  0.17823777693022605  0.3023340072607124  1.0000
  H   H942      1.0  0.2599645261076279  0.17932205919456845  0.2600761817065441  1.0000
  H   H943      1.0  0.2522537479404523  0.19826830442368581  0.29435851611131114  1.0000
  H   H944      1.0  0.29843450920478903  0.16559486998125408  0.33136629930556777  1.0000
  H   H945      1.0  0.29487360280106156  0.17220010312227158  0.27705077332378253  1.0000
  H   H946      1.0  0.28699987866427296  0.19095606191544795  0.311846438433585  1.0000
  H   H947      1.0  0.2790429767774796  0.13797381891289304  0.3426625340425745  1.0000
  H   H948      1.0  0.27671927655371237  0.14422622330051732  0.2874696569682618  1.0000
  H   H949      1.0  0.2545099656776935  0.14336012506909002  0.3279750172633443  1.0000
  H   H950      1.0  0.2693169734805283  0.16506745766010933  0.3889736218074984  1.0000
  H   H951      1.0  0.24421506684233124  0.1681764981973625  0.3782772864240585  1.0000
  H   H952      1.0  0.2561735301918388  0.1895795339861332  0.36929499812918304  1.0000
  N   N59       1.0  0.12076218794282535  0.17582427859110386  0.32975416166182675  1.0000
  C   C617      1.0  0.0985988570405998  0.1812657037875532  0.3447430834274267  1.0000
  C   C618      1.0  0.13130232556681926  0.18706768555852385  0.34939636650796047  1.0000
  C   C619      1.0  0.1252791348200037  0.18102511496070064  0.2829148140703414  1.0000
  C   C620      1.0  0.12789217318804044  0.15391679109159837  0.3419398271656185  1.0000
  H   H953      1.0  0.0946177675665156  0.1776321115508932  0.3799559551677955  1.0000
  H   H954      1.0  0.09022568592491138  0.17289883975550663  0.330737714532864  1.0000
  H   H955      1.0  0.09260753184846696  0.19763346211943528  0.3354824129772779  1.0000
  H   H956      1.0  0.14805559193029594  0.18333578756346397  0.3385099913893656  1.0000
  H   H957      1.0  0.12628860139388476  0.20366043134993153  0.34095356077415834  1.0000
  H   H958      1.0  0.12842591838312703  0.18334212041070522  0.3847111459122821  1.0000
  H   H959      1.0  0.14181489279809  0.1764735997985288  0.2703383809284709  1.0000
  H   H960      1.0  0.12063240606542101  0.19751893673524937  0.27259273568856385  1.0000
  H   H961      1.0  0.11703145108896877  0.17332587364772595  0.26713853902293255  1.0000
  H   H962      1.0  0.12506461552267423  0.14940275448225024  0.3770623224196901  1.0000
  H   H963      1.0  0.14447141508812625  0.14919596866006762  0.3303729989334092  1.0000
  H   H964      1.0  0.12009100453440413  0.1449964344327204  0.3281457117719167  1.0000
  N   N60       1.0  0.7773578497099584  0.33159605740434256  0.7013244837526859  1.0000
  C   C621      1.0  0.7887341604026938  0.313071849105458  0.6837858514728737  1.0000
  C   C622      1.0  0.779157990397842  0.3494192362149786  0.6683620877289947  1.0000
  C   C623      1.0  0.7856012689833483  0.33351261564828005  0.7384516880396615  1.0000
  C   C624      1.0  0.7557546326482603  0.3303584433192739  0.7148910584580895  1.0000
  H   H965      1.0  0.7879943567623487  0.299460780214394  0.7083593815292303  1.0000
  H   H966      1.0  0.8050289298020616  0.3136440044373829  0.6720401133715763  1.0000
  H   H967      1.0  0.782276724468013  0.31072664413756357  0.656885109640101  1.0000
  H   H968      1.0  0.770246328034423  0.36357682656128637  0.6803816951629686  1.0000
  H   H969      1.0  0.7952303015396118  0.35112578103151343  0.6578763124135053  1.0000
  H   H970      1.0  0.7733177464443299  0.34826492451373703  0.6396904286070074  1.0000
  H   H971      1.0  0.7770785449919478  0.3471820116917777  0.752897702084797  1.0000
  H   H972      1.0  0.8018942455131883  0.3345381623990578  0.7296577432864059  1.0000
  H   H973      1.0  0.7842330353256547  0.3203472300087328  0.7640420111469015  1.0000
  H   H974      1.0  0.7537999580159828  0.3169511695180138  0.7394519589756074  1.0000
  H   H975      1.0  0.7489313474169588  0.32897577082606816  0.6878323020268297  1.0000
  H   H976      1.0  0.7467580396517713  0.3439265466344129  0.7289331936882302  1.0000
  N   N61       1.0  0.9415972731698625  0.6558548703321877  0.051868358639832524  1.0000
  C   C625      1.0  0.9253034982132906  0.6636963572388989  0.08577773265391286  1.0000
  C   C626      1.0  0.9328884827013533  0.6567090837632784  0.013592370242478058  1.0000
  C   C627      1.0  0.95081779177913  0.6347478322524591  0.06679957172829143  1.0000
  C   C628      1.0  0.9572569254273364  0.6683638095641177  0.04149313403166688  1.0000
  H   H977      1.0  0.9312572416905494  0.6634859671336988  0.11516009812666361  1.0000
  H   H978      1.0  0.9131610797609876  0.654671685637172  0.09454915898551541  1.0000
  H   H979      1.0  0.9180287549494724  0.6795508037259166  0.07527093452002998  1.0000
  H   H980      1.0  0.9207180838958  0.6477355306019642  0.020563091948744727  1.0000
  H   H981      1.0  0.9258971879190231  0.6725172165171827  0.00152396200656435  1.0000
  H   H982      1.0  0.9446612839460968  0.6507466411575906  0.9872950470125752  1.0000
  H   H983      1.0  0.9393300727512003  0.6249607888195059  0.07505463885177632  1.0000
  H   H984      1.0  0.9574439780589475  0.6336891804330401  0.09576421240864019  1.0000
  H   H985      1.0  0.9631987595104586  0.6282910196475429  0.04199678431707077  1.0000
  H   H986      1.0  0.963756154920066  0.668499428845174  0.07002526308140156  1.0000
  H   H987      1.0  0.9507961683518112  0.6843348573122858  0.029599836458369833  1.0000
  H   H988      1.0  0.9700164125005095  0.6627233312961786  0.016493563312287574  1.0000
  N   N62       1.0  0.30956561537814703  0.6892758886369781  0.2615703332732926  1.0000
  C   C629      1.0  0.30923310251490893  0.6798876405368073  0.30647102346733934  1.0000
  C   C630      1.0  0.3298792641301174  0.6827813615839023  0.2362943457136928  1.0000
  C   C631      1.0  0.3050243482278339  0.7114602431267034  0.2590310342763029  1.0000
  C   C632      1.0  0.2940758782389419  0.6830560599557277  0.2445135192404666  1.0000
  H   H989      1.0  0.29370930106362114  0.6833181071674402  0.3256406716442266  1.0000
  H   H990      1.0  0.3195915065489199  0.6854632199031008  0.32142152841443417  1.0000
  H   H991      1.0  0.3141026182616781  0.6631841917732905  0.3093839298987926  1.0000
  H   H992      1.0  0.3305096448022483  0.6892824162633541  0.20214310836457838  1.0000
  H   H993      1.0  0.3418454147851575  0.6876492340585127  0.2477632458285337  1.0000
  H   H994      1.0  0.33406850260118  0.6660855474842132  0.23811167184386406  1.0000
  H   H995      1.0  0.3050738328395259  0.7190493653682277  0.22555087266495621  1.0000
  H   H996      1.0  0.31634928290273234  0.7167029004814421  0.2718210564963486  1.0000
  H   H997      1.0  0.2898413168090866  0.7168675482578394  0.27782981089594805  1.0000
  H   H998      1.0  0.29721994386496486  0.6664286414886174  0.24517923405532427  1.0000
  H   H999      1.0  0.293588652185679  0.6902357077695374  0.21098337879781615  1.0000
  H   H1000     1.0  0.2785803510944153  0.6875185358559412  0.2633203656444356  1.0000
  N   N63       1.0  0.6840028330453666  0.20964408649565908  0.9528709823943251  1.0000
  C   C633      1.0  0.6870939798062633  0.18818477060461436  0.9479217599772539  1.0000
  C   C634      1.0  0.6866097110251445  0.22193871240872992  0.9103694880859846  1.0000
  C   C635      1.0  0.6990298320000191  0.21217936949479932  0.9768001064991908  1.0000
  C   C636      1.0  0.6632825667778963  0.21640821869685886  0.9762147110082448  1.0000
  H   H1001     1.0  0.7026566849525346  0.18266394471657577  0.9304917503817235  1.0000
  H   H1002     1.0  0.6760964492814504  0.1858459254390826  0.9295699204156026  1.0000
  H   H1003     1.0  0.6851810928677815  0.17839419220420086  0.9793400260102358  1.0000
  H   H1004     1.0  0.7018771775192841  0.21690251830001303  0.891419467607132  1.0000
  H   H1005     1.0  0.6749415547767447  0.22114803760005158  0.8921259740621466  1.0000
  H   H1006     1.0  0.6851719980890045  0.23813072147091843  0.9129647909159413  1.0000
  H   H1007     1.0  0.697268938255814  0.2283010777490881  0.9804360721955543  1.0000
  H   H1008     1.0  0.7148396085302027  0.20742680660471616  0.9599880571317057  1.0000
  H   H1009     1.0  0.6975605286970633  0.2031731263684818  0.009135206531723394  1.0000
  H   H1010     1.0  0.6605584648102717  0.23260239295724958  0.9802048827406012  1.0000
  H   H1011     1.0  0.6606712006443459  0.20745398568946607  0.008443439920225115  1.0000
  H   H1012     1.0  0.6514996823792008  0.21506270426478719  0.958791930216982  1.0000
  N   N64       1.0  0.6266421110857548  0.1521077225289319  0.7379130313885495  1.0000
  C   C637      1.0  0.6157312811579929  0.14126961844138722  0.7181585649125084  1.0000
  C   C638      1.0  0.6350462969873302  0.13845553479072478  0.7736598695476532  1.0000
  C   C639      1.0  0.6123749287113304  0.16979520571341036  0.7539302960344032  1.0000
  C   C640      1.0  0.6433701052619964  0.1589782732521301  0.7059591290881904  1.0000
  H   H1013     1.0  0.6259956120013349  0.12785929995739795  0.7054912333650853  1.0000
  H   H1014     1.0  0.6089503123874735  0.15118390923469277  0.6913678763880904  1.0000
  H   H1015     1.0  0.6030942060791591  0.1358045026488443  0.7416729897462195  1.0000
  H   H1016     1.0  0.6429015181101283  0.14631396456491935  0.7900732289896178  1.0000
  H   H1017     1.0  0.6228617032232219  0.13268014714840143  0.7979575866306614  1.0000
  H   H1018     1.0  0.6461775176967824  0.12512524315512688  0.7626606756566028  1.0000
  H   H1019     1.0  0.5994068344412933  0.16517122928534922  0.7775525675757166  1.0000
  H   H1020     1.0  0.6060166420628681  0.18053449155631737  0.7276522872941045  1.0000
  H   H1021     1.0  0.619962755348835  0.1780365755836814  0.7700424410604851  1.0000
  H   H1022     1.0  0.6517953896939466  0.16730672765600255  0.7200054333461785  1.0000
  H   H1023     1.0  0.6375522452033817  0.16929733360148416  0.6785130006106392  1.0000
  H   H1024     1.0  0.6545179188091893  0.1460310199188661  0.6932941992216004  1.0000
