data_image0
_chemical_formula_structural       SCHSC2SHFeSFeSCFeS3HCHC3H5SC3HCHCNCSH2C2H2CH5S2FeCHCH2NCH6CHCH4FeH6C2H3CH6CSFeHSHC2FeHCFeS2H2SC6H4C2HCH2CHCHC2SH5C3HSH9CSH2FeCH2CH2SH2CFeCNH2NHC2SCH2SC3H2C2HSH3SHFeCS2FeS2HC2HCNH2CH3CNHC2H8FeHCS2HC7H3NCH4CH2SHCH2CH4SCH2C3H3SH7SNC2H4C2SHC3HNC4HCFeHCHSC2HCH3CHNCH3CSHC4N2FeC2H2FeNFeS2FeSHFeSFeS3CHCH3SCH2CSC5H2C2H2NC3HCH7CHC2SHCH2CH2CH4C2H4CH2CHCSCH4S2CH3CHCHCH2CHCHCH2C2H2C2H2NCH3CHSH2SHSCHCH3CHCH2CH4FeH2CH4C2H2CNH3CHNC2HCFeCFeS2CH4SCH3SHSHC5H4NHNCH2CHFeH2CH2C2HCHCHC2HCHCH2CHCS2CH2C2HSC3H4SCFeHSFeCHNCH4C2HCH2SHFeS2CFeS2C6H2SH3C2HC4HSH3CNCH8CFeHCH3C2HNHCHSH10C2HCH6CHNH6C2HSHCHC4HCHSCHFeS2H2C2S2NH5S2H2CHCFe2CHCH2CHC2FeHCH3CH5CH2C2HSHSHCH3NCH5CHCHCH4NH2C3HFeHNHC3H3CH3SFeSCHFeCFeHFe2SCS2HFeSFeS2CFeH2SCHSH2C4H6CH3CHC2H2SH3NHCSFeH5CHCHSH4SFeS2H3CHCHCHCHC3H2CH2NSCH2C2SHC2H2CHCNHSH2SHNHCFeC6HC3HFeHC2HSH2C2HSC2FeCHCS2H7C3H4C2H3NCH6CHC3H3NH3CHSHCSH4CSFeH2CHSH3CH2CFeSHFe2CHCFe2S2FeHSHS2H3SCH2C6HCH2NHNH3CFeH2SCHC2HSCHFeH2C2HSHFeNH2SH4FeC2HC2HFeH2CHCSCH3SHCNCSHSC2H5SH3CHCH3CHCH3CH2SC2H2SHC3H5C3H3C3HC2HC2HC3SCH4NHCSFeS3FeNCFeH2C5H5NCH3FeCSNH3SC2H3CH3C3H5NH3FeCH3CFe2SH2FeS2FeHSNH2CFeHC2H2C3HCHCHSHSFeCH2SH3SCH4FeHCHFeHSCSCSFeHSFeSH2CH3C2SCSNHNCFeC7H3CHSFeH4S2H2CHCH2CHC2H3CHC2HCHS2HSH5CH6SCFeCHC2HCHFe2S2FeNS2HCFeHFeHC4H2CH2C2SH2CHCHNHCH5CH2CSCH2C2HFeSHC3H4CH2CFeH2CHCH2SHFeSCHSCHS2HFeNFeSCFeCFeCHS2H2CH3CSHSC2HCHCHCHCHCH2CHCFeH2FeH4C2SHSFeHCHCHC3H2CH3FeHNH3CH2CH2NC4NSCSCHCFeCH3SFeSH2CFeHS2HC3NCH4CH4CH2S2HC2H3CS2CH6SCH2CH3CNHSFeHC2H3CHCHSCH3FeHFeCS2C2HC3H3SHNHFeCNH2SH2CHCHCH4SH3C2H3FeC2Fe2S2H2C2SFeSCH2C3HFeH2CHCH4CH2SH2SHCHCH3SCHSC2HCH2NCSNH2C4HCH3S2H5SC2H2FeH2CH2SCHCH2CH4C2H2CSCSHCSNHC2H2CH3CNCHFeH3SC2HC2HCH3CHCFeHSNH4CSFeH2CH2CH4FeCSHSHC2HSC4H2FeCHCHC4H3SH2FeH2S2HCSCH3SH2CHCSCH5CNS2H4SC3H2SCSH2SCH2NFeH3CHC3FeCH3NHFeSFeS2Fe2S2H2SH4CH2CHCH2CH2C2H2C3H2SC2SFeHSC2HFeSFeHCH2FeHFeSHFeHS2HSH2C2H3SH2N2HC3HSFeSH2C8H4NH2CH5C2HNSH5C5H4CHSHSC2HC3H4FeH2FeSHCHNHSCH2SC6FeC3SCHSCHFeH2FeHCHSHSHC6H6CHCHNHCH4CHCH2SH11SCHS2CH2SHC4HSC2NCH3C2H5CSHCSHCFeHCFeCS2HFeHCH3SHFe2HCH3CFeH2NC2HCSC2H2CFeCH4SC2H3CH2SH6SC6HSCNH2SH2C2H3CFeHCHFeH2NCH2CH3SH3C2HC2NHC5H6CH2CH2SNH3CHCH8CHFeS3FeCHCFeSHC2S2C2HC3H2CSFeHCSHC2H2CS2HFeH3CHCH4FeNSHC6HCHSC3H3NH3NCHS2HCFe2HCFeHSHSFeHSHSFeCHCH2SC3FeCFeHSCH2CHSH2SCHCH3NHS2CH8FeC3H2SCSC3H2C2H3CH7SHCH6FeHSHSH2CHSCSH3SNSHSCH2FeSC8H2SCH2S2CFeCHCH7CNCFeNH2FeHFeH2CHCHC2HCSCHCHCSHCNHCSCHFeHC2H4SCH12CH3CHCH2SH2C6HSHFeSH3FeCS3FeHFeHS2H2FeH2SC5H3SCHFeHSHCH2C7HCH4C2HNC2FeSHSH5SH3SH2SC2H4CHC4H3FeSFeH4CHCH3NSCH2NSC2H2CFeCHCH3CH2CHCHC5HS2CH6CNHSFeCSC2H3C2HC4H4FeHCHCSH4CH2C2NCHSH6C2H2CNCS2H2CH3C3H2CS2HSH4Fe2S2FeCS4CH2CSHC3HNH2C4H2C2HC3HFeH2CHCH2C3HCH3CNH4SH2SH2C3H2C2H3SH5FeCH3FeSNFeC3HCHCFeH2CSH2CSFeHS2FeC2HCHC2HSC2H2CH2SH2CH4CHSNC2HNH3CH2CHSHCHFeSHCNS2CH4C3H2FeHSH3SHSHFeHC2HCH3Fe2C3HCH5CHC3H2C2S2HFeSFeC2HCHCH3NHCFeNHSCH7CSH3CH2C2FeSHSCS2CSC2HFeCSHSH3CFeSC2HC2H4CFeCNCH8S2HCNCHCSH7FeCHFeHSCH2CHCHSC3FeHSFeHCH2NSH4SCH4SHCH2NCH3FeSCHFeS2HCNSH2C5H2C2H2CH2CH2FeSCH3SH2C3H2C3HC2H5CH7SH2C5SH3CHSHC2HCH2CH2CNH2SH4SH4CSNHFeNCHCHCH2C6H2C4HCHC2H2C2NCS2CHCHSH3SCH4CHCSHNCSCHCFeSHFeH4FeSFeS2Fe2S2H2CH4CH2CH2CH4CH2C2NHC2H2NH3SH2SH4CH4C2H2CH2CH4CHFeSH2C2HCNHC2SCHC3HC2H2CH3CHCHC2H6SCH2S2HSC2H2CH3SCH2CSFeH3CSHS2CFeCH2C2SH2CNCH2CHFeHCHCS2HCHC2H3CH2FeC2FeHCSHCHSH2CHC2SNFeC3FeCHSHNC2H2CH4FeCHFeCHSH3CH3SH4SH3CH2SCHFeH9FeS2Fe2H2SNSHSH2S2C4FeH2CHCH2C2SHCNHC3H2SCSC2H5CHCHFeS2H4FeC2H2S2H5CH2C6HCH2CH3NH4FeH2CH6CS2C2FeCH2C2SHCH3CNHSCFeH2NSCH3S3CSCHCHCHC6H4CH2SCHFeHC3FeHFeHCSCH2CH4SNH4CFeHCHSCH2CHCHCFeHCH5S2HCH3NHSCH5SH4FeH3C2H5C2FeCHCHFeHSHCH3CFeHCS3CH2CFeH3NC6H3SC4HCH2FeSHCHCH5FeHCH2CHFeCSCS3HCH4CHSCH2CHCSHFeC2SC2HCHCH2C2HCSCHCFeSH5CHS3CSHCHCS2HCFeH2FeC2HCHSH2CH5CNHFeC2HNSHCHC3HCH2CFeHFeH2CHSH3SFeH3NH2SH2SHFeS2HCHSFeSCFeH5CHCH2FeHCHNCH5CH3NHS2H6FeCSFeS2FeCS2HC2H2C3H4CH7CSH2C6H2CHCHC2HC5NHNH3C2HCH3SCHC3H2CH2C2
_chemical_formula_sum              "S512 C1280 H2048 Fe256 N128"
_cell_length_a       39.6003
_cell_length_b       40.3161
_cell_length_c       49.8006
_cell_angle_alpha    81.5184
_cell_angle_beta     81.4183
_cell_angle_gamma    89.8481

_space_group_name_H-M_alt    "P 1"
_space_group_IT_number       1

loop_
  _space_group_symop_operation_xyz
  'x, y, z'

loop_
  _atom_site_type_symbol
  _atom_site_label
  _atom_site_symmetry_multiplicity
  _atom_site_fract_x
  _atom_site_fract_y
  _atom_site_fract_z
  _atom_site_occupancy
  S   S1        1.0  0.29778  0.22771  0.98910  1.0000
  C   C1        1.0  0.15749  0.19688  0.19640  1.0000
  H   H1        1.0  0.30032  0.18969  0.05736  1.0000
  S   S2        1.0  0.09337  0.17125  0.19876  1.0000
  C   C2        1.0  0.16872  0.05055  0.20395  1.0000
  C   C3        1.0  0.27192  0.25201  0.03604  1.0000
  S   S3        1.0  0.04178  0.16135  0.07760  1.0000
  H   H2        1.0  0.99403  0.12080  0.06200  1.0000
  Fe  Fe1       1.0  0.08691  0.16326  0.10034  1.0000
  S   S4        1.0  0.09613  0.20760  0.12073  1.0000
  Fe  Fe2       1.0  0.15213  0.12813  0.11527  1.0000
  S   S5        1.0  0.16625  0.17018  0.13620  1.0000
  C   C4        1.0  0.06474  0.26685  0.04509  1.0000
  Fe  Fe3       1.0  0.15021  0.20421  0.10094  1.0000
  S   S6        1.0  0.18002  0.25149  0.08318  1.0000
  S   S7        1.0  0.09723  0.12472  0.13552  1.0000
  S   S8        1.0  0.14055  0.16239  0.07783  1.0000
  H   H3        1.0  0.07118  0.25439  0.06514  1.0000
  C   C5        1.0  0.26548  0.23353  0.01571  1.0000
  H   H4        1.0  0.29716  0.26232  0.03564  1.0000
  C   C6        1.0  0.21316  0.24311  0.05799  1.0000
  C   C7        1.0  0.20689  0.22398  0.03795  1.0000
  C   C8        1.0  0.23315  0.21904  0.01686  1.0000
  H   H5        1.0  0.25899  0.09026  0.08180  1.0000
  H   H6        1.0  0.18172  0.21353  0.03836  1.0000
  H   H7        1.0  0.22830  0.20444  0.00121  1.0000
  H   H8        1.0  0.24086  0.00338  0.97962  1.0000
  H   H9        1.0  0.21316  0.30527  0.01852  1.0000
  S   S9        1.0  0.32127  0.24940  0.11258  1.0000
  C   C9        1.0  0.22313  0.09707  0.15324  1.0000
  C   C10       1.0  0.23712  0.04593  0.13452  1.0000
  C   C11       1.0  0.01057  0.21479  0.09954  1.0000
  H   H10       1.0  0.02697  0.21038  0.11508  1.0000
  C   C12       1.0  0.21744  0.07494  0.13516  1.0000
  H   H11       1.0  0.10166  0.21056  0.00573  1.0000
  C   C13       1.0  0.01200  0.19399  0.07930  1.0000
  N   N1        1.0  0.27804  0.14123  0.07430  1.0000
  C   C14       1.0  0.26121  0.03843  0.15260  1.0000
  S   S10       1.0  0.26605  0.25913  0.18608  1.0000
  H   H12       1.0  0.01017  0.08510  0.10203  1.0000
  H   H13       1.0  0.28870  0.16567  0.03242  1.0000
  C   C15       1.0  0.27500  0.10794  0.06565  1.0000
  C   C16       1.0  0.24382  0.15561  0.08003  1.0000
  H   H14       1.0  0.30044  0.09635  0.06129  1.0000
  H   H15       1.0  0.09381  0.26444  0.97766  1.0000
  C   C17       1.0  0.12333  0.26584  0.02316  1.0000
  H   H16       1.0  0.08074  0.30053  0.99334  1.0000
  H   H17       1.0  0.24540  0.18123  0.08567  1.0000
  H   H18       1.0  0.27068  0.32032  0.03017  1.0000
  H   H19       1.0  0.16553  0.07150  0.18734  1.0000
  H   H20       1.0  0.20865  0.11963  0.15389  1.0000
  S   S11       1.0  0.29045  0.04859  0.19799  1.0000
  S   S12       1.0  0.18599  0.08270  0.11326  1.0000
  Fe  Fe4       1.0  0.11077  0.16937  0.15406  1.0000
  C   C18       1.0  0.29908  0.16388  0.05215  1.0000
  H   H21       1.0  0.29618  0.16221  0.10687  1.0000
  C   C19       1.0  0.08500  0.21946  0.02318  1.0000
  H   H22       1.0  0.19433  0.03968  0.19869  1.0000
  H   H23       1.0  0.25110  0.27024  0.07345  1.0000
  N   N2        1.0  0.08769  0.25625  0.02176  1.0000
  C   C20       1.0  0.26126  0.02307  0.97370  1.0000
  H   H24       1.0  0.03757  0.26028  0.04453  1.0000
  H   H25       1.0  0.21852  0.31978  0.06425  1.0000
  H   H26       1.0  0.32071  0.12783  0.09551  1.0000
  H   H27       1.0  0.26740  0.03084  0.99302  1.0000
  H   H28       1.0  0.13141  0.25439  0.04289  1.0000
  H   H29       1.0  0.14143  0.25761  0.00616  1.0000
  C   C21       1.0  0.24581  0.25660  0.05733  1.0000
  H   H30       1.0  0.26292  0.10962  0.04671  1.0000
  C   C22       1.0  0.29443  0.13770  0.09932  1.0000
  H   H31       1.0  0.27533  0.01541  0.15263  1.0000
  H   H32       1.0  0.22768  0.14001  0.09741  1.0000
  H   H33       1.0  0.30835  0.02533  0.08533  1.0000
  H   H34       1.0  0.05831  0.21114  0.02275  1.0000
  Fe  Fe5       1.0  0.31242  0.24259  0.15916  1.0000
  H   H35       1.0  0.21089  0.20978  0.19195  1.0000
  H   H36       1.0  0.23020  0.15743  0.06189  1.0000
  H   H37       1.0  0.25108  0.10677  0.18536  1.0000
  H   H38       1.0  0.27986  0.11997  0.11623  1.0000
  H   H39       1.0  0.14927  0.03086  0.20351  1.0000
  H   H40       1.0  0.23320  0.02879  0.12041  1.0000
  C   C23       1.0  0.24717  0.08962  0.17123  1.0000
  C   C24       1.0  0.26566  0.05990  0.17151  1.0000
  H   H41       1.0  0.09276  0.20624  0.04249  1.0000
  H   H42       1.0  0.15435  0.21043  0.17657  1.0000
  H   H43       1.0  0.06638  0.29444  0.04485  1.0000
  C   C25       1.0  0.07772  0.27274  0.99565  1.0000
  H   H44       1.0  0.02098  0.17693  0.19941  1.0000
  H   H45       1.0  0.31776  0.12649  0.96366  1.0000
  H   H46       1.0  0.25025  0.04497  0.96185  1.0000
  H   H47       1.0  0.12657  0.29351  0.02143  1.0000
  H   H48       1.0  0.05062  0.26686  0.99431  1.0000
  H   H49       1.0  0.32571  0.15509  0.04854  1.0000
  C   C26       1.0  0.18934  0.19705  0.20530  1.0000
  S   S13       1.0  0.31600  0.19265  0.18543  1.0000
  Fe  Fe6       1.0  0.30385  0.28108  0.20822  1.0000
  H   H50       1.0  0.32337  0.04787  0.96890  1.0000
  S   S14       1.0  0.32571  0.03494  0.02645  1.0000
  H   H51       1.0  0.09936  0.25452  0.36869  1.0000
  C   C27       1.0  0.03270  0.00090  0.36840  1.0000
  C   C28       1.0  0.12004  0.27225  0.36788  1.0000
  Fe  Fe7       1.0  0.27343  0.21128  0.21399  1.0000
  H   H52       1.0  0.13218  0.27243  0.28637  1.0000
  C   C29       1.0  0.13138  0.07769  0.23660  1.0000
  Fe  Fe8       1.0  0.14790  0.03756  0.32777  1.0000
  S   S15       1.0  0.14524  0.09253  0.31145  1.0000
  S   S16       1.0  0.02607  0.23903  0.36388  1.0000
  H   H53       1.0  0.17923  0.24059  0.24557  1.0000
  H   H54       1.0  0.03920  0.13850  0.23837  1.0000
  S   S17       1.0  0.23304  0.17913  0.24228  1.0000
  C   C30       1.0  0.10561  0.11233  0.31462  1.0000
  C   C31       1.0  0.10469  0.14712  0.31466  1.0000
  C   C32       1.0  0.07333  0.16351  0.31780  1.0000
  C   C33       1.0  0.04282  0.14518  0.32040  1.0000
  C   C34       1.0  0.04377  0.11054  0.31971  1.0000
  C   C35       1.0  0.07510  0.09402  0.31717  1.0000
  H   H55       1.0  0.12831  0.16131  0.31268  1.0000
  H   H56       1.0  0.07276  0.19025  0.31824  1.0000
  H   H57       1.0  0.02016  0.09630  0.32172  1.0000
  H   H58       1.0  0.07562  0.06719  0.31711  1.0000
  C   C36       1.0  0.19233  0.08709  0.23117  1.0000
  C   C37       1.0  0.14685  0.25033  0.29400  1.0000
  H   H59       1.0  0.13682  0.22803  0.28666  1.0000
  C   C38       1.0  0.19331  0.18000  0.23110  1.0000
  H   H60       1.0  0.19134  0.10925  0.21508  1.0000
  H   H61       1.0  0.08262  0.05244  0.43387  1.0000
  C   C39       1.0  0.17159  0.28815  0.38457  1.0000
  H   H62       1.0  0.02443  0.28938  0.42778  1.0000
  C   C40       1.0  0.13330  0.16356  0.23936  1.0000
  H   H63       1.0  0.11190  0.14997  0.25235  1.0000
  C   C41       1.0  0.16507  0.16417  0.24848  1.0000
  C   C42       1.0  0.05114  0.29965  0.42311  1.0000
  S   S18       1.0  0.30078  0.32828  0.22786  1.0000
  H   H64       1.0  0.01413  0.13500  0.27175  1.0000
  H   H65       1.0  0.06441  0.28781  0.40576  1.0000
  H   H66       1.0  0.03432  0.12093  0.37804  1.0000
  H   H67       1.0  0.16805  0.15145  0.26867  1.0000
  H   H68       1.0  0.19249  0.20250  0.28820  1.0000
  C   C43       1.0  0.01272  0.13982  0.24938  1.0000
  C   C44       1.0  0.15017  0.32413  0.34751  1.0000
  C   C45       1.0  0.00299  0.02017  0.36956  1.0000
  H   H69       1.0  0.19891  0.22103  0.31765  1.0000
  S   S19       1.0  0.00311  0.16477  0.32482  1.0000
  H   H70       1.0  0.11842  0.09182  0.39795  1.0000
  H   H71       1.0  0.14109  0.24626  0.31681  1.0000
  H   H72       1.0  0.21798  0.26311  0.24608  1.0000
  H   H73       1.0  0.19325  0.28107  0.31770  1.0000
  H   H74       1.0  0.03672  0.11272  0.43887  1.0000
  H   H75       1.0  0.00975  0.08948  0.40229  1.0000
  H   H76       1.0  0.23001  0.22763  0.28694  1.0000
  H   H77       1.0  0.09865  0.12124  0.37456  1.0000
  H   H78       1.0  0.22378  0.29063  0.28693  1.0000
  C   C46       1.0  0.19015  0.26134  0.25412  1.0000
  S   S20       1.0  0.17894  0.18253  0.42802  1.0000
  H   H79       1.0  0.03714  0.05192  0.43563  1.0000
  H   H80       1.0  0.06397  0.29125  0.44130  1.0000
  Fe  Fe9       1.0  0.00362  0.21918  0.33040  1.0000
  C   C47       1.0  0.21699  0.05419  0.40175  1.0000
  H   H81       1.0  0.03717  0.07760  0.37369  1.0000
  H   H82       1.0  0.20460  0.10294  0.41345  1.0000
  C   C48       1.0  0.24108  0.02862  0.40121  1.0000
  H   H83       1.0  0.17825  0.28489  0.24573  1.0000
  H   H84       1.0  0.31947  0.28027  0.27270  1.0000
  S   S21       1.0  0.14113  0.01852  0.37290  1.0000
  H   H85       1.0  0.05414  0.00808  0.35247  1.0000
  H   H86       1.0  0.12843  0.09949  0.22060  1.0000
  C   C49       1.0  0.09623  0.09556  0.38656  1.0000
  Fe  Fe10      1.0  0.19934  0.23194  0.43496  1.0000
  C   C50       1.0  0.06161  0.05652  0.42124  1.0000
  N   N3        1.0  0.06343  0.09068  0.40534  1.0000
  H   H87       1.0  0.19359  0.05165  0.39354  1.0000
  H   H88       1.0  0.08241  0.11353  0.43654  1.0000
  N   N4        1.0  0.16507  0.06217  0.23101  1.0000
  H   H89       1.0  0.11018  0.05947  0.23708  1.0000
  C   C51       1.0  0.17423  0.31750  0.36546  1.0000
  C   C52       1.0  0.25373  0.08686  0.42345  1.0000
  S   S22       1.0  0.99793  0.31290  0.33846  1.0000
  C   C53       1.0  0.22318  0.08322  0.41309  1.0000
  H   H90       1.0  0.99745  0.11894  0.24456  1.0000
  H   H91       1.0  0.12799  0.08704  0.25677  1.0000
  S   S23       1.0  0.30838  0.23432  0.23755  1.0000
  C   C54       1.0  0.27139  0.03229  0.41185  1.0000
  C   C55       1.0  0.14431  0.26554  0.38591  1.0000
  C   C56       1.0  0.27779  0.06137  0.42273  1.0000
  H   H92       1.0  0.30143  0.06405  0.43072  1.0000
  H   H93       1.0  0.14203  0.24286  0.40072  1.0000
  C   C57       1.0  0.03493  0.09494  0.38917  1.0000
  C   C58       1.0  0.06102  0.11580  0.42428  1.0000
  H   H94       1.0  0.09853  0.07760  0.37148  1.0000
  S   S24       1.0  0.26362  0.12303  0.43682  1.0000
  H   H95       1.0  0.24420  0.31715  0.44095  1.0000
  H   H96       1.0  0.06338  0.03690  0.40753  1.0000
  H   H97       1.0  0.06199  0.14186  0.41303  1.0000
  S   S25       1.0  0.20310  0.28067  0.40607  1.0000
  H   H98       1.0  0.21815  0.07611  0.22752  1.0000
  Fe  Fe11      1.0  0.22314  0.16030  0.44783  1.0000
  C   C59       1.0  0.16786  0.03330  0.25249  1.0000
  S   S26       1.0  0.02674  0.25980  0.29715  1.0000
  S   S27       1.0  0.19950  0.01514  0.31906  1.0000
  Fe  Fe12      1.0  0.04462  0.28212  0.33131  1.0000
  S   S28       1.0  0.24637  0.21032  0.45023  1.0000
  S   S29       1.0  0.09443  0.31065  0.32485  1.0000
  H   H99       1.0  0.14789  0.01372  0.25307  1.0000
  C   C60       1.0  0.19625  0.28509  0.29486  1.0000
  C   C61       1.0  0.12308  0.30157  0.34860  1.0000
  H   H100      1.0  0.18185  0.30801  0.28853  1.0000
  C   C62       1.0  0.20215  0.22544  0.29481  1.0000
  N   N5        1.0  0.18387  0.25556  0.28446  1.0000
  H   H101      1.0  0.28065  0.02596  0.29047  1.0000
  H   H102      1.0  0.32326  0.27444  0.30854  1.0000
  C   C63       1.0  0.01921  0.19964  0.24779  1.0000
  H   H103      1.0  0.29014  0.01274  0.41144  1.0000
  H   H104      1.0  0.04533  0.20005  0.23584  1.0000
  H   H105      1.0  0.30066  0.01892  0.25695  1.0000
  C   C64       1.0  0.13001  0.17870  0.21281  1.0000
  N   N6        1.0  0.99755  0.17275  0.24163  1.0000
  H   H106      1.0  0.00155  0.04219  0.35451  1.0000
  C   C65       1.0  0.99530  0.17781  0.21193  1.0000
  C   C66       1.0  0.28239  0.00801  0.27537  1.0000
  H   H107      1.0  0.16500  0.04140  0.27307  1.0000
  H   H108      1.0  0.19310  0.02111  0.24898  1.0000
  H   H109      1.0  0.02226  0.19600  0.26985  1.0000
  H   H110      1.0  0.19006  0.09649  0.25131  1.0000
  H   H111      1.0  0.25695  0.00664  0.26857  1.0000
  H   H112      1.0  0.00818  0.22482  0.24286  1.0000
  H   H113      1.0  0.32610  0.31585  0.28874  1.0000
  H   H114      1.0  0.23411  0.31892  0.21186  1.0000
  Fe  Fe13      1.0  0.21583  0.20510  0.49210  1.0000
  H   H115      1.0  0.13175  0.28969  0.63632  1.0000
  C   C67       1.0  0.08619  0.25300  0.69706  1.0000
  S   S30       1.0  0.19433  0.15384  0.49081  1.0000
  S   S31       1.0  0.02045  0.03142  0.50116  1.0000
  H   H116      1.0  0.08940  0.06730  0.71078  1.0000
  C   C68       1.0  0.26657  0.09037  0.50843  1.0000
  C   C69       1.0  0.07580  0.13297  0.48957  1.0000
  C   C70       1.0  0.09472  0.10354  0.49144  1.0000
  C   C71       1.0  0.07775  0.07206  0.49582  1.0000
  C   C72       1.0  0.04198  0.07016  0.49836  1.0000
  C   C73       1.0  0.02330  0.09963  0.49720  1.0000
  C   C74       1.0  0.04018  0.13084  0.49248  1.0000
  H   H117      1.0  0.12230  0.10503  0.48919  1.0000
  H   H118      1.0  0.09232  0.04928  0.49680  1.0000
  H   H119      1.0  0.25913  0.29816  0.60862  1.0000
  N   N7        1.0  0.28214  0.11785  0.51939  1.0000
  C   C75       1.0  0.28993  0.14686  0.49742  1.0000
  H   H120      1.0  0.24243  0.09821  0.50065  1.0000
  H   H121      1.0  0.28394  0.08244  0.49086  1.0000
  H   H122      1.0  0.23396  0.13719  0.53569  1.0000
  H   H123      1.0  0.02327  0.27502  0.48704  1.0000
  C   C76       1.0  0.27611  0.23878  0.52816  1.0000
  H   H124      1.0  0.17296  0.30488  0.47358  1.0000
  H   H125      1.0  0.26644  0.15677  0.48990  1.0000
  S   S32       1.0  0.23833  0.21474  0.52967  1.0000
  H   H126      1.0  0.26805  0.30184  0.46809  1.0000
  C   C77       1.0  0.21166  0.29321  0.65392  1.0000
  H   H127      1.0  0.26085  0.06783  0.52432  1.0000
  H   H128      1.0  0.30251  0.16784  0.50467  1.0000
  C   C78       1.0  0.25831  0.12800  0.54239  1.0000
  H   H129      1.0  0.21613  0.26671  0.66242  1.0000
  H   H130      1.0  0.26933  0.14892  0.55087  1.0000
  H   H131      1.0  0.25187  0.10675  0.55937  1.0000
  H   H132      1.0  0.03087  0.22398  0.53860  1.0000
  S   S33       1.0  0.31991  0.01587  0.53297  1.0000
  C   C79       1.0  0.28605  0.24559  0.55274  1.0000
  H   H133      1.0  0.02566  0.15348  0.49024  1.0000
  H   H134      1.0  0.08264  0.27051  0.49754  1.0000
  C   C80       1.0  0.31545  0.26528  0.55242  1.0000
  C   C81       1.0  0.02750  0.31004  0.64654  1.0000
  C   C82       1.0  0.10106  0.31096  0.69889  1.0000
  H   H135      1.0  0.30919  0.08470  0.54624  1.0000
  H   H136      1.0  0.10414  0.23540  0.65873  1.0000
  H   H137      1.0  0.08070  0.02748  0.61802  1.0000
  S   S34       1.0  0.17050  0.23110  0.47721  1.0000
  H   H138      1.0  0.27077  0.23578  0.57215  1.0000
  H   H139      1.0  0.30706  0.13987  0.47937  1.0000
  H   H140      1.0  0.06544  0.12256  0.69425  1.0000
  H   H141      1.0  0.19960  0.31966  0.52419  1.0000
  H   H142      1.0  0.20419  0.28071  0.51107  1.0000
  H   H143      1.0  0.03347  0.17978  0.53701  1.0000
  H   H144      1.0  0.02502  0.20825  0.50774  1.0000
  S   S35       1.0  0.11911  0.30533  0.53071  1.0000
  N   N8        1.0  0.99753  0.31080  0.66801  1.0000
  C   C83       1.0  0.07727  0.30953  0.52308  1.0000
  C   C84       1.0  0.08581  0.00092  0.61978  1.0000
  H   H145      1.0  0.27473  0.27244  0.63672  1.0000
  H   H146      1.0  0.02276  0.10504  0.70147  1.0000
  H   H147      1.0  0.09447  0.00076  0.57602  1.0000
  H   H148      1.0  0.05136  0.30606  0.65571  1.0000
  C   C85       1.0  0.21627  0.30596  0.50972  1.0000
  C   C86       1.0  0.06571  0.28879  0.50597  1.0000
  S   S36       1.0  0.09504  0.17312  0.48257  1.0000
  H   H149      1.0  0.99575  0.09845  0.49964  1.0000
  C   C87       1.0  0.11804  0.31440  0.67183  1.0000
  C   C88       1.0  0.03218  0.29131  0.50004  1.0000
  C   C89       1.0  0.00999  0.31429  0.51149  1.0000
  H   H150      1.0  0.29335  0.31313  0.62394  1.0000
  N   N9        1.0  0.24371  0.31342  0.64827  1.0000
  C   C90       1.0  0.10322  0.25648  0.66998  1.0000
  C   C91       1.0  0.11885  0.28721  0.65727  1.0000
  C   C92       1.0  0.26873  0.29864  0.62847  1.0000
  C   C93       1.0  0.29609  0.25156  0.50319  1.0000
  H   H151      1.0  0.28912  0.24593  0.48416  1.0000
  C   C94       1.0  0.31406  0.10617  0.52927  1.0000
  Fe  Fe14      1.0  0.15214  0.18035  0.47151  1.0000
  H   H152      1.0  0.02506  0.28941  0.63429  1.0000
  C   C95       1.0  0.24187  0.30484  0.46271  1.0000
  H   H153      1.0  0.26314  0.28785  0.68375  1.0000
  S   S37       1.0  0.07557  0.00119  0.67508  1.0000
  C   C96       1.0  0.25761  0.31366  0.67421  1.0000
  C   C97       1.0  0.18656  0.32927  0.47252  1.0000
  H   H154      1.0  0.24122  0.30233  0.51739  1.0000
  C   C98       1.0  0.04292  0.11674  0.71057  1.0000
  H   H155      1.0  0.32265  0.27049  0.57151  1.0000
  H   H156      1.0  0.01687  0.27341  0.69700  1.0000
  H   H157      1.0  0.19242  0.30331  0.66917  1.0000
  C   C99       1.0  0.01949  0.20291  0.53057  1.0000
  H   H158      1.0  0.19995  0.29300  0.63498  1.0000
  N   N10       1.0  0.22045  0.32434  0.48141  1.0000
  C   C100      1.0  0.99402  0.27843  0.68661  1.0000
  H   H159      1.0  0.23070  0.27938  0.46358  1.0000
  H   H160      1.0  0.28208  0.32831  0.67089  1.0000
  H   H161      1.0  0.23952  0.32487  0.68954  1.0000
  C   C101      1.0  0.32522  0.27173  0.50283  1.0000
  S   S38       1.0  0.17615  0.33072  0.58236  1.0000
  H   H162      1.0  0.30302  0.29171  0.81361  1.0000
  C   C102      1.0  0.15961  0.32121  0.79509  1.0000
  C   C103      1.0  0.28660  0.32104  0.77829  1.0000
  C   C104      1.0  0.15850  0.25449  0.93795  1.0000
  C   C105      1.0  0.03491  0.30884  0.81430  1.0000
  N   N11       1.0  0.05210  0.09449  0.73464  1.0000
  N   N12       1.0  0.28769  0.24098  0.90103  1.0000
  Fe  Fe15      1.0  0.00227  0.23994  0.80441  1.0000
  C   C106      1.0  0.16597  0.00946  0.85947  1.0000
  C   C107      1.0  0.02634  0.00294  0.95062  1.0000
  H   H163      1.0  0.23375  0.05554  0.86893  1.0000
  H   H164      1.0  0.26992  0.02198  0.92027  1.0000
  Fe  Fe16      1.0  0.02904  0.21454  0.75106  1.0000
  N   N13       1.0  0.29180  0.01072  0.95750  1.0000
  Fe  Fe17      1.0  0.20478  0.13439  0.87918  1.0000
  S   S39       1.0  0.22971  0.13646  0.83578  1.0000
  S   S40       1.0  0.22635  0.10311  0.91331  1.0000
  Fe  Fe18      1.0  0.15253  0.18615  0.86413  1.0000
  S   S41       1.0  0.17275  0.19199  0.81896  1.0000
  H   H165      1.0  0.08587  0.09544  0.76450  1.0000
  Fe  Fe19      1.0  0.17579  0.13549  0.82664  1.0000
  S   S42       1.0  0.16851  0.09809  0.79839  1.0000
  Fe  Fe20      1.0  0.22420  0.19210  0.83265  1.0000
  S   S43       1.0  0.26919  0.22790  0.82074  1.0000
  S   S44       1.0  0.15105  0.12969  0.87069  1.0000
  S   S45       1.0  0.20359  0.18988  0.87712  1.0000
  C   C108      1.0  0.03579  0.15797  0.91549  1.0000
  H   H166      1.0  0.15529  0.20783  0.92207  1.0000
  C   C109      1.0  0.14758  0.23369  0.92051  1.0000
  H   H167      1.0  0.99497  0.11485  0.89759  1.0000
  H   H168      1.0  0.05419  0.12289  0.87398  1.0000
  H   H169      1.0  0.04694  0.04981  0.71650  1.0000
  S   S46       1.0  0.16061  0.31308  0.95939  1.0000
  C   C110      1.0  0.10592  0.02291  0.78951  1.0000
  H   H170      1.0  0.10830  0.00187  0.77849  1.0000
  H   H171      1.0  0.15354  0.03001  0.84723  1.0000
  C   C111      1.0  0.22009  0.02025  0.82986  1.0000
  S   S47       1.0  0.11175  0.22037  0.87981  1.0000
  C   C112      1.0  0.13235  0.07135  0.80262  1.0000
  C   C113      1.0  0.10159  0.07722  0.81896  1.0000
  C   C114      1.0  0.07272  0.05640  0.81981  1.0000
  C   C115      1.0  0.07463  0.02953  0.80460  1.0000
  C   C116      1.0  0.13447  0.04386  0.78828  1.0000
  H   H172      1.0  0.09965  0.09845  0.83005  1.0000
  H   H173      1.0  0.04861  0.06183  0.83156  1.0000
  C   C117      1.0  0.04849  0.14978  0.86802  1.0000
  C   C118      1.0  0.01480  0.03608  0.94620  1.0000
  H   H174      1.0  0.00664  0.20164  0.85997  1.0000
  H   H175      1.0  0.28059  0.13543  0.87234  1.0000
  N   N14       1.0  0.02280  0.16192  0.88889  1.0000
  C   C119      1.0  0.07974  0.32702  0.77622  1.0000
  C   C120      1.0  0.28869  0.13339  0.89226  1.0000
  C   C121      1.0  0.26688  0.11867  0.91574  1.0000
  H   H176      1.0  0.04063  0.13116  0.92282  1.0000
  C   C122      1.0  0.30347  0.26310  0.91683  1.0000
  H   H177      1.0  0.31053  0.05863  0.93573  1.0000
  H   H178      1.0  0.31540  0.28580  0.90331  1.0000
  H   H179      1.0  0.20910  0.04078  0.81647  1.0000
  H   H180      1.0  0.19732  0.29076  0.83199  1.0000
  H   H181      1.0  0.03940  0.15209  0.84776  1.0000
  H   H182      1.0  0.03992  0.21345  0.87749  1.0000
  H   H183      1.0  0.06871  0.13539  0.75315  1.0000
  C   C123      1.0  0.31438  0.22967  0.88048  1.0000
  H   H184      1.0  0.07197  0.04510  0.74391  1.0000
  C   C124      1.0  0.02145  0.08693  0.75560  1.0000
  C   C125      1.0  0.27752  0.11629  0.94145  1.0000
  S   S48       1.0  0.03960  0.19995  0.79430  1.0000
  H   H185      1.0  0.26050  0.10566  0.95974  1.0000
  C   C126      1.0  0.27164  0.21175  0.92005  1.0000
  H   H186      1.0  0.15263  0.28474  0.84490  1.0000
  H   H187      1.0  0.19363  0.04727  0.89099  1.0000
  C   C127      1.0  0.28266  0.00116  0.93196  1.0000
  H   H188      1.0  0.10179  0.11771  0.73114  1.0000
  H   H189      1.0  0.13761  0.30311  0.79909  1.0000
  C   C128      1.0  0.08488  0.28041  0.71143  1.0000
  H   H190      1.0  0.24785  0.02584  0.82839  1.0000
  H   H191      1.0  0.31804  0.17327  0.81670  1.0000
  H   H192      1.0  0.15829  0.03884  0.77591  1.0000
  H   H193      1.0  0.17820  0.31125  0.86017  1.0000
  C   C129      1.0  0.26658  0.32155  0.75738  1.0000
  C   C130      1.0  0.24545  0.29383  0.75694  1.0000
  H   H194      1.0  0.00135  0.07332  0.74789  1.0000
  H   H195      1.0  0.15214  0.00632  0.88085  1.0000
  H   H196      1.0  0.11801  0.32584  0.91656  1.0000
  H   H197      1.0  0.28426  0.27134  0.93310  1.0000
  C   C131      1.0  0.17399  0.30365  0.84031  1.0000
  H   H198      1.0  0.30933  0.27941  0.71995  1.0000
  H   H199      1.0  0.17495  0.24465  0.95264  1.0000
  C   C132      1.0  0.20643  0.04877  0.86932  1.0000
  H   H200      1.0  0.09763  0.32137  0.75897  1.0000
  C   C133      1.0  0.12575  0.24602  0.90183  1.0000
  S   S49       1.0  0.03736  0.00574  0.80373  1.0000
  C   C134      1.0  0.26158  0.25973  0.88701  1.0000
  H   H201      1.0  0.27304  0.28207  0.87273  1.0000
  H   H202      1.0  0.25097  0.21945  0.93549  1.0000
  H   H203      1.0  0.03326  0.14117  0.71619  1.0000
  H   H204      1.0  0.30356  0.21226  0.86846  1.0000
  S   S50       1.0  0.99611  0.25772  0.76068  1.0000
  S   S51       1.0  0.00637  0.27754  0.83257  1.0000
  C   C135      1.0  0.01624  0.19772  0.88008  1.0000
  H   H205      1.0  0.07180  0.27793  0.73232  1.0000
  H   H206      1.0  0.22990  0.29412  0.74081  1.0000
  H   H207      1.0  0.09766  0.28878  0.88656  1.0000
  C   C136      1.0  0.12638  0.30023  0.91774  1.0000
  H   H208      1.0  0.24953  0.24395  0.87450  1.0000
  C   C137      1.0  0.24484  0.26538  0.77709  1.0000
  H   H209      1.0  0.05942  0.27657  0.78671  1.0000
  C   C138      1.0  0.11483  0.27920  0.90075  1.0000
  H   H210      1.0  0.07292  0.16442  0.86500  1.0000
  H   H211      1.0  0.24095  0.26841  0.90199  1.0000
  C   C139      1.0  0.05810  0.30169  0.79193  1.0000
  H   H212      1.0  0.19486  0.06982  0.85694  1.0000
  C   C140      1.0  0.26594  0.26443  0.79734  1.0000
  H   H213      1.0  0.02764  0.07103  0.77440  1.0000
  C   C141      1.0  0.28642  0.29245  0.79814  1.0000
  H   H214      1.0  0.22916  0.24372  0.77628  1.0000
  H   H215      1.0  0.06014  0.17241  0.91389  1.0000
  C   C142      1.0  0.14802  0.28784  0.93652  1.0000
  C   C143      1.0  0.32129  0.14526  0.89456  1.0000
  H   H216      1.0  0.01017  0.11014  0.76229  1.0000
  H   H217      1.0  0.29059  0.19811  0.93179  1.0000
  C   C144      1.0  0.31007  0.12806  0.94369  1.0000
  C   C145      1.0  0.07827  0.11149  0.74635  1.0000
  H   H218      1.0  0.26040  0.19367  0.90890  1.0000
  H   H219      1.0  0.02598  0.05303  0.92817  1.0000
  N   N15       1.0  0.20268  0.01695  0.85858  1.0000
  C   C146      1.0  0.06573  0.06285  0.72609  1.0000
  H   H220      1.0  0.18212  0.30837  0.78547  1.0000
  H   H221      1.0  0.32388  0.24993  0.92720  1.0000
  H   H222      1.0  0.01706  0.16691  0.93172  1.0000
  C   C147      1.0  0.31833  0.03754  0.95036  1.0000
  H   H223      1.0  0.31143  0.17419  0.78171  1.0000
  S   S52       1.0  0.06627  0.21437  0.71221  1.0000
  H   H224      1.0  0.99699  0.20783  0.89527  1.0000
  H   H225      1.0  0.32284  0.11293  0.78568  1.0000
  S   S53       1.0  0.15609  0.40499  0.97556  1.0000
  H   H226      1.0  0.21206  0.54614  0.00349  1.0000
  S   S54       1.0  0.06774  0.44116  0.99740  1.0000
  C   C148      1.0  0.05100  0.48180  0.99419  1.0000
  H   H227      1.0  0.27546  0.34918  0.99896  1.0000
  C   C149      1.0  0.30529  0.44286  0.98166  1.0000
  H   H228      1.0  0.23017  0.36175  0.06778  1.0000
  H   H229      1.0  0.18831  0.35240  0.06046  1.0000
  H   H230      1.0  0.23188  0.49113  0.15585  1.0000
  C   C150      1.0  0.03017  0.49176  0.01681  1.0000
  H   H231      1.0  0.23951  0.40629  0.02527  1.0000
  C   C151      1.0  0.27571  0.56855  0.00262  1.0000
  H   H232      1.0  0.00902  0.63972  0.13607  1.0000
  H   H233      1.0  0.02630  0.47520  0.03625  1.0000
  C   C152      1.0  0.22037  0.55926  0.18273  1.0000
  H   H234      1.0  0.19564  0.65128  0.16550  1.0000
  H   H235      1.0  0.20136  0.45735  0.16514  1.0000
  H   H236      1.0  0.19052  0.57908  0.01951  1.0000
  H   H237      1.0  0.30741  0.43675  0.16498  1.0000
  Fe  Fe21      1.0  0.32528  0.51735  0.20884  1.0000
  H   H238      1.0  0.28062  0.55459  0.02264  1.0000
  H   H239      1.0  0.26465  0.64287  0.10853  1.0000
  C   C153      1.0  0.22807  0.46398  0.15522  1.0000
  H   H240      1.0  0.23034  0.46061  0.13326  1.0000
  H   H241      1.0  0.25603  0.47674  0.19911  1.0000
  H   H242      1.0  0.99779  0.53024  0.03192  1.0000
  H   H243      1.0  0.26932  0.63024  0.01699  1.0000
  C   C154      1.0  0.21030  0.65549  0.14436  1.0000
  C   C155      1.0  0.24606  0.40764  0.16927  1.0000
  H   H244      1.0  0.29465  0.47909  0.15587  1.0000
  H   H245      1.0  0.27431  0.54990  0.98839  1.0000
  C   C156      1.0  0.31508  0.41166  0.97426  1.0000
  N   N16       1.0  0.22873  0.35372  0.02623  1.0000
  H   H246      1.0  0.21972  0.40021  0.17960  1.0000
  H   H247      1.0  0.22330  0.44513  0.20910  1.0000
  H   H248      1.0  0.31782  0.45345  0.99643  1.0000
  C   C157      1.0  0.28803  0.45247  0.15527  1.0000
  H   H249      1.0  0.29115  0.44894  0.13330  1.0000
  N   N17       1.0  0.25300  0.44358  0.16944  1.0000
  C   C158      1.0  0.01392  0.52282  0.01436  1.0000
  C   C159      1.0  0.27909  0.46054  0.97014  1.0000
  H   H250      1.0  0.08617  0.60903  0.02450  1.0000
  C   C160      1.0  0.06774  0.61476  0.00975  1.0000
  Fe  Fe22      1.0  0.10134  0.64266  0.08222  1.0000
  C   C161      1.0  0.01816  0.54393  0.98916  1.0000
  Fe  Fe23      1.0  0.17083  0.61620  0.09417  1.0000
  S   S55       1.0  0.12791  0.63995  0.11952  1.0000
  S   S56       1.0  0.14179  0.61451  0.05891  1.0000
  C   C162      1.0  0.21481  0.56516  0.01717  1.0000
  H   H251      1.0  0.29830  0.58511  0.99410  1.0000
  H   H252      1.0  0.02742  0.65649  0.98354  1.0000
  H   H253      1.0  0.25150  0.59950  0.04557  1.0000
  H   H254      1.0  0.25947  0.62568  0.97073  1.0000
  S   S57       1.0  0.04625  0.63306  0.07911  1.0000
  C   C163      1.0  0.22364  0.38946  0.01614  1.0000
  H   H255      1.0  0.28796  0.64830  0.16544  1.0000
  H   H256      1.0  0.30001  0.53990  0.15425  1.0000
  H   H257      1.0  0.24871  0.40164  0.14797  1.0000
  S   S58       1.0  0.20706  0.57360  0.10229  1.0000
  H   H258      1.0  0.20862  0.63210  0.13537  1.0000
  S   S59       1.0  0.99650  0.58208  0.98525  1.0000
  H   H259      1.0  0.17910  0.57448  0.15995  1.0000
  C   C164      1.0  0.24742  0.61241  0.02496  1.0000
  C   C165      1.0  0.23886  0.60649  0.97893  1.0000
  C   C166      1.0  0.22484  0.56512  0.13298  1.0000
  C   C167      1.0  0.25449  0.54924  0.18136  1.0000
  C   C168      1.0  0.25882  0.55480  0.13166  1.0000
  H   H260      1.0  0.19652  0.39656  0.02112  1.0000
  H   H261      1.0  0.26412  0.39156  0.18029  1.0000
  H   H262      1.0  0.23076  0.39509  0.99349  1.0000
  H   H263      1.0  0.04258  0.61894  0.02201  1.0000
  N   N18       1.0  0.07904  0.64420  0.98892  1.0000
  H   H264      1.0  0.28106  0.36344  0.03047  1.0000
  N   N19       1.0  0.24418  0.58815  0.00590  1.0000
  C   C169      1.0  0.26554  0.34636  0.02128  1.0000
  H   H265      1.0  0.21869  0.33710  0.98892  1.0000
  H   H266      1.0  0.21777  0.55153  0.03783  1.0000
  C   C170      1.0  0.27367  0.54717  0.15571  1.0000
  H   H267      1.0  0.24660  0.63618  0.18415  1.0000
  Fe  Fe24      1.0  0.10754  0.42740  0.96366  1.0000
  H   H268      1.0  0.27389  0.55298  0.11193  1.0000
  H   H269      1.0  0.21436  0.62004  0.98027  1.0000
  C   C171      1.0  0.05621  0.50347  0.96920  1.0000
  H   H270      1.0  0.26418  0.61595  0.15556  1.0000
  H   H271      1.0  0.22404  0.62756  0.02782  1.0000
  C   C172      1.0  0.05248  0.65228  0.97119  1.0000
  C   C173      1.0  0.20557  0.56723  0.15863  1.0000
  H   H272      1.0  0.13174  0.63007  0.98485  1.0000
  C   C174      1.0  0.26183  0.64042  0.16326  1.0000
  H   H273      1.0  0.06486  0.59198  0.00008  1.0000
  C   C175      1.0  0.11126  0.63656  0.97202  1.0000
  H   H274      1.0  0.27177  0.48468  0.97596  1.0000
  C   C176      1.0  0.24978  0.45016  0.19811  1.0000
  C   C177      1.0  0.21593  0.34669  0.05598  1.0000
  H   H275      1.0  0.20519  0.56056  0.20251  1.0000
  C   C178      1.0  0.03998  0.53460  0.96676  1.0000
  H   H276      1.0  0.23836  0.58928  0.96343  1.0000
  C   C179      1.0  0.20980  0.33244  0.01149  1.0000
  H   H277      1.0  0.18194  0.33736  0.01464  1.0000
  H   H278      1.0  0.26724  0.43432  0.20986  1.0000
  C   C180      1.0  0.19888  0.52137  0.39723  1.0000
  H   H279      1.0  0.17670  0.63553  0.25243  1.0000
  C   C181      1.0  0.19096  0.59221  0.29493  1.0000
  S   S60       1.0  0.08569  0.43729  0.36151  1.0000
  S   S61       1.0  0.16403  0.40888  0.24517  1.0000
  C   C182      1.0  0.06010  0.59865  0.39989  1.0000
  H   H280      1.0  0.18618  0.56846  0.28714  1.0000
  H   H281      1.0  0.08725  0.35435  0.26621  1.0000
  C   C183      1.0  0.22226  0.64489  0.28617  1.0000
  C   C184      1.0  0.26129  0.34773  0.23515  1.0000
  H   H282      1.0  0.99992  0.38578  0.25957  1.0000
  S   S62       1.0  0.24888  0.65511  0.40415  1.0000
  C   C185      1.0  0.20050  0.38371  0.24367  1.0000
  C   C186      1.0  0.22877  0.39169  0.25543  1.0000
  C   C187      1.0  0.25915  0.37387  0.25101  1.0000
  H   H283      1.0  0.12472  0.57753  0.35283  1.0000
  H   H284      1.0  0.22772  0.41247  0.26702  1.0000
  H   H285      1.0  0.28134  0.38099  0.25936  1.0000
  H   H286      1.0  0.00849  0.33723  0.39488  1.0000
  S   S63       1.0  0.10985  0.47084  0.28317  1.0000
  C   C188      1.0  0.05883  0.39386  0.30170  1.0000
  Fe  Fe25      1.0  0.12270  0.46265  0.32590  1.0000
  H   H287      1.0  0.24817  0.59247  0.38455  1.0000
  S   S64       1.0  0.17342  0.43921  0.31531  1.0000
  Fe  Fe26      1.0  0.16187  0.44973  0.27214  1.0000
  C   C189      1.0  0.06180  0.64626  0.28147  1.0000
  H   H288      1.0  0.05058  0.41838  0.30797  1.0000
  N   N20       1.0  0.04724  0.38884  0.27565  1.0000
  C   C190      1.0  0.06191  0.41568  0.25351  1.0000
  H   H289      1.0  0.19516  0.48754  0.36793  1.0000
  H   H290      1.0  0.04815  0.33514  0.28461  1.0000
  H   H291      1.0  0.00196  0.52013  0.33339  1.0000
  H   H292      1.0  0.08723  0.39324  0.29996  1.0000
  C   C191      1.0  0.08757  0.34925  0.41093  1.0000
  C   C192      1.0  0.04742  0.45900  0.36593  1.0000
  H   H293      1.0  0.03140  0.43253  0.40659  1.0000
  C   C193      1.0  0.02502  0.45152  0.39057  1.0000
  H   H294      1.0  0.10832  0.64233  0.25351  1.0000
  H   H295      1.0  0.31030  0.55073  0.30039  1.0000
  S   S65       1.0  0.27252  0.53972  0.21186  1.0000
  H   H296      1.0  0.19698  0.59994  0.23977  1.0000
  Fe  Fe27      1.0  0.13661  0.52077  0.27903  1.0000
  S   S66       1.0  0.14434  0.51451  0.32304  1.0000
  S   S67       1.0  0.12462  0.57238  0.25885  1.0000
  C   C194      1.0  0.20164  0.62274  0.24901  1.0000
  Fe  Fe28      1.0  0.19409  0.49223  0.30772  1.0000
  S   S68       1.0  0.24074  0.51502  0.31900  1.0000
  S   S69       1.0  0.18750  0.50067  0.26333  1.0000
  C   C195      1.0  0.09152  0.59396  0.27622  1.0000
  C   C196      1.0  0.06678  0.57669  0.29634  1.0000
  C   C197      1.0  0.03897  0.59399  0.30825  1.0000
  C   C198      1.0  0.03625  0.62871  0.30068  1.0000
  C   C199      1.0  0.23256  0.33879  0.22436  1.0000
  C   C200      1.0  0.08921  0.62882  0.26904  1.0000
  H   H297      1.0  0.06832  0.54983  0.30188  1.0000
  H   H298      1.0  0.01911  0.58036  0.32297  1.0000
  S   S70       1.0  0.99957  0.64869  0.31463  1.0000
  H   H299      1.0  0.20047  0.58536  0.31490  1.0000
  H   H300      1.0  0.21914  0.64002  0.23372  1.0000
  H   H301      1.0  0.09036  0.41567  0.25058  1.0000
  C   C201      1.0  0.24495  0.55840  0.35562  1.0000
  C   C202      1.0  0.21367  0.55109  0.40192  1.0000
  H   H302      1.0  0.10083  0.34214  0.42908  1.0000
  C   C203      1.0  0.00837  0.50098  0.34935  1.0000
  C   C204      1.0  0.03552  0.34647  0.39156  1.0000
  C   C205      1.0  0.23647  0.56972  0.38100  1.0000
  C   C206      1.0  0.23011  0.52876  0.35089  1.0000
  H   H303      1.0  0.26276  0.57281  0.33962  1.0000
  S   S71       1.0  0.20338  0.56493  0.43386  1.0000
  H   H304      1.0  0.16593  0.60466  0.29880  1.0000
  H   H305      1.0  0.31063  0.52811  0.34989  1.0000
  H   H306      1.0  0.23184  0.63927  0.30624  1.0000
  C   C207      1.0  0.10583  0.59416  0.36277  1.0000
  N   N21       1.0  0.21575  0.61396  0.27494  1.0000
  C   C208      1.0  0.24804  0.59586  0.26966  1.0000
  H   H307      1.0  0.25920  0.58873  0.28884  1.0000
  H   H308      1.0  0.08895  0.37712  0.40563  1.0000
  H   H309      1.0  0.24392  0.57218  0.26137  1.0000
  H   H310      1.0  0.05371  0.44089  0.25821  1.0000
  H   H311      1.0  0.26744  0.61137  0.25456  1.0000
  H   H312      1.0  0.09130  0.54713  0.42610  1.0000
  H   H313      1.0  0.03566  0.37425  0.38577  1.0000
  H   H314      1.0  0.05626  0.48953  0.32612  1.0000
  C   C209      1.0  0.03909  0.48368  0.34523  1.0000
  Fe  Fe29      1.0  0.20718  0.62110  0.42877  1.0000
  H   H315      1.0  0.04842  0.55796  0.36401  1.0000
  C   C210      1.0  0.20668  0.51048  0.37155  1.0000
  H   H316      1.0  0.04296  0.58517  0.41795  1.0000
  H   H317      1.0  0.12033  0.61523  0.36823  1.0000
  H   H318      1.0  0.12545  0.54369  0.39851  1.0000
  C   C211      1.0  0.20222  0.35678  0.22861  1.0000
  C   C212      1.0  0.10664  0.56125  0.40734  1.0000
  H   H319      1.0  0.18123  0.50690  0.41335  1.0000
  N   N22       1.0  0.08454  0.57555  0.38726  1.0000
  H   H320      1.0  0.12143  0.58119  0.41406  1.0000
  C   C213      1.0  0.06549  0.54812  0.37907  1.0000
  H   H321      1.0  0.04360  0.61062  0.38508  1.0000
  S   S72       1.0  0.16602  0.64667  0.40817  1.0000
  H   H322      1.0  0.07355  0.61906  0.40722  1.0000
  H   H323      1.0  0.08994  0.60508  0.34709  1.0000
  H   H324      1.0  0.04911  0.53352  0.39706  1.0000
  H   H325      1.0  0.08306  0.53014  0.36943  1.0000
  H   H326      1.0  0.04861  0.37383  0.31879  1.0000
  H   H327      1.0  0.04552  0.34552  0.45825  1.0000
  H   H328      1.0  0.99986  0.41431  0.28419  1.0000
  H   H329      1.0  0.05075  0.35129  0.24884  1.0000
  H   H330      1.0  0.05391  0.41255  0.23353  1.0000
  H   H331      1.0  0.18044  0.35060  0.21939  1.0000
  C   C214      1.0  0.00952  0.38982  0.27879  1.0000
  C   C215      1.0  0.05886  0.35597  0.26843  1.0000
  H   H332      1.0  0.03165  0.37890  0.43480  1.0000
  C   C216      1.0  0.03295  0.35116  0.43960  1.0000
  H   H333      1.0  0.19865  0.65981  0.28950  1.0000
  H   H334      1.0  0.99747  0.36987  0.29521  1.0000
  H   H335      1.0  0.10245  0.33892  0.39339  1.0000
  H   H336      1.0  0.19516  0.33512  0.36434  1.0000
  H   H337      1.0  0.15268  0.34687  0.33269  1.0000
  H   H338      1.0  0.00625  0.34098  0.44509  1.0000
  C   C217      1.0  0.99461  0.46905  0.39479  1.0000
  H   H339      1.0  0.18873  0.34217  0.45096  1.0000
  N   N23       1.0  0.05180  0.33663  0.41632  1.0000
  H   H340      1.0  0.04935  0.33601  0.37362  1.0000
  H   H341      1.0  0.24169  0.66130  0.27195  1.0000
  H   H342      1.0  0.24105  0.37172  0.45959  1.0000
  H   H343      1.0  0.32604  0.63803  0.22597  1.0000
  H   H344      1.0  0.32524  0.59065  0.30677  1.0000
  H   H345      1.0  0.32609  0.56815  0.35548  1.0000
  C   C218      1.0  0.31143  0.42372  0.52730  1.0000
  C   C219      1.0  0.18526  0.39933  0.70815  1.0000
  H   H346      1.0  0.00500  0.51481  0.53526  1.0000
  S   S73       1.0  0.16193  0.38907  0.53185  1.0000
  H   H347      1.0  0.06926  0.59677  0.67280  1.0000
  C   C220      1.0  0.01555  0.45582  0.51569  1.0000
  H   H348      1.0  0.00486  0.49769  0.57070  1.0000
  C   C221      1.0  0.14262  0.43614  0.69101  1.0000
  C   C222      1.0  0.27776  0.42016  0.54098  1.0000
  C   C223      1.0  0.05529  0.33308  0.53394  1.0000
  C   C224      1.0  0.31342  0.48182  0.53481  1.0000
  H   H349      1.0  0.13037  0.61854  0.46716  1.0000
  C   C225      1.0  0.18670  0.52456  0.54785  1.0000
  H   H350      1.0  0.21009  0.51323  0.55480  1.0000
  S   S74       1.0  0.25629  0.38124  0.54458  1.0000
  C   C226      1.0  0.28003  0.47803  0.54905  1.0000
  H   H351      1.0  0.00446  0.61300  0.47148  1.0000
  Fe  Fe30      1.0  0.14578  0.36198  0.61064  1.0000
  S   S75       1.0  0.13868  0.35264  0.65680  1.0000
  S   S76       1.0  0.17331  0.41009  0.59120  1.0000
  H   H352      1.0  0.18508  0.38463  0.69095  1.0000
  H   H353      1.0  0.06409  0.34941  0.54687  1.0000
  C   C227      1.0  0.05132  0.61773  0.67580  1.0000
  C   C228      1.0  0.09802  0.48057  0.58359  1.0000
  S   S77       1.0  0.10895  0.46429  0.55288  1.0000
  S   S78       1.0  0.03018  0.54502  0.47919  1.0000
  N   N24       1.0  0.17650  0.43473  0.70015  1.0000
  H   H354      1.0  0.14233  0.42297  0.67288  1.0000
  H   H355      1.0  0.08696  0.45596  0.65274  1.0000
  H   H356      1.0  0.24439  0.54662  0.51429  1.0000
  H   H357      1.0  0.00436  0.36318  0.67044  1.0000
  H   H358      1.0  0.26816  0.49889  0.55789  1.0000
  S   S79       1.0  0.19955  0.65015  0.46419  1.0000
  S   S80       1.0  0.10232  0.36933  0.58622  1.0000
  H   H359      1.0  0.04622  0.62945  0.65517  1.0000
  H   H360      1.0  0.21559  0.58100  0.51738  1.0000
  C   C229      1.0  0.03190  0.61422  0.47062  1.0000
  H   H361      1.0  0.23620  0.44484  0.56258  1.0000
  C   C230      1.0  0.15949  0.54861  0.50943  1.0000
  Fe  Fe31      1.0  0.13248  0.41484  0.56426  1.0000
  Fe  Fe32      1.0  0.05967  0.48802  0.70084  1.0000
  C   C231      1.0  0.26203  0.44742  0.55183  1.0000
  H   H362      1.0  0.02554  0.33511  0.69377  1.0000
  C   C232      1.0  0.09535  0.45927  0.60872  1.0000
  H   H363      1.0  0.22180  0.37273  0.49449  1.0000
  H   H364      1.0  0.09841  0.43258  0.60924  1.0000
  C   C233      1.0  0.05034  0.58463  0.47421  1.0000
  H   H365      1.0  0.18070  0.54701  0.55816  1.0000
  C   C234      1.0  0.08882  0.47248  0.63341  1.0000
  C   C235      1.0  0.02159  0.33527  0.52834  1.0000
  Fe  Fe33      1.0  0.20018  0.37963  0.56077  1.0000
  H   H366      1.0  0.16545  0.50602  0.55544  1.0000
  C   C236      1.0  0.08574  0.50707  0.63294  1.0000
  H   H367      1.0  0.26030  0.36426  0.63288  1.0000
  H   H368      1.0  0.04401  0.45579  0.51270  1.0000
  H   H369      1.0  0.00811  0.65384  0.70617  1.0000
  C   C237      1.0  0.09383  0.51507  0.58310  1.0000
  H   H370      1.0  0.17669  0.48393  0.51144  1.0000
  H   H371      1.0  0.00636  0.43159  0.51092  1.0000
  H   H372      1.0  0.01969  0.55887  0.67808  1.0000
  H   H373      1.0  0.00265  0.40880  0.56081  1.0000
  H   H374      1.0  0.22183  0.49047  0.51049  1.0000
  C   C238      1.0  0.19808  0.50266  0.50486  1.0000
  H   H375      1.0  0.00462  0.35336  0.53691  1.0000
  H   H376      1.0  0.00798  0.47622  0.50030  1.0000
  C   C239      1.0  0.00257  0.58020  0.68160  1.0000
  C   C240      1.0  0.20234  0.45054  0.67739  1.0000
  H   H377      1.0  0.16984  0.34433  0.48592  1.0000
  S   S81       1.0  0.08028  0.52429  0.66346  1.0000
  H   H378      1.0  0.13716  0.53097  0.51602  1.0000
  S   S82       1.0  0.04881  0.43254  0.70804  1.0000
  H   H379      1.0  0.04098  0.43255  0.56140  1.0000
  C   C241      1.0  0.04903  0.64552  0.46623  1.0000
  H   H380      1.0  0.00318  0.43717  0.58514  1.0000
  H   H381      1.0  0.21694  0.35960  0.65036  1.0000
  H   H382      1.0  0.04235  0.49504  0.54592  1.0000
  N   N25       1.0  0.19110  0.53333  0.51763  1.0000
  C   C242      1.0  0.22011  0.55739  0.50842  1.0000
  H   H383      1.0  0.20141  0.50850  0.48201  1.0000
  H   H384      1.0  0.03081  0.33404  0.63205  1.0000
  H   H385      1.0  0.32384  0.40258  0.51918  1.0000
  H   H386      1.0  0.09581  0.53159  0.56371  1.0000
  H   H387      1.0  0.08570  0.55516  0.60745  1.0000
  C   C243      1.0  0.08816  0.52837  0.60780  1.0000
  H   H388      1.0  0.19648  0.47733  0.67103  1.0000
  C   C244      1.0  0.01263  0.43365  0.56363  1.0000
  H   H389      1.0  0.15332  0.57187  0.51858  1.0000
  C   C245      1.0  0.23720  0.35725  0.48067  1.0000
  H   H390      1.0  0.22433  0.56439  0.48569  1.0000
  H   H391      1.0  0.16191  0.55553  0.48674  1.0000
  H   H392      1.0  0.12272  0.42367  0.70744  1.0000
  H   H393      1.0  0.20336  0.43753  0.65907  1.0000
  N   N26       1.0  0.01940  0.60561  0.69395  1.0000
  H   H394      1.0  0.06481  0.63679  0.68463  1.0000
  H   H395      1.0  0.22827  0.44982  0.68350  1.0000
  C   C246      1.0  0.01394  0.49355  0.54922  1.0000
  C   C247      1.0  0.23679  0.34816  0.63649  1.0000
  C   C248      1.0  0.10296  0.61752  0.46815  1.0000
  H   H396      1.0  0.26260  0.35433  0.48775  1.0000
  Fe  Fe34      1.0  0.13534  0.34271  0.55575  1.0000
  H   H397      1.0  0.10011  0.56353  0.47570  1.0000
  N   N27       1.0  0.00142  0.46098  0.54391  1.0000
  H   H398      1.0  0.10023  0.33208  0.71009  1.0000
  C   C249      1.0  0.08581  0.58637  0.47310  1.0000
  C   C250      1.0  0.00208  0.33834  0.68384  1.0000
  C   C251      1.0  0.08464  0.64719  0.46488  1.0000
  H   H399      1.0  0.13473  0.46248  0.68532  1.0000
  H   H400      1.0  0.22749  0.34904  0.61640  1.0000
  H   H401      1.0  0.99554  0.59091  0.66132  1.0000
  C   C252      1.0  0.99617  0.63398  0.69718  1.0000
  H   H402      1.0  0.32581  0.47970  0.59902  1.0000
  H   H403      1.0  0.00383  0.52926  0.84102  1.0000
  H   H404      1.0  0.01081  0.45760  0.89657  1.0000
  S   S83       1.0  0.26801  0.35651  0.73157  1.0000
  Fe  Fe35      1.0  0.14903  0.36751  0.94772  1.0000
  S   S84       1.0  0.08695  0.48656  0.73712  1.0000
  C   C253      1.0  0.02755  0.59055  0.72111  1.0000
  H   H405      1.0  0.21627  0.58657  0.84645  1.0000
  Fe  Fe36      1.0  0.21966  0.64781  0.87794  1.0000
  C   C254      1.0  0.20644  0.53403  0.88689  1.0000
  Fe  Fe37      1.0  0.99984  0.44527  0.73278  1.0000
  H   H406      1.0  0.19011  0.37926  0.79978  1.0000
  Fe  Fe38      1.0  0.07009  0.43281  0.74731  1.0000
  Fe  Fe39      1.0  0.29524  0.40102  0.74167  1.0000
  S   S85       1.0  0.22919  0.65861  0.83194  1.0000
  C   C255      1.0  0.13550  0.34961  0.83272  1.0000
  S   S86       1.0  0.22423  0.49508  0.76897  1.0000
  S   S87       1.0  0.28142  0.41563  0.78355  1.0000
  H   H407      1.0  0.15642  0.44180  0.74153  1.0000
  Fe  Fe40      1.0  0.12864  0.41977  0.90384  1.0000
  S   S88       1.0  0.10975  0.42848  0.86309  1.0000
  Fe  Fe41      1.0  0.27211  0.46609  0.76076  1.0000
  S   S89       1.0  0.17925  0.39744  0.91045  1.0000
  S   S90       1.0  0.09795  0.38674  0.93925  1.0000
  C   C256      1.0  0.07778  0.35968  0.78251  1.0000
  Fe  Fe42      1.0  0.18190  0.43688  0.93746  1.0000
  H   H408      1.0  0.20091  0.45203  0.73154  1.0000
  H   H409      1.0  0.13924  0.35840  0.85227  1.0000
  S   S91       1.0  0.28232  0.45047  0.71919  1.0000
  C   C257      1.0  0.19259  0.47380  0.79385  1.0000
  H   H410      1.0  0.16953  0.47976  0.71880  1.0000
  S   S92       1.0  0.13384  0.46232  0.92745  1.0000
  H   H411      1.0  0.10635  0.47243  0.81262  1.0000
  H   H412      1.0  0.20206  0.65743  0.75501  1.0000
  C   C258      1.0  0.99830  0.51164  0.86062  1.0000
  C   C259      1.0  0.14161  0.44463  0.83596  1.0000
  C   C260      1.0  0.17590  0.43681  0.83685  1.0000
  C   C261      1.0  0.20133  0.45098  0.81560  1.0000
  H   H413      1.0  0.18290  0.41988  0.85387  1.0000
  H   H414      1.0  0.22780  0.44543  0.81674  1.0000
  H   H415      1.0  0.23020  0.53615  0.89609  1.0000
  H   H416      1.0  0.01107  0.65417  0.90965  1.0000
  H   H417      1.0  0.04328  0.48538  0.82302  1.0000
  H   H418      1.0  0.07212  0.49596  0.95163  1.0000
  C   C262      1.0  0.13277  0.46632  0.81358  1.0000
  H   H419      1.0  0.19254  0.51086  0.89786  1.0000
  H   H420      1.0  0.00426  0.58053  0.73538  1.0000
  H   H421      1.0  0.01597  0.34678  0.83863  1.0000
  C   C263      1.0  0.05500  0.36680  0.80515  1.0000
  H   H422      1.0  0.11265  0.33252  0.83718  1.0000
  C   C264      1.0  0.30560  0.60088  0.92894  1.0000
  C   C265      1.0  0.19546  0.35678  0.81435  1.0000
  H   H423      1.0  0.05405  0.39189  0.81043  1.0000
  H   H424      1.0  0.16652  0.38686  0.72559  1.0000
  S   S93       1.0  0.10387  0.39142  0.76190  1.0000
  H   H425      1.0  0.99351  0.42702  0.87936  1.0000
  H   H426      1.0  0.01667  0.51786  0.87406  1.0000
  H   H427      1.0  0.05520  0.47596  0.85648  1.0000
  N   N28       1.0  0.16615  0.33283  0.82065  1.0000
  H   H428      1.0  0.03963  0.44320  0.84051  1.0000
  C   C266      1.0  0.15827  0.48133  0.79281  1.0000
  S   S94       1.0  0.00869  0.50095  0.72235  1.0000
  Fe  Fe43      1.0  0.03570  0.49744  0.75917  1.0000
  H   H429      1.0  0.15137  0.49907  0.77608  1.0000
  H   H430      1.0  0.04369  0.55107  0.94728  1.0000
  H   H431      1.0  0.20140  0.36580  0.83322  1.0000
  H   H432      1.0  0.29935  0.57442  0.93099  1.0000
  H   H433      1.0  0.04548  0.56937  0.71936  1.0000
  C   C267      1.0  0.23609  0.50425  0.85212  1.0000
  H   H434      1.0  0.12083  0.65846  0.95643  1.0000
  C   C268      1.0  0.03621  0.46992  0.84345  1.0000
  H   H435      1.0  0.21094  0.39724  0.71474  1.0000
  S   S95       1.0  0.02065  0.44293  0.77267  1.0000
  H   H436      1.0  0.24260  0.50299  0.82974  1.0000
  H   H437      1.0  0.21891  0.34517  0.80474  1.0000
  H   H438      1.0  0.03990  0.60918  0.73119  1.0000
  H   H439      1.0  0.25854  0.40501  0.92971  1.0000
  S   S96       1.0  0.25235  0.61025  0.89983  1.0000
  Fe  Fe44      1.0  0.17464  0.64184  0.83473  1.0000
  S   S97       1.0  0.16806  0.60912  0.80290  1.0000
  S   S98       1.0  0.16616  0.62779  0.88037  1.0000
  H   H440      1.0  0.18700  0.53039  0.82309  1.0000
  H   H441      1.0  0.19049  0.55583  0.89142  1.0000
  H   H442      1.0  0.16808  0.50604  0.85497  1.0000
  C   C269      1.0  0.26178  0.44674  0.95174  1.0000
  H   H443      1.0  0.26045  0.50589  0.86053  1.0000
  C   C270      1.0  0.27151  0.41559  0.94423  1.0000
  H   H444      1.0  0.22315  0.48016  0.86221  1.0000
  C   C271      1.0  0.23233  0.56446  0.84332  1.0000
  H   H445      1.0  0.23865  0.56462  0.82073  1.0000
  C   C272      1.0  0.18206  0.52989  0.84578  1.0000
  H   H446      1.0  0.12917  0.37208  0.81856  1.0000
  C   C273      1.0  0.12917  0.59071  0.79878  1.0000
  C   C274      1.0  0.09853  0.59384  0.81626  1.0000
  C   C275      1.0  0.06834  0.57822  0.81193  1.0000
  H   H447      1.0  0.09808  0.60812  0.83306  1.0000
  H   H448      1.0  0.04468  0.58065  0.82545  1.0000
  C   C276      1.0  0.12930  0.57256  0.77689  1.0000
  H   H449      1.0  0.16464  0.55094  0.84965  1.0000
  H   H450      1.0  0.09983  0.54440  0.75508  1.0000
  N   N29       1.0  0.21421  0.53313  0.85704  1.0000
  S   S99       1.0  0.03096  0.53913  0.78544  1.0000
  C   C277      1.0  0.09925  0.55731  0.77251  1.0000
  H   H451      1.0  0.15283  0.57022  0.76317  1.0000
  H   H452      1.0  0.25644  0.56817  0.85160  1.0000
  C   C278      1.0  0.06874  0.55945  0.79022  1.0000
  C   C279      1.0  0.28704  0.62441  0.91368  1.0000
  S   S100      1.0  0.22804  0.46876  0.93860  1.0000
  H   H453      1.0  0.30318  0.34221  0.77861  1.0000
  C   C280      1.0  0.03373  0.34127  0.82122  1.0000
  C   C281      1.0  0.17581  0.45287  0.72397  1.0000
  H   H454      1.0  0.15368  0.34254  0.77973  1.0000
  H   H455      1.0  0.13864  0.65516  0.75582  1.0000
  C   C282      1.0  0.29850  0.39836  0.95514  1.0000
  H   H456      1.0  0.30620  0.37481  0.94875  1.0000
  C   C283      1.0  0.29552  0.65851  0.91080  1.0000
  N   N30       1.0  0.00095  0.47631  0.85585  1.0000
  H   H457      1.0  0.04878  0.63149  0.95942  1.0000
  S   S101      1.0  0.32536  0.48581  0.75865  1.0000
  H   H458      1.0  0.10785  0.61517  0.96082  1.0000
  H   H459      1.0  0.16178  0.75974  0.05368  1.0000
  S   S102      1.0  0.12265  0.69301  0.06242  1.0000
  H   H460      1.0  0.04658  0.87469  0.00620  1.0000
  N   N31       1.0  0.01548  0.83074  0.00747  1.0000
  H   H461      1.0  0.29244  0.67418  0.11581  1.0000
  C   C284      1.0  0.18581  0.75117  0.18487  1.0000
  Fe  Fe45      1.0  0.30629  0.74942  0.19593  1.0000
  C   C285      1.0  0.16162  0.73352  0.14736  1.0000
  C   C286      1.0  0.27596  0.71924  0.99872  1.0000
  C   C287      1.0  0.24389  0.70319  0.00703  1.0000
  C   C288      1.0  0.04855  0.84690  0.00852  1.0000
  C   C289      1.0  0.01306  0.72788  0.08200  1.0000
  C   C290      1.0  0.28770  0.72913  0.97079  1.0000
  H   H462      1.0  0.29191  0.72345  0.01379  1.0000
  C   C291      1.0  0.02316  0.67032  0.07438  1.0000
  C   C292      1.0  0.00435  0.84195  0.98061  1.0000
  C   C293      1.0  0.22747  0.78050  0.04702  1.0000
  H   H463      1.0  0.20132  0.76866  0.19222  1.0000
  Fe  Fe46      1.0  0.15225  0.68885  0.09742  1.0000
  H   H464      1.0  0.19708  0.67513  0.13200  1.0000
  C   C294      1.0  0.03244  0.69871  0.08489  1.0000
  C   C295      1.0  0.08469  0.67323  0.00277  1.0000
  H   H465      1.0  0.23576  0.71818  0.13942  1.0000
  S   S103      1.0  0.13045  0.81081  0.97599  1.0000
  H   H466      1.0  0.16877  0.75322  0.96331  1.0000
  H   H467      1.0  0.27355  0.70704  0.15392  1.0000
  C   C296      1.0  0.30514  0.98129  0.97381  1.0000
  C   C297      1.0  0.24701  0.69863  0.15347  1.0000
  H   H468      1.0  0.02000  0.74951  0.09068  1.0000
  S   S104      1.0  0.16191  0.73738  0.11192  1.0000
  C   C298      1.0  0.14630  0.70565  0.16505  1.0000
  C   C299      1.0  0.17234  0.72231  0.20218  1.0000
  Fe  Fe47      1.0  0.32453  0.83675  0.01968  1.0000
  C   C300      1.0  0.23909  0.90626  0.97174  1.0000
  H   H469      1.0  0.03939  0.78615  0.99525  1.0000
  C   C301      1.0  0.15153  0.70012  0.19259  1.0000
  S   S105      1.0  0.11671  0.90412  0.98340  1.0000
  S   S106      1.0  0.28072  0.86532  0.03892  1.0000
  H   H470      1.0  0.31187  0.98754  0.99340  1.0000
  H   H471      1.0  0.24032  0.75706  0.04224  1.0000
  H   H472      1.0  0.02247  0.83405  0.96354  1.0000
  H   H473      1.0  0.24767  0.80022  0.04502  1.0000
  H   H474      1.0  0.20090  0.80524  0.98543  1.0000
  H   H475      1.0  0.24025  0.81504  0.99667  1.0000
  H   H476      1.0  0.23245  0.69807  0.17442  1.0000
  C   C302      1.0  0.23751  0.91651  0.02623  1.0000
  C   C303      1.0  0.25783  0.89115  0.01632  1.0000
  C   C304      1.0  0.25848  0.88611  0.98900  1.0000
  H   H477      1.0  0.23013  0.77267  0.99340  1.0000
  H   H478      1.0  0.23666  0.92056  0.04732  1.0000
  H   H479      1.0  0.15620  0.77040  0.01843  1.0000
  H   H480      1.0  0.28597  0.96041  0.97928  1.0000
  C   C305      1.0  0.21863  0.93707  0.00886  1.0000
  C   C306      1.0  0.21931  0.93195  0.98159  1.0000
  H   H481      1.0  0.27347  0.86650  0.98110  1.0000
  H   H482      1.0  0.17268  0.81876  0.05709  1.0000
  H   H483      1.0  0.06843  0.84068  0.99197  1.0000
  N   N32       1.0  0.20203  0.79067  0.02861  1.0000
  C   C307      1.0  0.22342  0.69733  0.98748  1.0000
  H   H484      1.0  0.13124  0.68789  0.15738  1.0000
  H   H485      1.0  0.21531  0.77597  0.06893  1.0000
  H   H486      1.0  0.23520  0.69553  0.02849  1.0000
  H   H487      1.0  0.30203  0.87862  0.11652  1.0000
  H   H488      1.0  0.20347  0.95697  0.01660  1.0000
  H   H489      1.0  0.05397  0.69793  0.09600  1.0000
  C   C308      1.0  0.21910  0.79615  0.99977  1.0000
  H   H490      1.0  0.16677  0.83059  0.02183  1.0000
  C   C309      1.0  0.17555  0.76397  0.03226  1.0000
  C   C310      1.0  0.18016  0.75698  0.15756  1.0000
  C   C311      1.0  0.01194  0.98090  0.97388  1.0000
  H   H491      1.0  0.18671  0.73978  0.02763  1.0000
  H   H492      1.0  0.14082  0.67787  0.20602  1.0000
  H   H493      1.0  0.05790  0.83842  0.02837  1.0000
  N   N33       1.0  0.24613  0.66546  0.14437  1.0000
  H   H494      1.0  0.02692  0.78444  0.03155  1.0000
  H   H495      1.0  0.20525  0.84269  0.03319  1.0000
  H   H496      1.0  0.19180  0.77870  0.14396  1.0000
  C   C312      1.0  0.18594  0.82207  0.03549  1.0000
  H   H497      1.0  0.06120  0.67908  0.01642  1.0000
  S   S107      1.0  0.18281  0.67803  0.99714  1.0000
  H   H498      1.0  0.00239  0.86974  0.97662  1.0000
  C   C313      1.0  0.01939  0.79394  0.01117  1.0000
  S   S108      1.0  0.02389  0.93851  0.97937  1.0000
  H   H499      1.0  0.99709  0.83166  0.05020  1.0000
  H   H500      1.0  0.10525  0.66813  0.01563  1.0000
  H   H501      1.0  0.31309  0.81930  0.10833  1.0000
  H   H502      1.0  0.09277  0.69606  0.98768  1.0000
  C   C314      1.0  0.26524  0.66739  0.11632  1.0000
  S   S109      1.0  0.19712  0.66505  0.07538  1.0000
  Fe  Fe48      1.0  0.16523  0.66496  0.04223  1.0000
  H   H503      1.0  0.25468  0.68670  0.10165  1.0000
  H   H504      1.0  0.32582  0.89435  0.08357  1.0000
  C   C315      1.0  0.99480  0.67148  0.06047  1.0000
  H   H505      1.0  0.99507  0.78080  0.00998  1.0000
  S   S110      1.0  0.18519  0.71185  0.23438  1.0000
  H   H506      1.0  0.20060  0.80492  0.27586  1.0000
  H   H507      1.0  0.05986  0.67302  0.27549  1.0000
  H   H508      1.0  0.25424  0.85651  0.23370  1.0000
  C   C316      1.0  0.00633  0.96286  0.40814  1.0000
  H   H509      1.0  0.25388  0.76938  0.43625  1.0000
  H   H510      1.0  0.18736  0.76908  0.26220  1.0000
  C   C317      1.0  0.27529  0.77360  0.44659  1.0000
  Fe  Fe49      1.0  0.23917  0.72972  0.23212  1.0000
  S   S111      1.0  0.26041  0.73170  0.27076  1.0000
  H   H511      1.0  0.16128  0.85241  0.28096  1.0000
  Fe  Fe50      1.0  0.23787  0.68715  0.43774  1.0000
  Fe  Fe51      1.0  0.16110  0.67853  0.44140  1.0000
  C   C318      1.0  0.27038  0.75739  0.34260  1.0000
  H   H512      1.0  0.14032  0.68985  0.32076  1.0000
  C   C319      1.0  0.06996  0.76605  0.41802  1.0000
  Fe  Fe52      1.0  0.99728  0.70506  0.31211  1.0000
  Fe  Fe53      1.0  0.20653  0.68331  0.38658  1.0000
  S   S112      1.0  0.19845  0.71834  0.41796  1.0000
  S   S113      1.0  0.12015  0.99432  0.31659  1.0000
  Fe  Fe54      1.0  0.28578  0.77983  0.24907  1.0000
  H   H513      1.0  0.08161  0.74079  0.42041  1.0000
  S   S114      1.0  0.28365  0.81790  0.27850  1.0000
  H   H514      1.0  0.04530  0.76342  0.41028  1.0000
  S   S115      1.0  0.28424  0.70444  0.45407  1.0000
  S   S116      1.0  0.18872  0.94525  0.27398  1.0000
  H   H515      1.0  0.11684  0.79937  0.43822  1.0000
  H   H516      1.0  0.14460  0.84041  0.22544  1.0000
  H   H517      1.0  0.00737  0.94051  0.42296  1.0000
  S   S117      1.0  0.02854  0.74820  0.28648  1.0000
  C   C320      1.0  0.16430  0.82481  0.23475  1.0000
  H   H518      1.0  0.02519  0.81269  0.43239  1.0000
  H   H519      1.0  0.26778  0.93973  0.42431  1.0000
  C   C321      1.0  0.25520  0.85170  0.27718  1.0000
  C   C322      1.0  0.24497  0.86628  0.25249  1.0000
  C   C323      1.0  0.22396  0.89453  0.25190  1.0000
  C   C324      1.0  0.21262  0.90808  0.27601  1.0000
  C   C325      1.0  0.22193  0.89276  0.30084  1.0000
  C   C326      1.0  0.24353  0.86499  0.30133  1.0000
  H   H520      1.0  0.18678  0.84139  0.23444  1.0000
  C   C327      1.0  0.12168  0.78648  0.26219  1.0000
  H   H521      1.0  0.21302  0.90263  0.31963  1.0000
  H   H522      1.0  0.25127  0.85378  0.32052  1.0000
  N   N34       1.0  0.15100  0.80879  0.26296  1.0000
  H   H523      1.0  0.29291  0.72594  0.38787  1.0000
  N   N35       1.0  0.30380  0.74140  0.34415  1.0000
  H   H524      1.0  0.24240  0.95882  0.30607  1.0000
  H   H525      1.0  0.27118  0.78407  0.34587  1.0000
  H   H526      1.0  0.06721  0.83136  0.42426  1.0000
  C   C328      1.0  0.05026  0.81372  0.43982  1.0000
  Fe  Fe55      1.0  0.17144  0.96975  0.31179  1.0000
  H   H527      1.0  0.11070  0.75773  0.45698  1.0000
  H   H528      1.0  0.27549  0.93558  0.32070  1.0000
  S   S118      1.0  0.28194  0.69947  0.21433  1.0000
  C   C329      1.0  0.13672  0.77191  0.35305  1.0000
  H   H529      1.0  0.29644  0.70640  0.31677  1.0000
  C   C330      1.0  0.30215  0.70675  0.33791  1.0000
  C   C331      1.0  0.28478  0.80654  0.44937  1.0000
  H   H530      1.0  0.08698  0.78244  0.40160  1.0000
  S   S119      1.0  0.23405  0.99141  0.38801  1.0000
  C   C332      1.0  0.10865  0.76200  0.34187  1.0000
  H   H531      1.0  0.26962  0.95012  0.25893  1.0000
  Fe  Fe56      1.0  0.02801  0.76724  0.32674  1.0000
  H   H532      1.0  0.27056  0.82760  0.44115  1.0000
  H   H533      1.0  0.13612  0.79514  0.36155  1.0000
  C   C333      1.0  0.16571  0.75197  0.35316  1.0000
  C   C334      1.0  0.29454  0.95171  0.26645  1.0000
  H   H534      1.0  0.26233  0.75718  0.32217  1.0000
  S   S120      1.0  0.07350  0.78852  0.34094  1.0000
  H   H535      1.0  0.10995  0.77518  0.28318  1.0000
  Fe  Fe57      1.0  0.30580  0.70656  0.25101  1.0000
  N   N36       1.0  0.29313  0.97454  0.28723  1.0000
  H   H536      1.0  0.30152  0.92582  0.27474  1.0000
  H   H537      1.0  0.31368  0.76636  0.37758  1.0000
  S   S121      1.0  0.16676  0.94524  0.35562  1.0000
  H   H538      1.0  0.26671  0.97746  0.32786  1.0000
  H   H539      1.0  0.31390  0.96054  0.24828  1.0000
  H   H540      1.0  0.21710  0.90641  0.23256  1.0000
  H   H541      1.0  0.24999  0.74408  0.35822  1.0000
  Fe  Fe58      1.0  0.19062  0.99272  0.36341  1.0000
  C   C335      1.0  0.26836  0.96104  0.31157  1.0000
  C   C336      1.0  0.13986  0.83491  0.28016  1.0000
  H   H542      1.0  0.16883  0.77615  0.29576  1.0000
  C   C337      1.0  0.03444  0.97235  0.38791  1.0000
  C   C338      1.0  0.31232  0.74065  0.37215  1.0000
  H   H543      1.0  0.13003  0.82365  0.30170  1.0000
  Fe  Fe59      1.0  0.11768  0.97326  0.36116  1.0000
  H   H544      1.0  0.32463  0.76148  0.30258  1.0000
  H   H545      1.0  0.28173  0.69158  0.35210  1.0000
  C   C339      1.0  0.17818  0.78893  0.27467  1.0000
  H   H546      1.0  0.18715  0.75972  0.36203  1.0000
  C   C340      1.0  0.16724  0.72258  0.34125  1.0000
  S   S122      1.0  0.20354  0.69772  0.34195  1.0000
  C   C341      1.0  0.10974  0.73212  0.33057  1.0000
  H   H547      1.0  0.10118  0.80034  0.25252  1.0000
  H   H548      1.0  0.08809  0.72430  0.32193  1.0000
  H   H549      1.0  0.11894  0.85008  0.27227  1.0000
  S   S123      1.0  0.07151  0.94838  0.38790  1.0000
  H   H550      1.0  0.12956  0.76546  0.25051  1.0000
  C   C342      1.0  0.13931  0.71270  0.32982  1.0000
  N   N37       1.0  0.06525  0.78006  0.44413  1.0000
  C   C343      1.0  0.09870  0.78271  0.45354  1.0000
  S   S124      1.0  0.26124  0.77975  0.21123  1.0000
  H   H551      1.0  0.23538  0.90790  0.43657  1.0000
  S   S125      1.0  0.00056  0.72245  0.35235  1.0000
  C   C344      1.0  0.25926  0.91880  0.44121  1.0000
  C   C345      1.0  0.29372  0.74630  0.45719  1.0000
  H   H552      1.0  0.17243  0.80568  0.22126  1.0000
  H   H553      1.0  0.27909  0.89920  0.44045  1.0000
  H   H554      1.0  0.29569  0.96627  0.45700  1.0000
  H   H555      1.0  0.23493  0.97840  0.45199  1.0000
  H   H556      1.0  0.01669  0.75497  0.45877  1.0000
  S   S126      1.0  0.10639  0.68618  0.45844  1.0000
  H   H557      1.0  0.04591  0.82486  0.45921  1.0000
  H   H558      1.0  0.04099  0.89795  0.57423  1.0000
  H   H559      1.0  0.03434  0.94145  0.50435  1.0000
  C   C346      1.0  0.09349  0.98582  0.59606  1.0000
  H   H560      1.0  0.23755  0.91039  0.51062  1.0000
  C   C347      1.0  0.09732  0.72554  0.68230  1.0000
  H   H561      1.0  0.00794  0.86997  0.65190  1.0000
  H   H562      1.0  0.09697  0.70498  0.67061  1.0000
  H   H563      1.0  0.25017  0.80283  0.54000  1.0000
  C   C348      1.0  0.04212  0.75777  0.46519  1.0000
  H   H564      1.0  0.22246  0.96616  0.48832  1.0000
  C   C349      1.0  0.03579  0.90161  0.55265  1.0000
  H   H565      1.0  0.20446  0.89244  0.66647  1.0000
  H   H566      1.0  0.30735  0.73092  0.52804  1.0000
  H   H567      1.0  0.29644  0.76094  0.59536  1.0000
  C   C350      1.0  0.22727  0.95658  0.46826  1.0000
  H   H568      1.0  0.11311  0.83621  0.51597  1.0000
  H   H569      1.0  0.03475  0.66837  0.46363  1.0000
  S   S127      1.0  0.17302  0.86309  0.54720  1.0000
  C   C351      1.0  0.03548  0.78995  0.65188  1.0000
  C   C352      1.0  0.31511  0.91384  0.54197  1.0000
  H   H570      1.0  0.19741  0.71749  0.71018  1.0000
  H   H571      1.0  0.01978  0.84442  0.69818  1.0000
  S   S128      1.0  0.32465  0.85319  0.46663  1.0000
  H   H572      1.0  0.32041  0.72605  0.56141  1.0000
  C   C353      1.0  0.02817  0.78577  0.54133  1.0000
  C   C354      1.0  0.28902  0.77941  0.57845  1.0000
  C   C355      1.0  0.19617  0.93351  0.70489  1.0000
  H   H573      1.0  0.06312  0.79593  0.64500  1.0000
  H   H574      1.0  0.30639  0.92595  0.47410  1.0000
  H   H575      1.0  0.23285  0.92813  0.56791  1.0000
  H   H576      1.0  0.04883  0.85643  0.63716  1.0000
  H   H577      1.0  0.19638  0.85399  0.68967  1.0000
  C   C356      1.0  0.28605  0.94511  0.47332  1.0000
  C   C357      1.0  0.00935  0.93581  0.51787  1.0000
  C   C358      1.0  0.27153  0.96654  0.55204  1.0000
  H   H578      1.0  0.19539  0.94694  0.68381  1.0000
  H   H579      1.0  0.01091  0.84484  0.62472  1.0000
  H   H580      1.0  0.06103  0.90524  0.53919  1.0000
  C   C359      1.0  0.08961  0.79079  0.53946  1.0000
  C   C360      1.0  0.08135  0.72154  0.70977  1.0000
  C   C361      1.0  0.20534  0.88051  0.68798  1.0000
  H   H581      1.0  0.25452  0.98685  0.55613  1.0000
  C   C362      1.0  0.05893  0.83447  0.51465  1.0000
  C   C363      1.0  0.28101  0.90675  0.55398  1.0000
  H   H582      1.0  0.05451  0.96715  0.54093  1.0000
  C   C364      1.0  0.03296  0.82389  0.68829  1.0000
  C   C365      1.0  0.02151  0.84862  0.64352  1.0000
  H   H583      1.0  0.00447  0.77189  0.54889  1.0000
  C   C366      1.0  0.05898  0.77253  0.54843  1.0000
  C   C367      1.0  0.02817  0.81664  0.52429  1.0000
  C   C368      1.0  0.30560  0.97365  0.54007  1.0000
  S   S129      1.0  0.12768  0.77545  0.55010  1.0000
  C   C369      1.0  0.08950  0.82195  0.52280  1.0000
  H   H584      1.0  0.05899  0.85843  0.50157  1.0000
  H   H585      1.0  0.25814  0.71945  0.58120  1.0000
  H   H586      1.0  0.26805  0.77741  0.51488  1.0000
  H   H587      1.0  0.05895  0.74855  0.56149  1.0000
  N   N38       1.0  0.01353  0.93055  0.54720  1.0000
  H   H588      1.0  0.22916  0.75215  0.57205  1.0000
  C   C370      1.0  0.25921  0.93326  0.55880  1.0000
  S   S130      1.0  0.26610  0.86474  0.56252  1.0000
  Fe  Fe60      1.0  0.15345  0.83326  0.62598  1.0000
  S   S131      1.0  0.11221  0.83912  0.59960  1.0000
  S   S132      1.0  0.13890  0.81978  0.67182  1.0000
  S   S133      1.0  0.17844  0.88347  0.60851  1.0000
  Fe  Fe61      1.0  0.20969  0.85612  0.57770  1.0000
  N   N39       1.0  0.28184  0.76303  0.55516  1.0000
  C   C371      1.0  0.11446  0.75585  0.67003  1.0000
  Fe  Fe62      1.0  0.14897  0.81499  0.57010  1.0000
  H   H589      1.0  0.26643  0.79307  0.58700  1.0000
  H   H590      1.0  0.09607  0.79285  0.47334  1.0000
  C   C372      1.0  0.08471  0.98175  0.64572  1.0000
  C   C373      1.0  0.09135  0.94743  0.64796  1.0000
  C   C374      1.0  0.09963  0.93241  0.62422  1.0000
  C   C375      1.0  0.10081  0.95168  0.59829  1.0000
  C   C376      1.0  0.31262  0.81216  0.46277  1.0000
  H   H591      1.0  0.12710  0.75858  0.64897  1.0000
  H   H592      1.0  0.10513  0.90598  0.62601  1.0000
  H   H593      1.0  0.20259  0.94657  0.46431  1.0000
  H   H594      1.0  0.03120  0.80103  0.70403  1.0000
  H   H595      1.0  0.09082  0.93265  0.66791  1.0000
  N   N40       1.0  0.25376  0.93065  0.46821  1.0000
  C   C377      1.0  0.25269  0.73917  0.56437  1.0000
  H   H596      1.0  0.01290  0.98319  0.55052  1.0000
  H   H597      1.0  0.32579  0.98469  0.58928  1.0000
  H   H598      1.0  0.24665  0.72644  0.54720  1.0000
  Fe  Fe63      1.0  0.14001  0.88648  0.57951  1.0000
  C   C378      1.0  0.27324  0.78877  0.53295  1.0000
  S   S134      1.0  0.18851  0.80517  0.59804  1.0000
  N   N41       1.0  0.01781  0.81783  0.66401  1.0000
  H   H599      1.0  0.05281  0.73225  0.46913  1.0000
  H   H600      1.0  0.28258  0.95490  0.49325  1.0000
  H   H601      1.0  0.14592  0.90920  0.68116  1.0000
  S   S135      1.0  0.11186  0.93331  0.56860  1.0000
  C   C379      1.0  0.24252  0.90218  0.49004  1.0000
  C   C380      1.0  0.11592  0.78214  0.68531  1.0000
  H   H602      1.0  0.06049  0.83128  0.68260  1.0000
  H   H603      1.0  0.29433  0.80769  0.52575  1.0000
  H   H604      1.0  0.99798  0.91317  0.51198  1.0000
  C   C381      1.0  0.14809  0.89792  0.70261  1.0000
  H   H605      1.0  0.03353  0.76643  0.66694  1.0000
  H   H606      1.0  0.02398  0.87801  0.54899  1.0000
  H   H607      1.0  0.23248  0.88023  0.69139  1.0000
  C   C382      1.0  0.02925  0.96093  0.55392  1.0000
  C   C383      1.0  0.32126  0.75208  0.47065  1.0000
  C   C384      1.0  0.31229  0.74467  0.54489  1.0000
  H   H608      1.0  0.22287  0.93487  0.70929  1.0000
  H   H609      1.0  0.02429  0.78434  0.63374  1.0000
  H   H610      1.0  0.31023  0.79830  0.57199  1.0000
  H   H611      1.0  0.03806  0.76765  0.48514  1.0000
  H   H612      1.0  0.21865  0.89009  0.48657  1.0000
  N   N42       1.0  0.18382  0.89839  0.70790  1.0000
  H   H613      1.0  0.03359  0.95762  0.57571  1.0000
  H   H614      1.0  0.26234  0.88255  0.49112  1.0000
  H   H615      1.0  0.13744  0.87185  0.70589  1.0000
  Fe  Fe64      1.0  0.00251  0.71184  0.81636  1.0000
  C   C385      1.0  0.04127  0.96713  0.87000  1.0000
  H   H616      1.0  0.11511  0.69318  0.75680  1.0000
  H   H617      1.0  0.00783  0.94282  0.92012  1.0000
  H   H618      1.0  0.16898  0.89390  0.75156  1.0000
  C   C386      1.0  0.32004  0.81767  0.79941  1.0000
  Fe  Fe65      1.0  0.99679  0.92362  0.74417  1.0000
  Fe  Fe66      1.0  0.02533  0.68155  0.76467  1.0000
  S   S136      1.0  0.11194  0.95685  0.92688  1.0000
  H   H619      1.0  0.19069  0.74945  0.75018  1.0000
  H   H620      1.0  0.16196  0.98617  0.85082  1.0000
  Fe  Fe67      1.0  0.15121  0.68127  0.88177  1.0000
  S   S137      1.0  0.15456  0.69333  0.83621  1.0000
  S   S138      1.0  0.10334  0.69808  0.90588  1.0000
  Fe  Fe68      1.0  0.20850  0.70938  0.83696  1.0000
  H   H621      1.0  0.19622  0.78408  0.85677  1.0000
  S   S139      1.0  0.20393  0.70073  0.88308  1.0000
  N   N43       1.0  0.16971  0.70020  0.75032  1.0000
  H   H622      1.0  0.21206  0.88231  0.74115  1.0000
  H   H623      1.0  0.06573  0.74542  0.79957  1.0000
  C   C387      1.0  0.31826  0.78398  0.81187  1.0000
  Fe  Fe69      1.0  0.07583  0.92453  0.95905  1.0000
  H   H624      1.0  0.03472  0.90519  0.85657  1.0000
  C   C388      1.0  0.16703  0.73413  0.75830  1.0000
  C   C389      1.0  0.11130  0.72974  0.92490  1.0000
  H   H625      1.0  0.15871  0.70926  0.93549  1.0000
  H   H626      1.0  0.14525  0.74789  0.75047  1.0000
  C   C390      1.0  0.14634  0.75419  0.95319  1.0000
  C   C391      1.0  0.09394  0.78093  0.94309  1.0000
  C   C392      1.0  0.13837  0.68034  0.76255  1.0000
  H   H627      1.0  0.28617  0.73938  0.82491  1.0000
  C   C393      1.0  0.14072  0.72932  0.93733  1.0000
  H   H628      1.0  0.07586  0.80083  0.94523  1.0000
  C   C394      1.0  0.04007  0.77931  0.82512  1.0000
  H   H629      1.0  0.32200  0.78885  0.87301  1.0000
  S   S140      1.0  0.19754  0.95925  0.95940  1.0000
  H   H630      1.0  0.18039  0.81784  0.81417  1.0000
  S   S141      1.0  0.01164  0.74849  0.84427  1.0000
  Fe  Fe70      1.0  0.15310  0.93231  0.94906  1.0000
  C   C395      1.0  0.18563  0.88156  0.73610  1.0000
  H   H631      1.0  0.13537  0.67595  0.78534  1.0000
  H   H632      1.0  0.07041  0.74542  0.74592  1.0000
  S   S142      1.0  0.30908  0.98623  0.79733  1.0000
  H   H633      1.0  0.13890  0.85175  0.87653  1.0000
  H   H634      1.0  0.03434  0.99406  0.86817  1.0000
  H   H635      1.0  0.03848  0.90243  0.89218  1.0000
  S   S143      1.0  0.08733  0.95828  0.74777  1.0000
  C   C396      1.0  0.08210  0.74826  0.72468  1.0000
  H   H636      1.0  0.27629  0.73076  0.92966  1.0000
  H   H637      1.0  0.21982  0.70260  0.94436  1.0000
  H   H638      1.0  0.10230  0.78993  0.76953  1.0000
  H   H639      1.0  0.18024  0.94770  0.71951  1.0000
  Fe  Fe71      1.0  0.06796  0.90511  0.75537  1.0000
  H   H640      1.0  0.16251  0.94810  0.76783  1.0000
  C   C397      1.0  0.02102  0.90953  0.87694  1.0000
  H   H641      1.0  0.23996  0.90233  0.95061  1.0000
  Fe  Fe72      1.0  0.28549  0.94230  0.78374  1.0000
  H   H642      1.0  0.16302  0.73299  0.78099  1.0000
  S   S144      1.0  0.00871  0.97894  0.73744  1.0000
  C   C398      1.0  0.26106  0.81331  0.79215  1.0000
  S   S145      1.0  0.29571  0.90579  0.81987  1.0000
  C   C399      1.0  0.17385  0.70295  0.72009  1.0000
  S   S146      1.0  0.07749  0.88079  0.93588  1.0000
  Fe  Fe73      1.0  0.11659  0.91158  0.90540  1.0000
  H   H643      1.0  0.02050  0.81880  0.84761  1.0000
  S   S147      1.0  0.10767  0.91445  0.86192  1.0000
  Fe  Fe74      1.0  0.12160  0.86342  0.95707  1.0000
  S   S148      1.0  0.16121  0.89008  0.92434  1.0000
  H   H644      1.0  0.06486  0.75566  0.91847  1.0000
  H   H645      1.0  0.16833  0.78292  0.88880  1.0000
  C   C400      1.0  0.29135  0.83218  0.78953  1.0000
  H   H646      1.0  0.10439  0.84015  0.85993  1.0000
  H   H647      1.0  0.17534  0.67776  0.71338  1.0000
  H   H648      1.0  0.23918  0.82475  0.78412  1.0000
  C   C401      1.0  0.13108  0.78122  0.84811  1.0000
  C   C402      1.0  0.12558  0.83007  0.87098  1.0000
  S   S149      1.0  0.02026  0.91498  0.78312  1.0000
  C   C403      1.0  0.05738  0.83794  0.81236  1.0000
  S   S150      1.0  0.04360  0.91035  0.71708  1.0000
  N   N44       1.0  0.01066  0.94483  0.87647  1.0000
  H   H649      1.0  0.05512  0.86369  0.81599  1.0000
  N   N45       1.0  0.14940  0.81058  0.85396  1.0000
  C   C404      1.0  0.25893  0.77994  0.80513  1.0000
  Fe  Fe75      1.0  0.05730  0.96501  0.71290  1.0000
  C   C405      1.0  0.08390  0.79637  0.78609  1.0000
  C   C406      1.0  0.19974  0.93715  0.79515  1.0000
  C   C407      1.0  0.16658  0.94003  0.78874  1.0000
  C   C408      1.0  0.13843  0.93263  0.80938  1.0000
  C   C409      1.0  0.14332  0.92310  0.83662  1.0000
  C   C410      1.0  0.17637  0.92082  0.84328  1.0000
  C   C411      1.0  0.20457  0.92789  0.82252  1.0000
  H   H650      1.0  0.11281  0.93464  0.80424  1.0000
  H   H651      1.0  0.18025  0.91354  0.86434  1.0000
  H   H652      1.0  0.22992  0.92645  0.82782  1.0000
  C   C412      1.0  0.28754  0.76526  0.81512  1.0000
  H   H653      1.0  0.09998  0.79898  0.72402  1.0000
  S   S151      1.0  0.23461  0.94490  0.76867  1.0000
  Fe  Fe76      1.0  0.03811  0.96911  0.77303  1.0000
  H   H654      1.0  0.29259  0.85792  0.77946  1.0000
  H   H655      1.0  0.12147  0.76381  0.86723  1.0000
  H   H656      1.0  0.05825  0.96210  0.88594  1.0000
  H   H657      1.0  0.19233  0.82058  0.87361  1.0000
  S   S152      1.0  0.22031  0.75744  0.80746  1.0000
  S   S153      1.0  0.10171  0.86145  0.76556  1.0000
  H   H658      1.0  0.14794  0.76677  0.83433  1.0000
  H   H659      1.0  0.17759  0.85401  0.83139  1.0000
  C   C413      1.0  0.17782  0.79906  0.86896  1.0000
  H   H660      1.0  0.14201  0.84177  0.81635  1.0000
  C   C414      1.0  0.16295  0.83198  0.82783  1.0000
  H   H661      1.0  0.21590  0.96521  0.86815  1.0000
  H   H662      1.0  0.05666  0.96349  0.85005  1.0000
  C   C415      1.0  0.03806  0.81250  0.83039  1.0000
  H   H663      1.0  0.30802  0.92883  0.93105  1.0000
  C   C416      1.0  0.32210  0.66902  0.92361  1.0000
  C   C417      1.0  0.07965  0.82993  0.78976  1.0000
  H   H664      1.0  0.17681  0.85490  0.73904  1.0000
  H   H665      1.0  0.11395  0.81445  0.89038  1.0000
  H   H666      1.0  0.10866  0.78900  0.83792  1.0000
  C   C418      1.0  0.09937  0.77835  0.71247  1.0000
  H   H667      1.0  0.00166  0.94905  0.83468  1.0000
  C   C419      1.0  0.06343  0.77118  0.80325  1.0000
  C   C420      1.0  0.08771  0.75535  0.92804  1.0000
  H   H668      1.0  0.15195  0.71592  0.71191  1.0000
  C   C421      1.0  0.12320  0.78022  0.95580  1.0000
  H   H669      1.0  0.28136  0.67681  0.89904  1.0000
  S   S154      1.0  0.06327  0.68221  0.72572  1.0000
  S   S155      1.0  0.31363  0.95816  0.87448  1.0000
  H   H670      1.0  0.30573  0.99461  0.91833  1.0000
  S   S156      1.0  0.00114  0.73021  0.77193  1.0000
  H   H671      1.0  0.20563  0.98648  0.89750  1.0000
  H   H672      1.0  0.99861  0.89199  0.88223  1.0000
  H   H673      1.0  0.19742  0.68110  0.78294  1.0000
  H   H674      1.0  0.99613  0.69261  0.89271  1.0000
  H   H675      1.0  0.31769  0.79539  0.90835  1.0000
  C   C422      1.0  0.21814  0.98961  0.87566  1.0000
  H   H676      1.0  0.24586  0.99454  0.87540  1.0000
  H   H677      1.0  0.26500  0.97901  0.93625  1.0000
  H   H678      1.0  0.22382  0.69747  0.75142  1.0000
  H   H679      1.0  0.04616  0.99449  0.93595  1.0000
  H   H680      1.0  0.05946  0.67527  0.95606  1.0000
  H   H681      1.0  0.13128  0.91202  0.71671  1.0000
  S   S157      1.0  0.03119  0.66508  0.80917  1.0000
  C   C423      1.0  0.26730  0.72316  0.95129  1.0000
  Fe  Fe77      1.0  0.32384  0.94847  0.83097  1.0000
  C   C424      1.0  0.19963  0.68335  0.76025  1.0000
  H   H682      1.0  0.21751  0.99684  0.82092  1.0000
  C   C425      1.0  0.23530  0.70726  0.95961  1.0000
  C   C426      1.0  0.40640  0.11166  0.19478  1.0000
  H   H683      1.0  0.34754  0.24435  0.05639  1.0000
  C   C427      1.0  0.49625  0.01631  0.08773  1.0000
  H   H684      1.0  0.47688  0.15484  0.01534  1.0000
  Fe  Fe78      1.0  0.44195  0.08108  0.97802  1.0000
  Fe  Fe79      1.0  0.40917  0.12643  0.01859  1.0000
  S   S158      1.0  0.35841  0.12493  0.00424  1.0000
  S   S159      1.0  0.41608  0.14223  0.05915  1.0000
  Fe  Fe80      1.0  0.36769  0.07028  0.00473  1.0000
  N   N46       1.0  0.47445  0.04602  0.08441  1.0000
  S   S160      1.0  0.41657  0.07106  0.02165  1.0000
  S   S161      1.0  0.43880  0.13697  0.97567  1.0000
  H   H685      1.0  0.49906  0.22679  0.13088  1.0000
  C   C428      1.0  0.48291  0.20384  0.13852  1.0000
  Fe  Fe81      1.0  0.33982  0.26644  0.98252  1.0000
  H   H686      1.0  0.52148  0.20122  0.08881  1.0000
  Fe  Fe82      1.0  0.35055  0.22048  0.20645  1.0000
  H   H687      1.0  0.51464  0.07663  0.05867  1.0000
  C   C429      1.0  0.37685  0.19913  0.05666  1.0000
  C   C430      1.0  0.38780  0.17115  0.07303  1.0000
  C   C431      1.0  0.37833  0.16734  0.10154  1.0000
  C   C432      1.0  0.35869  0.19158  0.11377  1.0000
  H   H688      1.0  0.38430  0.20249  0.03460  1.0000
  H   H689      1.0  0.38587  0.14535  0.11433  1.0000
  C   C433      1.0  0.46983  0.20850  0.00927  1.0000
  H   H690      1.0  0.52253  0.16229  0.11158  1.0000
  H   H691      1.0  0.63859  0.18529  0.14888  1.0000
  C   C434      1.0  0.50623  0.17846  0.09891  1.0000
  C   C435      1.0  0.45402  0.15661  0.12690  1.0000
  S   S162      1.0  0.39350  0.07472  0.96115  1.0000
  H   H692      1.0  0.52298  0.02357  0.08903  1.0000
  H   H693      1.0  0.49733  0.18678  0.15225  1.0000
  C   C436      1.0  0.45493  0.21050  0.09811  1.0000
  H   H694      1.0  0.44496  0.20691  0.00300  1.0000
  C   C437      1.0  0.48792  0.17904  0.01612  1.0000
  H   H695      1.0  0.48775  0.05555  0.04037  1.0000
  N   N47       1.0  0.47449  0.18742  0.11564  1.0000
  H   H696      1.0  0.41342  0.29116  0.08766  1.0000
  C   C438      1.0  0.48787  0.06831  0.05872  1.0000
  H   H697      1.0  0.46940  0.23433  0.08983  1.0000
  H   H698      1.0  0.64726  0.27860  0.08520  1.0000
  H   H699      1.0  0.45721  0.08629  0.10639  1.0000
  H   H700      1.0  0.64924  0.07324  0.14201  1.0000
  H   H701      1.0  0.50055  0.16454  0.08232  1.0000
  C   C439      1.0  0.48387  0.23973  0.01108  1.0000
  H   H702      1.0  0.49718  0.00213  0.07008  1.0000
  H   H703      1.0  0.45939  0.21103  0.15150  1.0000
  C   C440      1.0  0.43919  0.03503  0.08332  1.0000
  S   S163      1.0  0.37977  0.03293  0.15433  1.0000
  C   C441      1.0  0.41643  0.16629  0.20769  1.0000
  H   H704      1.0  0.46873  0.13810  0.13914  1.0000
  H   H705      1.0  0.36688  0.14687  0.20419  1.0000
  C   C442      1.0  0.58338  0.03649  0.20808  1.0000
  C   C443      1.0  0.34732  0.21939  0.09759  1.0000
  H   H706      1.0  0.47155  0.31784  0.08048  1.0000
  Fe  Fe83      1.0  0.41545  0.02915  0.18550  1.0000
  S   S164      1.0  0.45762  0.06739  0.18280  1.0000
  H   H707      1.0  0.42188  0.05675  0.08087  1.0000
  C   C444      1.0  0.64460  0.20046  0.18758  1.0000
  C   C445      1.0  0.62594  0.18859  0.16898  1.0000
  C   C446      1.0  0.54735  0.06601  0.17777  1.0000
  H   H708      1.0  0.50032  0.07385  0.10922  1.0000
  H   H709      1.0  0.63624  0.27038  0.13663  1.0000
  H   H710      1.0  0.38224  0.30818  0.06714  1.0000
  H   H711      1.0  0.41876  0.28755  0.05182  1.0000
  C   C447      1.0  0.46627  0.33085  0.06032  1.0000
  H   H712      1.0  0.47245  0.09138  0.05577  1.0000
  H   H713      1.0  0.62022  0.04841  0.98083  1.0000
  C   C448      1.0  0.34299  0.00924  0.05229  1.0000
  Fe  Fe84      1.0  0.33870  0.01901  0.19050  1.0000
  H   H714      1.0  0.49098  0.12512  0.19564  1.0000
  H   H715      1.0  0.59663  0.10306  0.18963  1.0000
  C   C449      1.0  0.47431  0.06439  0.10800  1.0000
  H   H716      1.0  0.53017  0.08760  0.17419  1.0000
  C   C450      1.0  0.35645  0.22306  0.06899  1.0000
  H   H717      1.0  0.38883  0.09314  0.19075  1.0000
  H   H718      1.0  0.53290  0.04296  0.17604  1.0000
  S   S165      1.0  0.36425  0.29523  0.01017  1.0000
  H   H719      1.0  0.45372  0.01452  0.00680  1.0000
  Fe  Fe85      1.0  0.41376  0.28446  0.98477  1.0000
  S   S166      1.0  0.56777  0.16295  0.15482  1.0000
  C   C451      1.0  0.57475  0.18548  0.20265  1.0000
  H   H720      1.0  0.46486  0.04809  0.12776  1.0000
  S   S167      1.0  0.46259  0.27768  0.00316  1.0000
  C   C452      1.0  0.63701  0.07113  0.97836  1.0000
  H   H721      1.0  0.56933  0.06969  0.16079  1.0000
  S   S168      1.0  0.34946  0.26939  0.17884  1.0000
  S   S169      1.0  0.59685  0.27099  0.98301  1.0000
  H   H722      1.0  0.44625  0.14431  0.11016  1.0000
  Fe  Fe86      1.0  0.64955  0.18094  0.06554  1.0000
  N   N48       1.0  0.55877  0.06391  0.20490  1.0000
  Fe  Fe87      1.0  0.58488  0.14584  0.05814  1.0000
  S   S170      1.0  0.59420  0.19056  0.07780  1.0000
  C   C453      1.0  0.51580  0.24120  0.01986  1.0000
  Fe  Fe88      1.0  0.64121  0.10643  0.08355  1.0000
  C   C454      1.0  0.47974  0.00625  0.00339  1.0000
  Fe  Fe89      1.0  0.59845  0.15388  0.11516  1.0000
  C   C455      1.0  0.46388  0.12951  0.19766  1.0000
  H   H723      1.0  0.42833  0.01832  0.10244  1.0000
  S   S171      1.0  0.64035  0.13879  0.04265  1.0000
  S   S172      1.0  0.58478  0.10920  0.09680  1.0000
  H   H724      1.0  0.43041  0.16206  0.14062  1.0000
  H   H725      1.0  0.44959  0.19922  0.08000  1.0000
  C   C456      1.0  0.44140  0.10521  0.19259  1.0000
  H   H726      1.0  0.60251  0.20194  0.97567  1.0000
  H   H727      1.0  0.47638  0.31510  0.04444  1.0000
  H   H728      1.0  0.55894  0.21362  0.03222  1.0000
  C   C457      1.0  0.41016  0.30459  0.06706  1.0000
  S   S173      1.0  0.65511  0.14828  0.10513  1.0000
  H   H729      1.0  0.62415  0.08849  0.99194  1.0000
  S   S174      1.0  0.54131  0.14295  0.03406  1.0000
  C   C458      1.0  0.51992  0.18056  0.02476  1.0000
  C   C459      1.0  0.53626  0.01084  0.97667  1.0000
  H   H730      1.0  0.35213  0.18835  0.13571  1.0000
  C   C460      1.0  0.53384  0.21182  0.02650  1.0000
  H   H731      1.0  0.52714  0.26529  0.02088  1.0000
  C   C461      1.0  0.59111  0.18060  0.17667  1.0000
  H   H732      1.0  0.42999  0.21668  0.10964  1.0000
  C   C462      1.0  0.50296  0.02278  0.98161  1.0000
  H   H733      1.0  0.57166  0.01189  0.20663  1.0000
  C   C463      1.0  0.33010  0.01003  0.07992  1.0000
  H   H734      1.0  0.60630  0.04086  0.19200  1.0000
  C   C464      1.0  0.39395  0.14228  0.20216  1.0000
  H   H735      1.0  0.65222  0.31220  0.13668  1.0000
  H   H736      1.0  0.43822  0.02080  0.06592  1.0000
  C   C465      1.0  0.45137  0.15973  0.20552  1.0000
  H   H737      1.0  0.55677  0.11675  0.20631  1.0000
  C   C466      1.0  0.57537  0.09604  0.20685  1.0000
  Fe  Fe90      1.0  0.59302  0.32690  0.97473  1.0000
  H   H738      1.0  0.46886  0.17818  0.20980  1.0000
  H   H739      1.0  0.54777  0.17958  0.20865  1.0000
  Fe  Fe91      1.0  0.38827  0.12991  0.96175  1.0000
  H   H740      1.0  0.48637  0.99861  0.10664  1.0000
  H   H741      1.0  0.65645  0.06215  0.02842  1.0000
  H   H742      1.0  0.65266  0.02218  0.01728  1.0000
  H   H743      1.0  0.50975  0.07728  0.22499  1.0000
  C   C467      1.0  0.47401  0.00940  0.40831  1.0000
  C   C468      1.0  0.42439  0.11659  0.39269  1.0000
  S   S175      1.0  0.65523  0.15520  0.45316  1.0000
  H   H744      1.0  0.65819  0.16625  0.28973  1.0000
  S   S176      1.0  0.48539  0.15240  0.33692  1.0000
  Fe  Fe92      1.0  0.49709  0.20758  0.33315  1.0000
  H   H745      1.0  0.46483  0.20654  0.40801  1.0000
  C   C469      1.0  0.63516  0.25958  0.35122  1.0000
  H   H746      1.0  0.61261  0.16327  0.29241  1.0000
  C   C470      1.0  0.37428  0.08753  0.38506  1.0000
  H   H747      1.0  0.36888  0.14277  0.34853  1.0000
  C   C471      1.0  0.42597  0.18213  0.43951  1.0000
  C   C472      1.0  0.44199  0.20997  0.42199  1.0000
  C   C473      1.0  0.59859  0.16734  0.34626  1.0000
  H   H748      1.0  0.58507  0.26279  0.25243  1.0000
  H   H749      1.0  0.54257  0.99948  0.36011  1.0000
  C   C474      1.0  0.33320  0.28915  0.28821  1.0000
  H   H750      1.0  0.37947  0.16571  0.40231  1.0000
  H   H751      1.0  0.60320  0.27931  0.21811  1.0000
  H   H752      1.0  0.57643  0.15728  0.33836  1.0000
  Fe  Fe93      1.0  0.42045  0.04193  0.45438  1.0000
  H   H753      1.0  0.59243  0.03423  0.22841  1.0000
  N   N49       1.0  0.39028  0.12085  0.38415  1.0000
  H   H754      1.0  0.41043  0.30381  0.24796  1.0000
  H   H755      1.0  0.56035  0.29032  0.23165  1.0000
  H   H756      1.0  0.59610  0.15762  0.36858  1.0000
  C   C475      1.0  0.39403  0.13911  0.35583  1.0000
  H   H757      1.0  0.37036  0.23427  0.30003  1.0000
  H   H758      1.0  0.57812  0.04322  0.44700  1.0000
  C   C476      1.0  0.42931  0.24226  0.42358  1.0000
  H   H759      1.0  0.34843  0.08966  0.37879  1.0000
  H   H760      1.0  0.58610  0.09500  0.22628  1.0000
  N   N50       1.0  0.37054  0.28591  0.28116  1.0000
  C   C477      1.0  0.52902  0.05725  0.22688  1.0000
  C   C478      1.0  0.63316  0.12097  0.33378  1.0000
  C   C479      1.0  0.37923  0.25037  0.28012  1.0000
  C   C480      1.0  0.39979  0.24644  0.44189  1.0000
  N   N51       1.0  0.63813  0.32148  0.43478  1.0000
  S   S177      1.0  0.45557  0.24564  0.33465  1.0000
  C   C481      1.0  0.38237  0.30592  0.25404  1.0000
  S   S178      1.0  0.48071  0.31258  0.26565  1.0000
  C   C482      1.0  0.63438  0.30619  0.25475  1.0000
  H   H761      1.0  0.59606  0.19507  0.34403  1.0000
  C   C483      1.0  0.63376  0.17249  0.30193  1.0000
  Fe  Fe94      1.0  0.49235  0.27978  0.30412  1.0000
  C   C484      1.0  0.36858  0.14013  0.40296  1.0000
  H   H762      1.0  0.38974  0.27124  0.44309  1.0000
  H   H763      1.0  0.51575  0.03319  0.22607  1.0000
  H   H764      1.0  0.40736  0.24733  0.27503  1.0000
  S   S179      1.0  0.45083  0.27776  0.40395  1.0000
  Fe  Fe95      1.0  0.48273  0.26406  0.36619  1.0000
  S   S180      1.0  0.40187  0.20471  0.21732  1.0000
  H   H765      1.0  0.48632  0.02722  0.36497  1.0000
  H   H766      1.0  0.63227  0.20040  0.29932  1.0000
  C   C485      1.0  0.51718  0.12863  0.32041  1.0000
  Fe  Fe96      1.0  0.61652  0.02115  0.30502  1.0000
  H   H767      1.0  0.41059  0.12529  0.34124  1.0000
  S   S181      1.0  0.59800  0.06481  0.27768  1.0000
  S   S182      1.0  0.53122  0.23943  0.29943  1.0000
  H   H768      1.0  0.37137  0.07298  0.40610  1.0000
  C   C486      1.0  0.56662  0.08902  0.29417  1.0000
  C   C487      1.0  0.56062  0.12165  0.28183  1.0000
  C   C488      1.0  0.53628  0.14160  0.29509  1.0000
  N   N52       1.0  0.63141  0.15792  0.33119  1.0000
  C   C489      1.0  0.54804  0.07636  0.31972  1.0000
  H   H769      1.0  0.57506  0.13175  0.26214  1.0000
  H   H770      1.0  0.53165  0.16667  0.28539  1.0000
  H   H771      1.0  0.55259  0.05130  0.32939  1.0000
  H   H772      1.0  0.40641  0.16422  0.35439  1.0000
  C   C490      1.0  0.58659  0.28561  0.23667  1.0000
  H   H773      1.0  0.43670  0.15749  0.43915  1.0000
  H   H774      1.0  0.53680  0.05598  0.24761  1.0000
  H   H775      1.0  0.61178  0.11023  0.32547  1.0000
  H   H776      1.0  0.63166  0.10924  0.35564  1.0000
  C   C491      1.0  0.57715  0.32301  0.27067  1.0000
  H   H777      1.0  0.63325  0.28232  0.26927  1.0000
  H   H778      1.0  0.58068  0.20022  0.24153  1.0000
  S   S183      1.0  0.60916  0.26806  0.32567  1.0000
  S   S184      1.0  0.52181  0.22365  0.36696  1.0000
  H   H779      1.0  0.57306  0.30130  0.28727  1.0000
  C   C492      1.0  0.62832  0.20433  0.21384  1.0000
  C   C493      1.0  0.59336  0.19719  0.22125  1.0000
  H   H780      1.0  0.44125  0.10165  0.37920  1.0000
  H   H781      1.0  0.50848  0.08593  0.35229  1.0000
  H   H782      1.0  0.59064  0.29586  0.43452  1.0000
  C   C494      1.0  0.64847  0.32452  0.40473  1.0000
  S   S185      1.0  0.62651  0.02810  0.34682  1.0000
  S   S186      1.0  0.43431  0.02911  0.41177  1.0000
  C   C495      1.0  0.52307  0.09597  0.33264  1.0000
  H   H783      1.0  0.64411  0.32585  0.26528  1.0000
  H   H784      1.0  0.39020  0.07221  0.37132  1.0000
  H   H785      1.0  0.65371  0.30288  0.23676  1.0000
  H   H786      1.0  0.43763  0.14117  0.39165  1.0000
  H   H787      1.0  0.36761  0.24026  0.26394  1.0000
  H   H788      1.0  0.38255  0.32546  0.30296  1.0000
  S   S187      1.0  0.37417  0.01939  0.22176  1.0000
  C   C496      1.0  0.49475  0.01253  0.38265  1.0000
  H   H789      1.0  0.42265  0.10316  0.41399  1.0000
  H   H790      1.0  0.63821  0.21667  0.41515  1.0000
  C   C497      1.0  0.62375  0.24028  0.37675  1.0000
  H   H791      1.0  0.59744  0.23156  0.38185  1.0000
  H   H792      1.0  0.37843  0.28442  0.32315  1.0000
  H   H793      1.0  0.55169  0.33046  0.26522  1.0000
  C   C498      1.0  0.64683  0.23173  0.39550  1.0000
  N   N53       1.0  0.60054  0.31467  0.24670  1.0000
  H   H794      1.0  0.36971  0.29733  0.23768  1.0000
  S   S188      1.0  0.51613  0.30142  0.33587  1.0000
  Fe  Fe97      1.0  0.55256  0.25886  0.33349  1.0000
  H   H795      1.0  0.41556  0.29530  0.29821  1.0000
  C   C499      1.0  0.38747  0.29835  0.30233  1.0000
  C   C500      1.0  0.60047  0.31866  0.44119  1.0000
  H   H796      1.0  0.65824  0.16204  0.36519  1.0000
  H   H797      1.0  0.34224  0.14292  0.39767  1.0000
  H   H798      1.0  0.36605  0.12753  0.42464  1.0000
  C   C501      1.0  0.39676  0.18657  0.45806  1.0000
  H   H799      1.0  0.64440  0.26804  0.44183  1.0000
  C   C502      1.0  0.38328  0.21856  0.45877  1.0000
  H   H800      1.0  0.63836  0.30311  0.39640  1.0000
  S   S189      1.0  0.65112  0.21788  0.23781  1.0000
  C   C503      1.0  0.65323  0.29123  0.44854  1.0000
  H   H801      1.0  0.65736  0.11286  0.32238  1.0000
  H   H802      1.0  0.46090  0.33102  0.45526  1.0000
  H   H803      1.0  0.54185  0.01611  0.46092  1.0000
  Fe  Fe98      1.0  0.37140  0.03245  0.50832  1.0000
  H   H804      1.0  0.39962  0.04138  0.58757  1.0000
  Fe  Fe99      1.0  0.54560  0.00555  0.69966  1.0000
  C   C504      1.0  0.60796  0.22164  0.58734  1.0000
  S   S190      1.0  0.39849  0.07253  0.52431  1.0000
  S   S191      1.0  0.56890  0.00749  0.65540  1.0000
  C   C505      1.0  0.57257  0.29632  0.53900  1.0000
  C   C506      1.0  0.45899  0.21314  0.49384  1.0000
  H   H805      1.0  0.44356  0.19537  0.56347  1.0000
  C   C507      1.0  0.45499  0.25169  0.52673  1.0000
  C   C508      1.0  0.65615  0.19035  0.56965  1.0000
  C   C509      1.0  0.45470  0.19201  0.54217  1.0000
  H   H806      1.0  0.44534  0.25566  0.54807  1.0000
  H   H807      1.0  0.48738  0.21466  0.49113  1.0000
  H   H808      1.0  0.48295  0.19230  0.54120  1.0000
  S   S192      1.0  0.60525  0.32017  0.51715  1.0000
  H   H809      1.0  0.48331  0.25401  0.52397  1.0000
  N   N54       1.0  0.64412  0.22403  0.57434  1.0000
  H   H810      1.0  0.44687  0.16664  0.53875  1.0000
  Fe  Fe100     1.0  0.44699  0.05076  0.50611  1.0000
  C   C510      1.0  0.56382  0.02949  0.46636  1.0000
  N   N55       1.0  0.44368  0.21860  0.52171  1.0000
  H   H811      1.0  0.56361  0.10503  0.67980  1.0000
  H   H812      1.0  0.45165  0.18802  0.48957  1.0000
  S   S193      1.0  0.37785  0.15340  0.48220  1.0000
  H   H813      1.0  0.44545  0.27246  0.51267  1.0000
  H   H814      1.0  0.60804  0.29713  0.61248  1.0000
  C   C511      1.0  0.33505  0.27862  0.52744  1.0000
  H   H815      1.0  0.34035  0.28176  0.48342  1.0000
  C   C512      1.0  0.58054  0.26230  0.64573  1.0000
  H   H816      1.0  0.59184  0.20935  0.57496  1.0000
  C   C513      1.0  0.52852  0.28935  0.57891  1.0000
  H   H817      1.0  0.59158  0.31722  0.46359  1.0000
  H   H818      1.0  0.63765  0.27174  0.55061  1.0000
  H   H819      1.0  0.49034  0.15692  0.63493  1.0000
  H   H820      1.0  0.45063  0.23235  0.47788  1.0000
  S   S194      1.0  0.37210  0.30360  0.52637  1.0000
  H   H821      1.0  0.51415  0.29941  0.59604  1.0000
  H   H822      1.0  0.56420  0.25275  0.63292  1.0000
  H   H823      1.0  0.33201  0.09758  0.51247  1.0000
  C   C514      1.0  0.37408  0.02872  0.59396  1.0000
  C   C515      1.0  0.40602  0.21770  0.52416  1.0000
  H   H824      1.0  0.39637  0.19301  0.52081  1.0000
  H   H825      1.0  0.39683  0.23726  0.50886  1.0000
  H   H826      1.0  0.39372  0.22248  0.54479  1.0000
  Fe  Fe101     1.0  0.39074  0.30631  0.56690  1.0000
  C   C516      1.0  0.62683  0.29951  0.65056  1.0000
  C   C517      1.0  0.60531  0.28743  0.63415  1.0000
  Fe  Fe102     1.0  0.37763  0.29201  0.62864  1.0000
  Fe  Fe103     1.0  0.44478  0.27333  0.59869  1.0000
  S   S195      1.0  0.43183  0.30195  0.63403  1.0000
  S   S196      1.0  0.39088  0.25894  0.59650  1.0000
  H   H827      1.0  0.40078  0.24859  0.67290  1.0000
  H   H828      1.0  0.36248  0.03687  0.61362  1.0000
  C   C518      1.0  0.35360  0.26553  0.69355  1.0000
  C   C519      1.0  0.38682  0.25326  0.69227  1.0000
  S   S197      1.0  0.48535  0.23488  0.59323  1.0000
  Fe  Fe104     1.0  0.64148  0.16838  0.49563  1.0000
  S   S198      1.0  0.58684  0.17513  0.51382  1.0000
  C   C520      1.0  0.55122  0.07889  0.53203  1.0000
  H   H829      1.0  0.55996  0.05497  0.54108  1.0000
  H   H830      1.0  0.51913  0.16532  0.50215  1.0000
  C   C521      1.0  0.51854  0.08122  0.52434  1.0000
  C   C522      1.0  0.56109  0.13871  0.51743  1.0000
  C   C523      1.0  0.52806  0.14123  0.51049  1.0000
  H   H831      1.0  0.56669  0.14970  0.67044  1.0000
  Fe  Fe105     1.0  0.39915  0.10190  0.48251  1.0000
  H   H832      1.0  0.63164  0.00804  0.49949  1.0000
  H   H833      1.0  0.36047  0.22191  0.47297  1.0000
  C   C524      1.0  0.57642  0.24974  0.67387  1.0000
  H   H834      1.0  0.59799  0.10534  0.53387  1.0000
  C   C525      1.0  0.50696  0.11251  0.51359  1.0000
  H   H835      1.0  0.48171  0.11463  0.50782  1.0000
  H   H836      1.0  0.63161  0.23662  0.53360  1.0000
  H   H837      1.0  0.60450  0.04342  0.50219  1.0000
  H   H838      1.0  0.41894  0.32006  0.47382  1.0000
  C   C526      1.0  0.57273  0.10743  0.52806  1.0000
  H   H839      1.0  0.60478  0.20706  0.60835  1.0000
  H   H840      1.0  0.53335  0.21972  0.54744  1.0000
  S   S199      1.0  0.49301  0.04465  0.52771  1.0000
  H   H841      1.0  0.35774  0.03799  0.57817  1.0000
  H   H842      1.0  0.50739  0.15434  0.69291  1.0000
  S   S200      1.0  0.54878  0.21476  0.68688  1.0000
  H   H843      1.0  0.63001  0.03914  0.47004  1.0000
  C   C527      1.0  0.51749  0.15534  0.63834  1.0000
  H   H844      1.0  0.57615  0.12292  0.64448  1.0000
  C   C528      1.0  0.55895  0.12610  0.66367  1.0000
  H   H845      1.0  0.51709  0.07299  0.66650  1.0000
  H   H846      1.0  0.47344  0.13115  0.68354  1.0000
  H   H847      1.0  0.50457  0.10966  0.70218  1.0000
  S   S201      1.0  0.42022  0.00712  0.49413  1.0000
  C   C529      1.0  0.64705  0.24635  0.54778  1.0000
  H   H848      1.0  0.48633  0.09445  0.64752  1.0000
  S   S202      1.0  0.36940  0.06340  0.46740  1.0000
  C   C530      1.0  0.51352  0.09493  0.65076  1.0000
  C   C531      1.0  0.55495  0.30860  0.56184  1.0000
  H   H849      1.0  0.52424  0.17975  0.64441  1.0000
  C   C532      1.0  0.59649  0.26328  0.69059  1.0000
  H   H850      1.0  0.53333  0.15329  0.61825  1.0000
  H   H851      1.0  0.65432  0.17276  0.58924  1.0000
  N   N56       1.0  0.52272  0.12676  0.65956  1.0000
  C   C533      1.0  0.50100  0.13064  0.68568  1.0000
  S   S203      1.0  0.44604  0.31882  0.56668  1.0000
  N   N57       1.0  0.58600  0.00598  0.48102  1.0000
  H   H852      1.0  0.59726  0.24696  0.58901  1.0000
  H   H853      1.0  0.52956  0.09092  0.63119  1.0000
  C   C534      1.0  0.62192  0.28776  0.67888  1.0000
  C   C535      1.0  0.56442  0.26441  0.53367  1.0000
  C   C536      1.0  0.61422  0.02497  0.48852  1.0000
  C   C537      1.0  0.53913  0.24453  0.55148  1.0000
  H   H854      1.0  0.57796  0.25479  0.51599  1.0000
  C   C538      1.0  0.52064  0.25731  0.57374  1.0000
  H   H855      1.0  0.55298  0.04842  0.47926  1.0000
  H   H856      1.0  0.64081  0.17937  0.55595  1.0000
  H   H857      1.0  0.64609  0.28854  0.47127  1.0000
  S   S204      1.0  0.45025  0.08383  0.46553  1.0000
  S   S205      1.0  0.33572  0.27671  0.66351  1.0000
  H   H858      1.0  0.65726  0.26362  0.59578  1.0000
  H   H859      1.0  0.32729  0.12660  0.53669  1.0000
  H   H860      1.0  0.55448  0.00523  0.52025  1.0000
  H   H861      1.0  0.63808  0.29745  0.69171  1.0000
  H   H862      1.0  0.65906  0.22869  0.69327  1.0000
  S   S206      1.0  0.47062  0.18144  0.74196  1.0000
  C   C539      1.0  0.43447  0.06516  0.74682  1.0000
  C   C540      1.0  0.34244  0.11679  0.79886  1.0000
  H   H863      1.0  0.47074  0.10497  0.74702  1.0000
  H   H864      1.0  0.33503  0.21644  0.89047  1.0000
  Fe  Fe106     1.0  0.45450  0.22430  0.76444  1.0000
  H   H865      1.0  0.63795  0.19239  0.71426  1.0000
  H   H866      1.0  0.44923  0.19111  0.90300  1.0000
  C   C541      1.0  0.58068  0.29112  0.77018  1.0000
  H   H867      1.0  0.63072  0.29813  0.80710  1.0000
  H   H868      1.0  0.47514  0.08422  0.86753  1.0000
  S   S207      1.0  0.37248  0.15802  0.92336  1.0000
  C   C542      1.0  0.59935  0.31896  0.75503  1.0000
  H   H869      1.0  0.47178  0.09636  0.90121  1.0000
  C   C543      1.0  0.40763  0.03788  0.79141  1.0000
  H   H870      1.0  0.42316  0.05680  0.82616  1.0000
  H   H871      1.0  0.54038  0.32809  0.82298  1.0000
  C   C544      1.0  0.42621  0.05932  0.80399  1.0000
  H   H872      1.0  0.36199  0.09713  0.79626  1.0000
  H   H873      1.0  0.52148  0.25227  0.88464  1.0000
  H   H874      1.0  0.61609  0.31637  0.73626  1.0000
  H   H875      1.0  0.53394  0.15816  0.85733  1.0000
  C   C545      1.0  0.51101  0.14149  0.86464  1.0000
  C   C546      1.0  0.43664  0.31650  0.79129  1.0000
  H   H876      1.0  0.49416  0.15326  0.88033  1.0000
  H   H877      1.0  0.37223  0.15097  0.83155  1.0000
  C   C547      1.0  0.44914  0.08351  0.78800  1.0000
  S   S208      1.0  0.53984  0.25871  0.81532  1.0000
  C   C548      1.0  0.44572  0.21385  0.91322  1.0000
  S   S209      1.0  0.47408  0.10836  0.80417  1.0000
  H   H878      1.0  0.34205  0.20213  0.78994  1.0000
  C   C549      1.0  0.41214  0.04042  0.76275  1.0000
  S   S210      1.0  0.47058  0.20066  0.80362  1.0000
  N   N58       1.0  0.35803  0.15081  0.79151  1.0000
  H   H879      1.0  0.46148  0.00079  0.81411  1.0000
  C   C550      1.0  0.48940  0.08611  0.88495  1.0000
  C   C551      1.0  0.38374  0.15489  0.80953  1.0000
  H   H880      1.0  0.45528  0.27874  0.91517  1.0000
  H   H881      1.0  0.55423  0.02333  0.95971  1.0000
  C   C552      1.0  0.65126  0.28226  0.85614  1.0000
  H   H882      1.0  0.49713  0.14108  0.84682  1.0000
  H   H883      1.0  0.49565  0.06025  0.89389  1.0000
  H   H884      1.0  0.35602  0.15315  0.74834  1.0000
  C   C553      1.0  0.45275  0.08675  0.75941  1.0000
  N   N59       1.0  0.52057  0.10736  0.87592  1.0000
  C   C554      1.0  0.49670  0.23918  0.88530  1.0000
  H   H885      1.0  0.52218  0.11967  0.91635  1.0000
  Fe  Fe107     1.0  0.49046  0.15951  0.78045  1.0000
  H   H886      1.0  0.43838  0.06698  0.72467  1.0000
  H   H887      1.0  0.49716  0.27598  0.92515  1.0000
  H   H888      1.0  0.40810  0.32120  0.74479  1.0000
  S   S211      1.0  0.63720  0.12142  0.86295  1.0000
  C   C555      1.0  0.35015  0.26344  0.74270  1.0000
  C   C556      1.0  0.58358  0.25280  0.90739  1.0000
  H   H889      1.0  0.40922  0.30851  0.79494  1.0000
  C   C557      1.0  0.38371  0.25234  0.74127  1.0000
  C   C558      1.0  0.59343  0.25098  0.95452  1.0000
  H   H890      1.0  0.39545  0.18054  0.80487  1.0000
  C   C559      1.0  0.40200  0.24683  0.71614  1.0000
  H   H891      1.0  0.48127  0.25594  0.87221  1.0000
  H   H892      1.0  0.63210  0.26408  0.85212  1.0000
  H   H893      1.0  0.42844  0.23076  0.90203  1.0000
  C   C560      1.0  0.65238  0.23499  0.74729  1.0000
  H   H894      1.0  0.52274  0.22111  0.93398  1.0000
  C   C561      1.0  0.49957  0.20800  0.93045  1.0000
  Fe  Fe108     1.0  0.38434  0.29902  0.93130  1.0000
  H   H895      1.0  0.44986  0.30414  0.73949  1.0000
  S   S212      1.0  0.38959  0.29462  0.88642  1.0000
  N   N60       1.0  0.47871  0.23066  0.91373  1.0000
  H   H896      1.0  0.33599  0.26739  0.76220  1.0000
  H   H897      1.0  0.35796  0.30884  0.83756  1.0000
  H   H898      1.0  0.57728  0.26686  0.88868  1.0000
  H   H899      1.0  0.43201  0.20547  0.93428  1.0000
  C   C562      1.0  0.33202  0.14262  0.92031  1.0000
  S   S213      1.0  0.40239  0.24555  0.77115  1.0000
  Fe  Fe109     1.0  0.52155  0.20922  0.73075  1.0000
  H   H900      1.0  0.59310  0.25411  0.71235  1.0000
  H   H901      1.0  0.59737  0.17284  0.93586  1.0000
  C   C563      1.0  0.47281  0.26179  0.92601  1.0000
  H   H902      1.0  0.60890  0.33009  0.87405  1.0000
  H   H903      1.0  0.60841  0.03074  0.72527  1.0000
  C   C564      1.0  0.56947  0.06284  0.74148  1.0000
  H   H904      1.0  0.50793  0.18582  0.92051  1.0000
  H   H905      1.0  0.40479  0.13677  0.80693  1.0000
  H   H906      1.0  0.50255  0.21650  0.87534  1.0000
  H   H907      1.0  0.45194  0.29350  0.78954  1.0000
  Fe  Fe110     1.0  0.62490  0.17597  0.86158  1.0000
  C   C565      1.0  0.60221  0.04957  0.73854  1.0000
  S   S214      1.0  0.57776  0.19682  0.88312  1.0000
  H   H908      1.0  0.64853  0.28181  0.87874  1.0000
  S   S215      1.0  0.63795  0.18776  0.81583  1.0000
  H   H909      1.0  0.56670  0.10865  0.84681  1.0000
  C   C566      1.0  0.58708  0.09866  0.77291  1.0000
  C   C567      1.0  0.58750  0.21800  0.90946  1.0000
  H   H910      1.0  0.53024  0.09100  0.83628  1.0000
  S   S216      1.0  0.53772  0.04987  0.72336  1.0000
  C   C568      1.0  0.54321  0.09287  0.85440  1.0000
  C   C569      1.0  0.55658  0.32560  0.80389  1.0000
  C   C570      1.0  0.56197  0.08738  0.75876  1.0000
  C   C571      1.0  0.37474  0.15548  0.76258  1.0000
  H   H911      1.0  0.58105  0.11760  0.78606  1.0000
  H   H912      1.0  0.39495  0.13664  0.75912  1.0000
  Fe  Fe111     1.0  0.52031  0.22709  0.78747  1.0000
  C   C572      1.0  0.62002  0.08568  0.76961  1.0000
  H   H913      1.0  0.53667  0.09780  0.76120  1.0000
  C   C573      1.0  0.62733  0.06107  0.75240  1.0000
  H   H914      1.0  0.55138  0.06729  0.86222  1.0000
  C   C574      1.0  0.53860  0.10901  0.89966  1.0000
  C   C575      1.0  0.59508  0.19981  0.93391  1.0000
  C   C576      1.0  0.33502  0.26999  0.71886  1.0000
  C   C577      1.0  0.58679  0.26934  0.92981  1.0000
  H   H915      1.0  0.32971  0.11236  0.82062  1.0000
  H   H916      1.0  0.49601  0.02192  0.79021  1.0000
  H   H917      1.0  0.58316  0.29612  0.92827  1.0000
  S   S217      1.0  0.54302  0.18368  0.76784  1.0000
  H   H918      1.0  0.56220  0.12493  0.89372  1.0000
  H   H919      1.0  0.54603  0.08363  0.90878  1.0000
  Fe  Fe112     1.0  0.65519  0.13447  0.81756  1.0000
  H   H920      1.0  0.42793  0.23807  0.71496  1.0000
  H   H921      1.0  0.39039  0.01893  0.80386  1.0000
  S   S218      1.0  0.65344  0.09970  0.78559  1.0000
  S   S219      1.0  0.50283  0.25425  0.74968  1.0000
  H   H922      1.0  0.58296  0.26699  0.76313  1.0000
  C   C578      1.0  0.56006  0.29425  0.79499  1.0000
  S   S220      1.0  0.39183  0.01190  0.74636  1.0000
  C   C579      1.0  0.43586  0.32758  0.74235  1.0000
  H   H923      1.0  0.38709  0.18075  0.75647  1.0000
  H   H924      1.0  0.33819  0.15646  0.87644  1.0000
  H   H925      1.0  0.34286  0.02819  0.94047  1.0000
  S   S221      1.0  0.33327  0.31193  0.95240  1.0000
  H   H926      1.0  0.62768  0.22113  0.75479  1.0000
  H   H927      1.0  0.65271  0.05086  0.74969  1.0000
  C   C580      1.0  0.61210  0.32803  0.85176  1.0000
  H   H928      1.0  0.44202  0.32651  0.80992  1.0000
  C   C581      1.0  0.33124  0.17609  0.79511  1.0000
  S   S222      1.0  0.41325  0.33101  0.95368  1.0000
  C   C582      1.0  0.59781  0.21626  0.95646  1.0000
  H   H929      1.0  0.64689  0.25870  0.73434  1.0000
  H   H930      1.0  0.46177  0.25620  0.94810  1.0000
  H   H931      1.0  0.49748  0.32860  0.75918  1.0000
  H   H932      1.0  0.48534  0.19883  0.95122  1.0000
  H   H933      1.0  0.59180  0.31060  0.84863  1.0000
  C   C583      1.0  0.64983  0.31565  0.81194  1.0000
  N   N61       1.0  0.64647  0.31635  0.84180  1.0000
  S   S223      1.0  0.38931  0.25180  0.96016  1.0000
  S   S224      1.0  0.49096  0.05842  0.96046  1.0000
  H   H934      1.0  0.47819  0.99835  0.75233  1.0000
  H   H935      1.0  0.32664  0.25121  0.86566  1.0000
  H   H936      1.0  0.63840  0.08372  0.95672  1.0000
  H   H937      1.0  0.45899  0.63898  0.16504  1.0000
  S   S225      1.0  0.34751  0.38980  0.98983  1.0000
  C   C584      1.0  0.36833  0.46325  0.11334  1.0000
  C   C585      1.0  0.36807  0.44337  0.09257  1.0000
  C   C586      1.0  0.43933  0.43202  0.97175  1.0000
  H   H938      1.0  0.37859  0.41859  0.09496  1.0000
  H   H939      1.0  0.46249  0.44882  0.04132  1.0000
  S   S226      1.0  0.38747  0.44834  0.14222  1.0000
  C   C587      1.0  0.42386  0.35409  0.03319  1.0000
  S   S227      1.0  0.33522  0.50800  0.03279  1.0000
  H   H940      1.0  0.43267  0.33859  0.01686  1.0000
  H   H941      1.0  0.42129  0.34647  0.10236  1.0000
  S   S228      1.0  0.49768  0.64935  0.07999  1.0000
  C   C588      1.0  0.48146  0.46643  0.02928  1.0000
  H   H942      1.0  0.36592  0.60408  0.19848  1.0000
  H   H943      1.0  0.48147  0.35478  0.05545  1.0000
  N   N62       1.0  0.42938  0.33693  0.06051  1.0000
  Fe  Fe113     1.0  0.36208  0.33954  0.97750  1.0000
  H   H944      1.0  0.65803  0.56005  0.14954  1.0000
  H   H945      1.0  0.50524  0.53265  0.08318  1.0000
  H   H946      1.0  0.33246  0.53329  0.08363  1.0000
  C   C589      1.0  0.50013  0.52407  0.01207  1.0000
  H   H947      1.0  0.43845  0.37833  0.02762  1.0000
  C   C590      1.0  0.53042  0.51221  0.99866  1.0000
  C   C591      1.0  0.61977  0.52826  0.17643  1.0000
  C   C592      1.0  0.35523  0.45601  0.06838  1.0000
  Fe  Fe114     1.0  0.37832  0.47962  0.17632  1.0000
  C   C593      1.0  0.41729  0.35840  0.08148  1.0000
  H   H948      1.0  0.57395  0.64512  0.96315  1.0000
  H   H949      1.0  0.43104  0.51103  0.13805  1.0000
  H   H950      1.0  0.47791  0.53453  0.15821  1.0000
  N   N63       1.0  0.46931  0.54691  0.11627  1.0000
  H   H951      1.0  0.38783  0.49576  0.98861  1.0000
  Fe  Fe115     1.0  0.43805  0.58235  0.01676  1.0000
  S   S229      1.0  0.40123  0.57256  0.98866  1.0000
  Fe  Fe116     1.0  0.38380  0.61415  0.05580  1.0000
  S   S230      1.0  0.34223  0.60680  0.03090  1.0000
  S   S231      1.0  0.37424  0.62453  0.10000  1.0000
  Fe  Fe117     1.0  0.36474  0.55643  0.02716  1.0000
  Fe  Fe118     1.0  0.38199  0.62377  0.99414  1.0000
  S   S232      1.0  0.40323  0.56181  0.05488  1.0000
  S   S233      1.0  0.42216  0.63544  0.01914  1.0000
  H   H952      1.0  0.62329  0.33993  0.20707  1.0000
  H   H953      1.0  0.51046  0.56076  0.13641  1.0000
  S   S234      1.0  0.49330  0.56760  0.00897  1.0000
  H   H954      1.0  0.35633  0.44115  0.05187  1.0000
  H   H955      1.0  0.54952  0.52983  0.98681  1.0000
  H   H956      1.0  0.45233  0.50993  0.03808  1.0000
  H   H957      1.0  0.50738  0.57619  0.08710  1.0000
  C   C594      1.0  0.44647  0.51763  0.11739  1.0000
  H   H958      1.0  0.46104  0.49504  0.11266  1.0000
  H   H959      1.0  0.35424  0.51067  0.12616  1.0000
  C   C595      1.0  0.34182  0.50792  0.08624  1.0000
  H   H960      1.0  0.43220  0.57141  0.14254  1.0000
  C   C596      1.0  0.47567  0.50108  0.02749  1.0000
  H   H961      1.0  0.59116  0.62285  0.02166  1.0000
  H   H962      1.0  0.35728  0.63725  0.15476  1.0000
  C   C597      1.0  0.44859  0.57627  0.12213  1.0000
  H   H963      1.0  0.47307  0.56088  0.07248  1.0000
  H   H964      1.0  0.46497  0.59861  0.12205  1.0000
  C   C598      1.0  0.34305  0.48872  0.06496  1.0000
  C   C599      1.0  0.48968  0.55439  0.08859  1.0000
  H   H965      1.0  0.46631  0.49220  0.97379  1.0000
  H   H966      1.0  0.43153  0.58325  0.10644  1.0000
  C   C600      1.0  0.49245  0.53942  0.13703  1.0000
  C   C601      1.0  0.35435  0.49516  0.11040  1.0000
  C   C602      1.0  0.65299  0.54158  0.16778  1.0000
  H   H967      1.0  0.38948  0.36320  0.08226  1.0000
  H   H968      1.0  0.43104  0.38315  0.07708  1.0000
  S   S235      1.0  0.36477  0.53416  0.17232  1.0000
  C   C603      1.0  0.56423  0.62590  0.01786  1.0000
  C   C604      1.0  0.40104  0.47143  0.99192  1.0000
  S   S236      1.0  0.60299  0.35968  0.00557  1.0000
  Fe  Fe119     1.0  0.56183  0.39221  0.98915  1.0000
  H   H969      1.0  0.38084  0.45166  0.99919  1.0000
  S   S237      1.0  0.51680  0.41088  0.01658  1.0000
  C   C605      1.0  0.51140  0.45455  0.01526  1.0000
  C   C606      1.0  0.53590  0.47756  0.00003  1.0000
  H   H970      1.0  0.42000  0.41127  0.97811  1.0000
  Fe  Fe120     1.0  0.40009  0.53709  0.20287  1.0000
  S   S238      1.0  0.58491  0.54116  0.15921  1.0000
  Fe  Fe121     1.0  0.62281  0.64447  0.09006  1.0000
  H   H971      1.0  0.41606  0.47250  0.00893  1.0000
  C   C607      1.0  0.61354  0.50406  0.19983  1.0000
  H   H972      1.0  0.42817  0.52262  0.10243  1.0000
  H   H973      1.0  0.50819  0.51709  0.13357  1.0000
  Fe  Fe122     1.0  0.54547  0.64245  0.09946  1.0000
  H   H974      1.0  0.45544  0.43145  0.98831  1.0000
  Fe  Fe123     1.0  0.58614  0.59303  0.13498  1.0000
  S   S239      1.0  0.62697  0.63127  0.13501  1.0000
  H   H975      1.0  0.60797  0.66178  0.97770  1.0000
  Fe  Fe124     1.0  0.63843  0.38819  0.97043  1.0000
  H   H976      1.0  0.58819  0.49340  0.20633  1.0000
  S   S240      1.0  0.54248  0.62700  0.14474  1.0000
  S   S241      1.0  0.58448  0.60373  0.08968  1.0000
  H   H977      1.0  0.45219  0.66043  0.13205  1.0000
  S   S242      1.0  0.41855  0.48464  0.20291  1.0000
  H   H978      1.0  0.39636  0.35937  0.03247  1.0000
  H   H979      1.0  0.55815  0.60577  0.00612  1.0000
  C   C608      1.0  0.35530  0.66081  0.14156  1.0000
  C   C609      1.0  0.44482  0.65969  0.15461  1.0000
  H   H980      1.0  0.54737  0.62124  0.03809  1.0000
  H   H981      1.0  0.55919  0.46873  0.98941  1.0000
  H   H982      1.0  0.65910  0.62068  0.18603  1.0000
  S   S243      1.0  0.43354  0.58108  0.20408  1.0000
  H   H983      1.0  0.51438  0.64312  0.98796  1.0000
  H   H984      1.0  0.41725  0.65272  0.15966  1.0000
  N   N64       1.0  0.42286  0.46484  0.96656  1.0000
  N   N65       1.0  0.55877  0.65957  0.00301  1.0000
  H   H985      1.0  0.50537  0.65933  0.01973  1.0000
  C   C610      1.0  0.36235  0.66202  0.11300  1.0000
  C   C611      1.0  0.58037  0.66416  0.97577  1.0000
  C   C612      1.0  0.52238  0.66266  0.99953  1.0000
  H   H986      1.0  0.60605  0.59472  0.21103  1.0000
  S   S244      1.0  0.54900  0.35646  0.96122  1.0000
  Fe  Fe125     1.0  0.37599  0.47134  0.23778  1.0000
  S   S245      1.0  0.38805  0.44012  0.27668  1.0000
  H   H987      1.0  0.45104  0.65096  0.34415  1.0000
  H   H988      1.0  0.38080  0.51750  0.29336  1.0000
  C   C613      1.0  0.43398  0.33941  0.45844  1.0000
  C   C614      1.0  0.33409  0.54369  0.34899  1.0000
  C   C615      1.0  0.41489  0.40550  0.27318  1.0000
  C   C616      1.0  0.42635  0.38787  0.29649  1.0000
  C   C617      1.0  0.44754  0.36002  0.29431  1.0000
  C   C618      1.0  0.45712  0.34942  0.26879  1.0000
  C   C619      1.0  0.44625  0.36749  0.24540  1.0000
  C   C620      1.0  0.42510  0.39535  0.24758  1.0000
  H   H989      1.0  0.41861  0.39564  0.31636  1.0000
  H   H990      1.0  0.34906  0.53088  0.36459  1.0000
  H   H991      1.0  0.45344  0.35938  0.22559  1.0000
  H   H992      1.0  0.41621  0.40859  0.22951  1.0000
  N   N66       1.0  0.59805  0.61639  0.38569  1.0000
  H   H993      1.0  0.52828  0.50886  0.22448  1.0000
  H   H994      1.0  0.40185  0.55596  0.33554  1.0000
  C   C621      1.0  0.39909  0.65732  0.36246  1.0000
  H   H995      1.0  0.57913  0.34950  0.21715  1.0000
  H   H996      1.0  0.62918  0.56130  0.22755  1.0000
  H   H997      1.0  0.37895  0.59368  0.32695  1.0000
  H   H998      1.0  0.51844  0.44989  0.21836  1.0000
  H   H999      1.0  0.34684  0.65529  0.38260  1.0000
  C   C622      1.0  0.33358  0.56577  0.30129  1.0000
  C   C623      1.0  0.54133  0.46051  0.26479  1.0000
  H   H1000     1.0  0.63935  0.37481  0.43483  1.0000
  N   N67       1.0  0.35430  0.54830  0.32119  1.0000
  S   S246      1.0  0.33668  0.46231  0.21129  1.0000
  H   H1001     1.0  0.58468  0.58326  0.42373  1.0000
  H   H1002     1.0  0.54117  0.43452  0.27608  1.0000
  H   H1003     1.0  0.59996  0.58505  0.24788  1.0000
  H   H1004     1.0  0.60814  0.51931  0.44613  1.0000
  H   H1005     1.0  0.64749  0.59512  0.27330  1.0000
  C   C624      1.0  0.35127  0.63314  0.23123  1.0000
  C   C625      1.0  0.36076  0.64443  0.25434  1.0000
  C   C626      1.0  0.39325  0.63732  0.26136  1.0000
  C   C627      1.0  0.41628  0.61909  0.24521  1.0000
  C   C628      1.0  0.57368  0.60399  0.41063  1.0000
  H   H1006     1.0  0.44128  0.61344  0.25082  1.0000
  H   H1007     1.0  0.58309  0.57876  0.36308  1.0000
  H   H1008     1.0  0.62421  0.64886  0.40671  1.0000
  H   H1009     1.0  0.40107  0.57286  0.30022  1.0000
  C   C629      1.0  0.38541  0.56860  0.32096  1.0000
  H   H1010     1.0  0.62488  0.59710  0.35056  1.0000
  S   S247      1.0  0.35984  0.52448  0.23939  1.0000
  H   H1011     1.0  0.44207  0.39922  0.42621  1.0000
  S   S248      1.0  0.40084  0.54601  0.39655  1.0000
  C   C630      1.0  0.40017  0.58884  0.38360  1.0000
  C   C631      1.0  0.42916  0.60470  0.36729  1.0000
  H   H1012     1.0  0.64829  0.63937  0.37545  1.0000
  C   C632      1.0  0.37032  0.60700  0.38869  1.0000
  C   C633      1.0  0.42860  0.63890  0.35672  1.0000
  C   C634      1.0  0.36972  0.64118  0.37801  1.0000
  H   H1013     1.0  0.47972  0.43865  0.29200  1.0000
  H   H1014     1.0  0.34834  0.57051  0.28023  1.0000
  H   H1015     1.0  0.61816  0.56745  0.38140  1.0000
  H   H1016     1.0  0.45547  0.47146  0.27594  1.0000
  Fe  Fe126     1.0  0.64655  0.49904  0.33223  1.0000
  H   H1017     1.0  0.45211  0.59057  0.36293  1.0000
  H   H1018     1.0  0.48666  0.48132  0.29636  1.0000
  Fe  Fe127     1.0  0.62482  0.44350  0.30233  1.0000
  S   S249      1.0  0.46649  0.54467  0.44775  1.0000
  H   H1019     1.0  0.56682  0.62430  0.42327  1.0000
  C   C635      1.0  0.48123  0.46498  0.28130  1.0000
  H   H1020     1.0  0.51456  0.52205  0.25722  1.0000
  N   N68       1.0  0.50764  0.46927  0.25664  1.0000
  H   H1021     1.0  0.63397  0.47684  0.23414  1.0000
  S   S250      1.0  0.57269  0.43868  0.32791  1.0000
  C   C636      1.0  0.49940  0.44691  0.23745  1.0000
  H   H1022     1.0  0.49896  0.42009  0.24698  1.0000
  H   H1023     1.0  0.45579  0.34631  0.31249  1.0000
  S   S251      1.0  0.62343  0.49993  0.29365  1.0000
  C   C637      1.0  0.45146  0.39773  0.44632  1.0000
  C   C638      1.0  0.60386  0.34398  0.22479  1.0000
  C   C639      1.0  0.60636  0.58875  0.36948  1.0000
  C   C640      1.0  0.51601  0.46011  0.44068  1.0000
  C   C641      1.0  0.63338  0.64418  0.23311  1.0000
  C   C642      1.0  0.61938  0.58695  0.22906  1.0000
  Fe  Fe128     1.0  0.57390  0.49503  0.32223  1.0000
  C   C643      1.0  0.63960  0.49441  0.21538  1.0000
  C   C644      1.0  0.55785  0.40627  0.45490  1.0000
  C   C645      1.0  0.53991  0.44867  0.42044  1.0000
  S   S252      1.0  0.59174  0.40763  0.40307  1.0000
  C   C646      1.0  0.37387  0.61394  0.21565  1.0000
  H   H1024     1.0  0.54179  0.46039  0.39929  1.0000
  S   S253      1.0  0.63427  0.41209  0.26775  1.0000
  C   C647      1.0  0.56102  0.42190  0.42762  1.0000
  H   H1025     1.0  0.58761  0.34403  0.27942  1.0000
  Fe  Fe129     1.0  0.60080  0.44229  0.36316  1.0000
  H   H1026     1.0  0.34132  0.49960  0.31232  1.0000
  H   H1027     1.0  0.49971  0.48074  0.43508  1.0000
  Fe  Fe130     1.0  0.41262  0.54007  0.43966  1.0000
  H   H1028     1.0  0.47378  0.45229  0.23141  1.0000
  C   C648      1.0  0.50854  0.50456  0.24313  1.0000
  H   H1029     1.0  0.44977  0.42327  0.45239  1.0000
  S   S254      1.0  0.52948  0.52763  0.31350  1.0000
  H   H1030     1.0  0.58818  0.34067  0.43064  1.0000
  S   S255      1.0  0.59689  0.49802  0.36016  1.0000
  H   H1031     1.0  0.48738  0.58615  0.31211  1.0000
  C   C649      1.0  0.53971  0.57060  0.31022  1.0000
  C   C650      1.0  0.57374  0.58135  0.30769  1.0000
  C   C651      1.0  0.58183  0.61569  0.30450  1.0000
  C   C652      1.0  0.55599  0.63942  0.30412  1.0000
  C   C653      1.0  0.52188  0.62874  0.30724  1.0000
  C   C654      1.0  0.51377  0.59434  0.31002  1.0000
  H   H1032     1.0  0.59386  0.56322  0.30818  1.0000
  H   H1033     1.0  0.60814  0.62392  0.30275  1.0000
  H   H1034     1.0  0.65398  0.66248  0.23425  1.0000
  H   H1035     1.0  0.61166  0.36687  0.23254  1.0000
  H   H1036     1.0  0.47902  0.39134  0.44300  1.0000
  H   H1037     1.0  0.55864  0.63561  0.36252  1.0000
  C   C655      1.0  0.40646  0.60708  0.22251  1.0000
  H   H1038     1.0  0.64260  0.60836  0.40561  1.0000
  C   C656      1.0  0.65029  0.35149  0.44466  1.0000
  H   H1039     1.0  0.50178  0.64697  0.30700  1.0000
  N   N69       1.0  0.64742  0.61068  0.23005  1.0000
  H   H1040     1.0  0.56178  0.46197  0.24675  1.0000
  C   C657      1.0  0.62964  0.62876  0.39369  1.0000
  H   H1041     1.0  0.54902  0.47783  0.27833  1.0000
  H   H1042     1.0  0.48347  0.51202  0.23674  1.0000
  H   H1043     1.0  0.34777  0.59472  0.40110  1.0000
  H   H1044     1.0  0.54950  0.59443  0.40532  1.0000
  C   C658      1.0  0.36413  0.51511  0.31361  1.0000
  H   H1045     1.0  0.61443  0.64335  0.25207  1.0000
  C   C659      1.0  0.58248  0.64406  0.36907  1.0000
  H   H1046     1.0  0.37851  0.50071  0.32892  1.0000
  H   H1047     1.0  0.42407  0.33953  0.43863  1.0000
  S   S256      1.0  0.65296  0.44308  0.33835  1.0000
  H   H1048     1.0  0.40059  0.64592  0.27931  1.0000
  H   H1049     1.0  0.42780  0.64585  0.43986  1.0000
  H   H1050     1.0  0.38410  0.38408  0.45234  1.0000
  H   H1051     1.0  0.37656  0.33298  0.25397  1.0000
  H   H1052     1.0  0.63849  0.34784  0.39391  1.0000
  H   H1053     1.0  0.60017  0.65428  0.35013  1.0000
  H   H1054     1.0  0.53754  0.65481  0.46006  1.0000
  H   H1055     1.0  0.38641  0.65401  0.43027  1.0000
  H   H1056     1.0  0.57415  0.38568  0.46066  1.0000
  H   H1057     1.0  0.62020  0.65434  0.21546  1.0000
  H   H1058     1.0  0.57777  0.48487  0.45546  1.0000
  S   S257      1.0  0.57363  0.44328  0.70090  1.0000
  C   C660      1.0  0.56065  0.53088  0.48875  1.0000
  H   H1059     1.0  0.63210  0.56212  0.61022  1.0000
  S   S258      1.0  0.48447  0.45850  0.49401  1.0000
  S   S259      1.0  0.39090  0.57518  0.46837  1.0000
  C   C661      1.0  0.41897  0.51329  0.70469  1.0000
  H   H1060     1.0  0.49570  0.58476  0.60250  1.0000
  H   H1061     1.0  0.47275  0.36436  0.49133  1.0000
  S   S260      1.0  0.40002  0.49346  0.47025  1.0000
  H   H1062     1.0  0.62598  0.43917  0.61020  1.0000
  C   C662      1.0  0.63081  0.53530  0.61029  1.0000
  C   C663      1.0  0.59944  0.49745  0.46203  1.0000
  C   C664      1.0  0.43730  0.39557  0.66009  1.0000
  C   C665      1.0  0.44133  0.40659  0.68497  1.0000
  H   H1063     1.0  0.41471  0.38121  0.65880  1.0000
  S   S261      1.0  0.48337  0.59275  0.70005  1.0000
  C   C666      1.0  0.36697  0.43658  0.62508  1.0000
  C   C667      1.0  0.40904  0.48089  0.60836  1.0000
  N   N70       1.0  0.37729  0.46531  0.60329  1.0000
  C   C668      1.0  0.39992  0.55816  0.67297  1.0000
  H   H1064     1.0  0.55799  0.55549  0.64873  1.0000
  H   H1065     1.0  0.47263  0.52676  0.61354  1.0000
  H   H1066     1.0  0.49288  0.49573  0.63511  1.0000
  C   C669      1.0  0.46174  0.40433  0.63675  1.0000
  C   C670      1.0  0.53512  0.53874  0.65121  1.0000
  H   H1067     1.0  0.63789  0.53942  0.56615  1.0000
  H   H1068     1.0  0.38978  0.47468  0.55924  1.0000
  H   H1069     1.0  0.41754  0.50259  0.59225  1.0000
  H   H1070     1.0  0.53187  0.59654  0.61714  1.0000
  H   H1071     1.0  0.63557  0.64921  0.60388  1.0000
  C   C671      1.0  0.47059  0.42500  0.68714  1.0000
  S   S262      1.0  0.45460  0.39578  0.60419  1.0000
  H   H1072     1.0  0.57300  0.48415  0.53092  1.0000
  C   C672      1.0  0.49087  0.42301  0.63883  1.0000
  S   S263      1.0  0.36362  0.49857  0.68071  1.0000
  H   H1073     1.0  0.60002  0.45895  0.51026  1.0000
  C   C673      1.0  0.49566  0.43267  0.66407  1.0000
  Fe  Fe131     1.0  0.38277  0.52888  0.50009  1.0000
  H   H1074     1.0  0.35712  0.51262  0.58757  1.0000
  C   C674      1.0  0.62522  0.51352  0.63519  1.0000
  Fe  Fe132     1.0  0.44395  0.57644  0.47889  1.0000
  C   C675      1.0  0.38326  0.45346  0.57629  1.0000
  S   S264      1.0  0.43393  0.53381  0.51356  1.0000
  S   S265      1.0  0.37287  0.33895  0.59903  1.0000
  H   H1075     1.0  0.48582  0.58866  0.52948  1.0000
  Fe  Fe133     1.0  0.45180  0.50163  0.48135  1.0000
  H   H1076     1.0  0.64281  0.35025  0.46721  1.0000
  C   C676      1.0  0.63241  0.48780  0.58540  1.0000
  H   H1077     1.0  0.36020  0.44041  0.57231  1.0000
  H   H1078     1.0  0.64141  0.50780  0.49771  1.0000
  H   H1079     1.0  0.40542  0.48992  0.62868  1.0000
  S   S266      1.0  0.33517  0.52053  0.53174  1.0000
  H   H1080     1.0  0.58952  0.65357  0.48220  1.0000
  Fe  Fe134     1.0  0.59200  0.49550  0.70194  1.0000
  Fe  Fe135     1.0  0.42847  0.34656  0.60206  1.0000
  H   H1081     1.0  0.55632  0.46494  0.50535  1.0000
  C   C677      1.0  0.50883  0.57973  0.62090  1.0000
  H   H1082     1.0  0.42839  0.60498  0.66698  1.0000
  H   H1083     1.0  0.55244  0.53853  0.50928  1.0000
  H   H1084     1.0  0.53186  0.40547  0.49614  1.0000
  C   C678      1.0  0.39599  0.52519  0.68693  1.0000
  Fe  Fe136     1.0  0.63498  0.35102  0.53991  1.0000
  H   H1085     1.0  0.38228  0.56750  0.65913  1.0000
  H   H1086     1.0  0.52882  0.53681  0.58419  1.0000
  N   N71       1.0  0.58961  0.50769  0.48939  1.0000
  C   C679      1.0  0.62743  0.46597  0.61024  1.0000
  C   C680      1.0  0.48675  0.52276  0.63139  1.0000
  H   H1087     1.0  0.40467  0.43548  0.57508  1.0000
  C   C681      1.0  0.53397  0.41756  0.47501  1.0000
  S   S267      1.0  0.63614  0.47228  0.55419  1.0000
  C   C682      1.0  0.61908  0.52465  0.49703  1.0000
  C   C683      1.0  0.54145  0.53501  0.60283  1.0000
  H   H1088     1.0  0.53736  0.58955  0.55254  1.0000
  H   H1089     1.0  0.56075  0.33342  0.56583  1.0000
  C   C684      1.0  0.63399  0.52247  0.58540  1.0000
  Fe  Fe137     1.0  0.48413  0.64744  0.68151  1.0000
  C   C685      1.0  0.42606  0.57941  0.67740  1.0000
  H   H1090     1.0  0.62004  0.46195  0.65418  1.0000
  H   H1091     1.0  0.62770  0.54741  0.48209  1.0000
  H   H1092     1.0  0.54369  0.51242  0.65560  1.0000
  H   H1093     1.0  0.37964  0.36462  0.48756  1.0000
  S   S268      1.0  0.61625  0.37353  0.57790  1.0000
  C   C686      1.0  0.44916  0.56740  0.69509  1.0000
  C   C687      1.0  0.34992  0.49033  0.60348  1.0000
  H   H1094     1.0  0.51782  0.54404  0.66975  1.0000
  H   H1095     1.0  0.51833  0.44678  0.66546  1.0000
  H   H1096     1.0  0.42153  0.40097  0.70251  1.0000
  C   C688      1.0  0.62367  0.47887  0.63514  1.0000
  H   H1097     1.0  0.43096  0.35283  0.51005  1.0000
  H   H1098     1.0  0.56448  0.55185  0.59772  1.0000
  S   S269      1.0  0.65259  0.62360  0.46258  1.0000
  H   H1099     1.0  0.61286  0.53247  0.51771  1.0000
  H   H1100     1.0  0.50992  0.42982  0.62087  1.0000
  H   H1101     1.0  0.65450  0.36612  0.69032  1.0000
  H   H1102     1.0  0.35515  0.45685  0.51376  1.0000
  H   H1103     1.0  0.55059  0.50884  0.60709  1.0000
  H   H1104     1.0  0.64449  0.42600  0.69165  1.0000
  S   S270      1.0  0.60240  0.62340  0.53572  1.0000
  C   C689      1.0  0.56731  0.63872  0.49230  1.0000
  C   C690      1.0  0.56696  0.62120  0.51874  1.0000
  C   C691      1.0  0.57927  0.47764  0.50982  1.0000
  C   C692      1.0  0.53784  0.63949  0.47980  1.0000
  C   C693      1.0  0.53768  0.60288  0.53204  1.0000
  C   C694      1.0  0.50866  0.60232  0.51899  1.0000
  H   H1105     1.0  0.34249  0.42490  0.62248  1.0000
  S   S271      1.0  0.47106  0.62545  0.47839  1.0000
  C   C695      1.0  0.50855  0.62126  0.49309  1.0000
  N   N72       1.0  0.51802  0.54406  0.62655  1.0000
  H   H1106     1.0  0.46902  0.52812  0.64973  1.0000
  H   H1107     1.0  0.49148  0.58736  0.63859  1.0000
  S   S272      1.0  0.61949  0.53027  0.66605  1.0000
  H   H1108     1.0  0.65719  0.66120  0.63044  1.0000
  H   H1109     1.0  0.38652  0.41675  0.62476  1.0000
  C   C696      1.0  0.51326  0.44464  0.46801  1.0000
  C   C697      1.0  0.44580  0.53413  0.70837  1.0000
  H   H1110     1.0  0.43016  0.46263  0.60844  1.0000
  H   H1111     1.0  0.36371  0.44435  0.64587  1.0000
  H   H1112     1.0  0.44380  0.39616  0.50112  1.0000
  C   C698      1.0  0.44538  0.37141  0.49362  1.0000
  Fe  Fe138     1.0  0.65004  0.63537  0.50525  1.0000
  H   H1113     1.0  0.34441  0.49933  0.62378  1.0000
  C   C699      1.0  0.32913  0.45453  0.52404  1.0000
  H   H1114     1.0  0.56755  0.55418  0.47399  1.0000
  Fe  Fe139     1.0  0.64948  0.41786  0.55748  1.0000
  H   H1115     1.0  0.53805  0.51890  0.48282  1.0000
  H   H1116     1.0  0.65564  0.40326  0.64688  1.0000
  N   N73       1.0  0.43157  0.37281  0.46748  1.0000
  C   C700      1.0  0.39541  0.38280  0.47160  1.0000
  H   H1117     1.0  0.39273  0.40788  0.47848  1.0000
  H   H1118     1.0  0.62076  0.47938  0.46216  1.0000
  C   C701      1.0  0.33153  0.61150  0.94230  1.0000
  H   H1119     1.0  0.59134  0.60326  0.74153  1.0000
  H   H1120     1.0  0.42933  0.39146  0.75161  1.0000
  H   H1121     1.0  0.47818  0.50384  0.83028  1.0000
  S   S273      1.0  0.35132  0.41433  0.73739  1.0000
  H   H1122     1.0  0.41709  0.45944  0.92513  1.0000
  H   H1123     1.0  0.39423  0.41662  0.86215  1.0000
  H   H1124     1.0  0.42930  0.38301  0.78800  1.0000
  C   C702      1.0  0.47315  0.48635  0.81595  1.0000
  C   C703      1.0  0.40157  0.46437  0.94462  1.0000
  H   H1125     1.0  0.34740  0.36259  0.80874  1.0000
  C   C704      1.0  0.38109  0.33255  0.86660  1.0000
  C   C705      1.0  0.44941  0.49157  0.95793  1.0000
  N   N74       1.0  0.44449  0.34167  0.76633  1.0000
  H   H1126     1.0  0.43793  0.51680  0.95449  1.0000
  C   C706      1.0  0.37065  0.39311  0.83330  1.0000
  C   C707      1.0  0.38591  0.39318  0.85692  1.0000
  C   C708      1.0  0.39062  0.36301  0.87379  1.0000
  C   C709      1.0  0.35969  0.36275  0.82671  1.0000
  C   C710      1.0  0.33950  0.64566  0.94000  1.0000
  H   H1127     1.0  0.40258  0.36325  0.89192  1.0000
  H   H1128     1.0  0.54908  0.58524  0.75057  1.0000
  H   H1129     1.0  0.41892  0.52628  0.82630  1.0000
  H   H1130     1.0  0.46213  0.46256  0.82840  1.0000
  H   H1131     1.0  0.40512  0.48428  0.82495  1.0000
  H   H1132     1.0  0.54773  0.65064  0.79565  1.0000
  C   C711      1.0  0.41672  0.50765  0.81224  1.0000
  H   H1133     1.0  0.58431  0.62629  0.78640  1.0000
  H   H1134     1.0  0.46421  0.52421  0.72127  1.0000
  C   C712      1.0  0.51645  0.64393  0.75293  1.0000
  H   H1135     1.0  0.65114  0.50096  0.87397  1.0000
  H   H1136     1.0  0.49980  0.62209  0.76307  1.0000
  S   S274      1.0  0.59851  0.42383  0.95648  1.0000
  N   N75       1.0  0.45028  0.50118  0.79668  1.0000
  H   H1137     1.0  0.42737  0.48697  0.76334  1.0000
  H   H1138     1.0  0.39829  0.51730  0.79821  1.0000
  H   H1139     1.0  0.34540  0.59329  0.95435  1.0000
  C   C713      1.0  0.64598  0.57901  0.78263  1.0000
  H   H1140     1.0  0.49080  0.52904  0.76911  1.0000
  C   C714      1.0  0.46548  0.53307  0.78113  1.0000
  H   H1141     1.0  0.46965  0.55134  0.79506  1.0000
  H   H1142     1.0  0.39620  0.36581  0.77283  1.0000
  H   H1143     1.0  0.49838  0.48035  0.80480  1.0000
  H   H1144     1.0  0.44884  0.54495  0.76638  1.0000
  H   H1145     1.0  0.60716  0.35324  0.84073  1.0000
  H   H1146     1.0  0.43595  0.45267  0.78838  1.0000
  H   H1147     1.0  0.47037  0.47341  0.76443  1.0000
  H   H1148     1.0  0.64604  0.34096  0.80050  1.0000
  C   C715      1.0  0.44580  0.47757  0.77738  1.0000
  H   H1149     1.0  0.48807  0.36964  0.74294  1.0000
  Fe  Fe140     1.0  0.52574  0.45746  0.72565  1.0000
  S   S275      1.0  0.62240  0.38385  0.74652  1.0000
  S   S276      1.0  0.54327  0.44163  0.76647  1.0000
  S   S277      1.0  0.61573  0.48225  0.74011  1.0000
  Fe  Fe141     1.0  0.59277  0.43120  0.74123  1.0000
  C   C716      1.0  0.59635  0.35020  0.76413  1.0000
  H   H1150     1.0  0.48859  0.36188  0.77932  1.0000
  C   C717      1.0  0.65341  0.43523  0.82100  1.0000
  Fe  Fe142     1.0  0.58873  0.38568  0.92999  1.0000
  S   S278      1.0  0.58252  0.39924  0.88574  1.0000
  H   H1151     1.0  0.59930  0.42413  0.82819  1.0000
  C   C718      1.0  0.56385  0.60853  0.74087  1.0000
  C   C719      1.0  0.57446  0.35369  0.78830  1.0000
  S   S279      1.0  0.63140  0.35282  0.94105  1.0000
  S   S280      1.0  0.47448  0.43885  0.71866  1.0000
  C   C720      1.0  0.62241  0.42425  0.83738  1.0000
  C   C721      1.0  0.62124  0.41383  0.86557  1.0000
  H   H1152     1.0  0.65108  0.53527  0.84651  1.0000
  C   C722      1.0  0.65118  0.41437  0.87730  1.0000
  C   C723      1.0  0.48126  0.35084  0.76176  1.0000
  C   C724      1.0  0.42399  0.37182  0.76990  1.0000
  H   H1153     1.0  0.65401  0.44385  0.79927  1.0000
  H   H1154     1.0  0.57248  0.37771  0.79560  1.0000
  C   C725      1.0  0.64434  0.59563  0.80561  1.0000
  S   S281      1.0  0.65262  0.64515  0.88436  1.0000
  Fe  Fe143     1.0  0.56448  0.49441  0.76200  1.0000
  H   H1155     1.0  0.62123  0.54462  0.76220  1.0000
  C   C726      1.0  0.61985  0.55658  0.78035  1.0000
  S   S282      1.0  0.55664  0.52558  0.79688  1.0000
  H   H1156     1.0  0.38846  0.48864  0.94041  1.0000
  C   C727      1.0  0.61648  0.58921  0.82668  1.0000
  C   C728      1.0  0.59021  0.56667  0.82437  1.0000
  H   H1157     1.0  0.61489  0.60196  0.84447  1.0000
  H   H1158     1.0  0.56842  0.56220  0.84046  1.0000
  C   C729      1.0  0.59163  0.55059  0.80100  1.0000
  S   S283      1.0  0.36793  0.43124  0.81164  1.0000
  S   S284      1.0  0.54205  0.51127  0.72351  1.0000
  H   H1159     1.0  0.46608  0.48770  0.93863  1.0000
  Fe  Fe144     1.0  0.33681  0.46577  0.71875  1.0000
  H   H1160     1.0  0.56015  0.61308  0.71889  1.0000
  H   H1161     1.0  0.54267  0.60652  0.79446  1.0000
  H   H1162     1.0  0.65041  0.40721  0.89912  1.0000
  C   C730      1.0  0.55696  0.62983  0.78420  1.0000
  H   H1163     1.0  0.38132  0.44442  0.95048  1.0000
  C   C731      1.0  0.36554  0.33240  0.84308  1.0000
  H   H1164     1.0  0.44238  0.34552  0.72303  1.0000
  H   H1165     1.0  0.51218  0.64869  0.73118  1.0000
  H   H1166     1.0  0.45623  0.42631  0.95312  1.0000
  H   H1167     1.0  0.41667  0.48757  0.71485  1.0000
  Fe  Fe145     1.0  0.33603  0.43347  0.77766  1.0000
  N   N76       1.0  0.55277  0.63740  0.75498  1.0000
  S   S285      1.0  0.37078  0.65959  0.95763  1.0000
  H   H1168     1.0  0.60153  0.66302  0.74296  1.0000
  C   C732      1.0  0.47978  0.68949  0.07362  1.0000
  C   C733      1.0  0.35924  0.69244  0.09608  1.0000
  C   C734      1.0  0.34551  0.68965  0.15326  1.0000
  C   C735      1.0  0.56811  0.68545  0.01894  1.0000
  C   C736      1.0  0.47962  0.74976  0.07415  1.0000
  C   C737      1.0  0.34987  0.72159  0.10779  1.0000
  H   H1169     1.0  0.49901  0.82119  0.97688  1.0000
  C   C738      1.0  0.43389  0.72357  0.05723  1.0000
  H   H1170     1.0  0.41023  0.72533  0.04878  1.0000
  S   S286      1.0  0.59820  0.89471  0.98308  1.0000
  C   C739      1.0  0.44871  0.75231  0.06338  1.0000
  C   C740      1.0  0.44886  0.69223  0.06311  1.0000
  C   C741      1.0  0.34275  0.72024  0.13645  1.0000
  H   H1171     1.0  0.34792  0.74508  0.09453  1.0000
  H   H1172     1.0  0.39719  0.88751  0.10231  1.0000
  H   H1173     1.0  0.32848  0.83791  0.14957  1.0000
  N   N77       1.0  0.45202  0.69212  0.16334  1.0000
  H   H1174     1.0  0.64331  0.80708  0.06586  1.0000
  H   H1175     1.0  0.34085  0.68826  0.17533  1.0000
  H   H1176     1.0  0.52114  0.90728  0.98766  1.0000
  N   N78       1.0  0.35151  0.85696  0.10828  1.0000
  C   C742      1.0  0.48929  0.69859  0.15859  1.0000
  H   H1177     1.0  0.49112  0.89703  0.96635  1.0000
  S   S287      1.0  0.58361  0.68395  0.09623  1.0000
  S   S288      1.0  0.37840  0.85366  0.01934  1.0000
  H   H1178     1.0  0.45146  0.67062  0.20554  1.0000
  C   C743      1.0  0.38581  0.86730  0.09329  1.0000
  Fe  Fe146     1.0  0.34657  0.77961  0.98843  1.0000
  Fe  Fe147     1.0  0.38671  0.97728  0.15683  1.0000
  H   H1179     1.0  0.45334  0.85755  0.03624  1.0000
  C   C744      1.0  0.51006  0.88615  0.97951  1.0000
  Fe  Fe148     1.0  0.58314  0.66625  0.14110  1.0000
  H   H1180     1.0  0.44709  0.88757  0.00691  1.0000
  S   S289      1.0  0.53601  0.93268  0.03811  1.0000
  H   H1181     1.0  0.53112  0.86595  0.02844  1.0000
  S   S290      1.0  0.42808  0.79119  0.05930  1.0000
  Fe  Fe149     1.0  0.38744  0.84461  0.97583  1.0000
  H   H1182     1.0  0.41092  0.68535  0.19735  1.0000
  S   S291      1.0  0.33041  0.75679  0.15100  1.0000
  H   H1183     1.0  0.45942  0.84295  0.97757  1.0000
  S   S292      1.0  0.62649  0.79780  0.00462  1.0000
  Fe  Fe150     1.0  0.38953  0.79895  0.02962  1.0000
  C   C745      1.0  0.38665  0.97080  0.06606  1.0000
  H   H1184     1.0  0.50777  0.82687  0.03612  1.0000
  C   C746      1.0  0.62751  0.78264  0.97320  1.0000
  H   H1185     1.0  0.40868  0.95588  0.06065  1.0000
  H   H1186     1.0  0.54065  0.83434  0.00668  1.0000
  S   S293      1.0  0.39644  0.95211  0.11920  1.0000
  C   C747      1.0  0.46657  0.87617  0.01925  1.0000
  C   C748      1.0  0.37460  0.97264  0.09366  1.0000
  C   C749      1.0  0.63087  0.78800  0.15482  1.0000
  Fe  Fe151     1.0  0.62636  0.85358  0.00518  1.0000
  C   C750      1.0  0.32817  0.88555  0.10551  1.0000
  Fe  Fe152     1.0  0.64700  0.92441  0.97807  1.0000
  H   H1187     1.0  0.47195  0.96590  0.03743  1.0000
  S   S294      1.0  0.63540  0.94675  0.01691  1.0000
  C   C751      1.0  0.33827  0.82875  0.09672  1.0000
  H   H1188     1.0  0.62694  0.81479  0.15162  1.0000
  H   H1189     1.0  0.64526  0.69195  0.16537  1.0000
  C   C752      1.0  0.49001  0.97851  0.02059  1.0000
  H   H1190     1.0  0.44212  0.71933  0.12483  1.0000
  S   S295      1.0  0.40247  0.79130  0.98551  1.0000
  H   H1191     1.0  0.46686  0.81337  0.00662  1.0000
  H   H1192     1.0  0.33475  0.83639  0.07495  1.0000
  S   S296      1.0  0.33274  0.83244  0.97522  1.0000
  C   C753      1.0  0.47915  0.83330  0.99025  1.0000
  H   H1193     1.0  0.49131  0.77196  0.07894  1.0000
  C   C754      1.0  0.51954  0.84629  0.01901  1.0000
  H   H1194     1.0  0.47699  0.89650  0.02873  1.0000
  H   H1195     1.0  0.35597  0.80719  0.09752  1.0000
  H   H1196     1.0  0.57704  0.68940  0.96400  1.0000
  N   N79       1.0  0.49388  0.86049  0.00202  1.0000
  H   H1197     1.0  0.33665  0.99337  0.12195  1.0000
  S   S297      1.0  0.34261  0.96340  0.19046  1.0000
  S   S298      1.0  0.42652  0.97461  0.18472  1.0000
  C   C755      1.0  0.60284  0.76566  0.16004  1.0000
  H   H1198     1.0  0.43595  0.66988  0.06011  1.0000
  H   H1199     1.0  0.51712  0.68765  0.98834  1.0000
  H   H1200     1.0  0.51936  0.71691  0.08682  1.0000
  H   H1201     1.0  0.40701  0.71667  0.15205  1.0000
  H   H1202     1.0  0.37122  0.82456  0.14036  1.0000
  H   H1203     1.0  0.38475  0.87721  0.07141  1.0000
  H   H1204     1.0  0.57718  0.77510  0.16060  1.0000
  H   H1205     1.0  0.50027  0.69838  0.13672  1.0000
  Fe  Fe153     1.0  0.58814  0.91434  0.02334  1.0000
  C   C756      1.0  0.49544  0.71850  0.07882  1.0000
  C   C757      1.0  0.43896  0.69074  0.19290  1.0000
  C   C758      1.0  0.60811  0.73106  0.16397  1.0000
  H   H1206     1.0  0.32847  0.97160  0.96237  1.0000
  H   H1207     1.0  0.40368  0.84591  0.09387  1.0000
  S   S299      1.0  0.57342  0.70321  0.17049  1.0000
  C   C759      1.0  0.64118  0.71870  0.16254  1.0000
  S   S300      1.0  0.61159  0.87030  0.04621  1.0000
  C   C760      1.0  0.52350  0.96706  0.01601  1.0000
  C   C761      1.0  0.37128  0.98964  0.04535  1.0000
  C   C762      1.0  0.43517  0.71935  0.14731  1.0000
  H   H1208     1.0  0.36388  0.69341  0.07403  1.0000
  H   H1209     1.0  0.44208  0.74445  0.15183  1.0000
  C   C763      1.0  0.34620  0.99206  0.10062  1.0000
  C   C764      1.0  0.35386  0.84619  0.13762  1.0000
  H   H1210     1.0  0.55198  0.68301  0.03946  1.0000
  H   H1211     1.0  0.57232  0.97407  0.98997  1.0000
  H   H1212     1.0  0.59527  0.68339  0.02238  1.0000
  C   C765      1.0  0.64154  0.75116  0.97022  1.0000
  H   H1213     1.0  0.65173  0.78615  0.09843  1.0000
  H   H1214     1.0  0.65201  0.73676  0.98707  1.0000
  H   H1215     1.0  0.49589  0.72328  0.16410  1.0000
  H   H1216     1.0  0.56474  0.71121  0.00818  1.0000
  H   H1217     1.0  0.53087  0.87540  0.96604  1.0000
  H   H1218     1.0  0.50263  0.67922  0.17126  1.0000
  H   H1219     1.0  0.38144  0.98922  0.02399  1.0000
  S   S301      1.0  0.33418  0.78240  0.03376  1.0000
  H   H1220     1.0  0.33745  0.90731  0.11402  1.0000
  C   C766      1.0  0.54652  0.98299  0.99382  1.0000
  H   H1221     1.0  0.36371  0.86691  0.14705  1.0000
  H   H1222     1.0  0.44367  0.71487  0.20018  1.0000
  H   H1223     1.0  0.57000  0.78306  0.21094  1.0000
  H   H1224     1.0  0.58279  0.74066  0.36638  1.0000
  H   H1225     1.0  0.45031  0.89537  0.41432  1.0000
  H   H1226     1.0  0.64250  0.72352  0.36719  1.0000
  Fe  Fe154     1.0  0.45277  0.72315  0.34245  1.0000
  H   H1227     1.0  0.33739  0.72881  0.37410  1.0000
  S   S302      1.0  0.48089  0.73610  0.29944  1.0000
  H   H1228     1.0  0.61213  0.80765  0.41337  1.0000
  S   S303      1.0  0.39956  0.70103  0.35280  1.0000
  H   H1229     1.0  0.44307  0.93358  0.35775  1.0000
  H   H1230     1.0  0.42432  0.66987  0.40739  1.0000
  C   C767      1.0  0.52657  0.99689  0.37988  1.0000
  H   H1231     1.0  0.44571  0.73448  0.44778  1.0000
  S   S304      1.0  0.33347  0.75462  0.23183  1.0000
  C   C768      1.0  0.62544  0.72392  0.38626  1.0000
  S   S305      1.0  0.52736  0.74890  0.40986  1.0000
  H   H1232     1.0  0.45120  0.92937  0.23489  1.0000
  H   H1233     1.0  0.54569  0.80188  0.23800  1.0000
  H   H1234     1.0  0.59068  0.86558  0.40763  1.0000
  S   S306      1.0  0.33151  0.66555  0.27553  1.0000
  N   N80       1.0  0.63432  0.84810  0.38272  1.0000
  S   S307      1.0  0.49666  0.69723  0.35972  1.0000
  H   H1235     1.0  0.45689  0.71735  0.41645  1.0000
  S   S308      1.0  0.37864  0.92623  0.25710  1.0000
  C   C769      1.0  0.57163  0.80083  0.22583  1.0000
  H   H1236     1.0  0.36217  0.71017  0.42963  1.0000
  H   H1237     1.0  0.60682  0.74725  0.27280  1.0000
  Fe  Fe155     1.0  0.64763  0.95102  0.30850  1.0000
  S   S309      1.0  0.64977  0.90505  0.28683  1.0000
  C   C770      1.0  0.33034  0.76076  0.32390  1.0000
  C   C771      1.0  0.41321  0.90019  0.26422  1.0000
  C   C772      1.0  0.44640  0.90761  0.25056  1.0000
  C   C773      1.0  0.47357  0.88712  0.25750  1.0000
  C   C774      1.0  0.46771  0.85880  0.27782  1.0000
  C   C775      1.0  0.43449  0.85120  0.29138  1.0000
  C   C776      1.0  0.40740  0.87201  0.28473  1.0000
  C   C777      1.0  0.63166  0.79072  0.22726  1.0000
  H   H1238     1.0  0.42966  0.82941  0.30702  1.0000
  H   H1239     1.0  0.38174  0.86607  0.29530  1.0000
  S   S310      1.0  0.56721  0.68221  0.29983  1.0000
  C   C778      1.0  0.51616  0.97367  0.42806  1.0000
  H   H1240     1.0  0.56428  0.72543  0.45433  1.0000
  H   H1241     1.0  0.49922  0.89324  0.24701  1.0000
  S   S311      1.0  0.50272  0.83419  0.28625  1.0000
  S   S312      1.0  0.46326  0.77271  0.35562  1.0000
  C   C779      1.0  0.62457  0.81234  0.39159  1.0000
  Fe  Fe156     1.0  0.49466  0.78402  0.31373  1.0000
  C   C780      1.0  0.38869  0.72047  0.42758  1.0000
  H   H1242     1.0  0.58969  0.73743  0.24343  1.0000
  C   C781      1.0  0.51241  0.89956  0.38328  1.0000
  H   H1243     1.0  0.39844  0.72646  0.40523  1.0000
  H   H1244     1.0  0.48709  0.94728  0.34921  1.0000
  H   H1245     1.0  0.51119  0.91388  0.40085  1.0000
  H   H1246     1.0  0.52096  0.87397  0.39062  1.0000
  H   H1247     1.0  0.53244  0.91205  0.36686  1.0000
  H   H1248     1.0  0.48984  0.85382  0.35541  1.0000
  H   H1249     1.0  0.50069  0.89225  0.33252  1.0000
  C   C782      1.0  0.48170  0.88009  0.34996  1.0000
  N   N81       1.0  0.47888  0.89857  0.37374  1.0000
  C   C783      1.0  0.46798  0.93323  0.36558  1.0000
  Fe  Fe157     1.0  0.51003  0.74767  0.36895  1.0000
  N   N82       1.0  0.41087  0.69636  0.44165  1.0000
  H   H1250     1.0  0.63868  0.81600  0.21543  1.0000
  H   H1251     1.0  0.60989  0.89597  0.37966  1.0000
  Fe  Fe158     1.0  0.52587  0.71428  0.31798  1.0000
  H   H1252     1.0  0.57776  0.82624  0.21394  1.0000
  Fe  Fe159     1.0  0.38205  0.96481  0.21861  1.0000
  H   H1253     1.0  0.52374  0.95778  0.44552  1.0000
  H   H1254     1.0  0.57204  0.81291  0.27766  1.0000
  C   C784      1.0  0.65880  0.85830  0.39981  1.0000
  H   H1255     1.0  0.56260  0.75417  0.26998  1.0000
  C   C785      1.0  0.61500  0.71450  0.43591  1.0000
  H   H1256     1.0  0.61692  0.80686  0.27785  1.0000
  C   C786      1.0  0.63729  0.71450  0.41132  1.0000
  C   C787      1.0  0.56940  0.73469  0.41030  1.0000
  H   H1257     1.0  0.46324  0.69320  0.44838  1.0000
  C   C788      1.0  0.58120  0.72488  0.43535  1.0000
  S   S313      1.0  0.49443  0.88617  0.45650  1.0000
  C   C789      1.0  0.59723  0.81345  0.26428  1.0000
  H   H1258     1.0  0.65827  0.87959  0.34613  1.0000
  C   C790      1.0  0.32720  0.97728  0.29552  1.0000
  H   H1259     1.0  0.38715  0.74445  0.43623  1.0000
  C   C791      1.0  0.60349  0.86879  0.38587  1.0000
  S   S314      1.0  0.59400  0.96928  0.31848  1.0000
  H   H1260     1.0  0.57574  0.66523  0.38078  1.0000
  C   C792      1.0  0.48483  0.98998  0.43099  1.0000
  N   N83       1.0  0.59738  0.79025  0.24386  1.0000
  H   H1261     1.0  0.63250  0.84600  0.33996  1.0000
  C   C793      1.0  0.65036  0.85296  0.35359  1.0000
  S   S315      1.0  0.54246  0.76331  0.32833  1.0000
  C   C794      1.0  0.45345  0.88154  0.39632  1.0000
  H   H1262     1.0  0.46488  0.94748  0.38332  1.0000
  Fe  Fe160     1.0  0.60917  0.97459  0.35919  1.0000
  H   H1263     1.0  0.60219  0.83987  0.25420  1.0000
  C   C795      1.0  0.58884  0.75585  0.25814  1.0000
  C   C796      1.0  0.59149  0.73356  0.38578  1.0000
  H   H1264     1.0  0.58458  0.86195  0.37312  1.0000
  H   H1265     1.0  0.42792  0.87973  0.38981  1.0000
  H   H1266     1.0  0.45688  0.87893  0.34212  1.0000
  H   H1267     1.0  0.35595  0.74945  0.32456  1.0000
  S   S316      1.0  0.57642  0.95679  0.39936  1.0000
  C   C797      1.0  0.53730  0.97749  0.40263  1.0000
  H   H1268     1.0  0.46141  0.85571  0.40375  1.0000
  H   H1269     1.0  0.60621  0.80377  0.37908  1.0000
  H   H1270     1.0  0.65171  0.78365  0.24042  1.0000
  H   H1271     1.0  0.61535  0.99454  0.44363  1.0000
  H   H1272     1.0  0.33213  0.78722  0.32754  1.0000
  H   H1273     1.0  0.34664  0.98735  0.27770  1.0000
  H   H1274     1.0  0.64708  0.85614  0.42173  1.0000
  H   H1275     1.0  0.46865  0.98664  0.45069  1.0000
  H   H1276     1.0  0.33620  0.95228  0.30406  1.0000
  H   H1277     1.0  0.63297  0.77264  0.21228  1.0000
  H   H1278     1.0  0.57987  0.96661  0.45724  1.0000
  H   H1279     1.0  0.64720  0.79587  0.39004  1.0000
  C   C798      1.0  0.44567  0.71103  0.43848  1.0000
  H   H1280     1.0  0.50960  0.81645  0.45516  1.0000
  H   H1281     1.0  0.56343  0.78538  0.45866  1.0000
  H   H1282     1.0  0.62404  0.70728  0.45535  1.0000
  C   C799      1.0  0.53194  0.82904  0.45932  1.0000
  H   H1283     1.0  0.32698  0.99415  0.31131  1.0000
  C   C800      1.0  0.41234  0.66517  0.42926  1.0000
  H   H1284     1.0  0.32686  0.69379  0.33926  1.0000
  H   H1285     1.0  0.46597  0.70007  0.54012  1.0000
  S   S317      1.0  0.62939  0.80579  0.46783  1.0000
  H   H1286     1.0  0.35149  0.78845  0.48443  1.0000
  H   H1287     1.0  0.37922  0.99232  0.55346  1.0000
  C   C801      1.0  0.56032  0.87967  0.46600  1.0000
  C   C802      1.0  0.40347  0.73944  0.56587  1.0000
  C   C803      1.0  0.39384  0.73323  0.62338  1.0000
  C   C804      1.0  0.64424  0.94199  0.56144  1.0000
  C   C805      1.0  0.39993  0.70761  0.58169  1.0000
  C   C806      1.0  0.39553  0.70450  0.61048  1.0000
  H   H1288     1.0  0.40120  0.68541  0.57178  1.0000
  S   S318      1.0  0.48920  0.74401  0.65640  1.0000
  H   H1289     1.0  0.61756  0.96386  0.47341  1.0000
  Fe  Fe161     1.0  0.44391  0.70881  0.66490  1.0000
  S   S319      1.0  0.39301  0.72969  0.65889  1.0000
  H   H1290     1.0  0.47788  0.76080  0.53745  1.0000
  H   H1291     1.0  0.38152  0.79189  0.68598  1.0000
  H   H1292     1.0  0.49913  0.67337  0.52758  1.0000
  Fe  Fe162     1.0  0.37159  0.85264  0.48762  1.0000
  C   C807      1.0  0.63537  0.76577  0.56501  1.0000
  S   S320      1.0  0.46869  0.66970  0.64126  1.0000
  S   S321      1.0  0.40422  0.89479  0.49596  1.0000
  S   S322      1.0  0.36753  0.82690  0.53081  1.0000
  Fe  Fe163     1.0  0.44783  0.86213  0.48281  1.0000
  H   H1293     1.0  0.52003  0.85693  0.69094  1.0000
  Fe  Fe164     1.0  0.41312  0.79904  0.51504  1.0000
  H   H1294     1.0  0.41289  0.67040  0.48231  1.0000
  S   S323      1.0  0.41026  0.74383  0.52984  1.0000
  S   S324      1.0  0.45113  0.83481  0.52476  1.0000
  H   H1295     1.0  0.35370  0.95230  0.52565  1.0000
  H   H1296     1.0  0.50358  0.70875  0.48198  1.0000
  Fe  Fe165     1.0  0.40556  0.86478  0.53770  1.0000
  H   H1297     1.0  0.47183  0.73649  0.49500  1.0000
  H   H1298     1.0  0.62037  0.99013  0.56081  1.0000
  S   S325      1.0  0.40270  0.87944  0.58010  1.0000
  C   C808      1.0  0.63070  0.96943  0.57329  1.0000
  C   C809      1.0  0.46514  0.92362  0.62212  1.0000
  C   C810      1.0  0.44246  0.90085  0.61486  1.0000
  C   C811      1.0  0.43706  0.90243  0.58748  1.0000
  C   C812      1.0  0.45622  0.92532  0.56708  1.0000
  H   H1299     1.0  0.40599  0.79260  0.56714  1.0000
  H   H1300     1.0  0.42781  0.88307  0.63068  1.0000
  H   H1301     1.0  0.41519  0.82297  0.67829  1.0000
  S   S326      1.0  0.41560  0.82257  0.47118  1.0000
  C   C813      1.0  0.39689  0.76493  0.60755  1.0000
  H   H1302     1.0  0.39377  0.67989  0.62274  1.0000
  Fe  Fe166     1.0  0.52748  0.93128  0.70619  1.0000
  H   H1303     1.0  0.39656  0.78720  0.61737  1.0000
  S   S327      1.0  0.53363  0.67690  0.67423  1.0000
  H   H1304     1.0  0.46796  0.92330  0.64344  1.0000
  C   C814      1.0  0.40214  0.76798  0.57890  1.0000
  H   H1305     1.0  0.45221  0.92673  0.54590  1.0000
  H   H1306     1.0  0.51800  0.77892  0.51982  1.0000
  C   C815      1.0  0.39683  0.68870  0.47114  1.0000
  C   C816      1.0  0.47800  0.94881  0.57446  1.0000
  C   C817      1.0  0.58139  0.83785  0.58875  1.0000
  C   C818      1.0  0.39332  0.98239  0.57045  1.0000
  C   C819      1.0  0.56560  0.98775  0.50614  1.0000
  C   C820      1.0  0.58530  0.73745  0.59295  1.0000
  C   C821      1.0  0.48170  0.94864  0.60206  1.0000
  H   H1307     1.0  0.60799  0.84799  0.58647  1.0000
  C   C822      1.0  0.49407  0.69664  0.53690  1.0000
  H   H1308     1.0  0.55550  0.70020  0.50192  1.0000
  H   H1309     1.0  0.61270  0.87461  0.47266  1.0000
  H   H1310     1.0  0.39562  0.71164  0.48122  1.0000
  H   H1311     1.0  0.37055  0.67760  0.47419  1.0000
  C   C823      1.0  0.59622  0.74613  0.61655  1.0000
  C   C824      1.0  0.50567  0.75610  0.53291  1.0000
  H   H1312     1.0  0.55832  0.71068  0.53484  1.0000
  N   N84       1.0  0.51210  0.72599  0.51933  1.0000
  C   C825      1.0  0.54918  0.71982  0.51507  1.0000
  C   C826      1.0  0.39314  0.81293  0.69396  1.0000
  Fe  Fe167     1.0  0.51546  0.70279  0.63621  1.0000
  S   S328      1.0  0.54790  0.71343  0.59478  1.0000
  H   H1313     1.0  0.59713  0.74087  0.54892  1.0000
  S   S329      1.0  0.64488  0.94476  0.65254  1.0000
  H   H1314     1.0  0.58112  0.73858  0.63649  1.0000
  H   H1315     1.0  0.51579  0.75318  0.55280  1.0000
  H   H1316     1.0  0.56379  0.86640  0.54049  1.0000
  H   H1317     1.0  0.56425  0.74281  0.50504  1.0000
  H   H1318     1.0  0.33022  0.98145  0.62490  1.0000
  S   S330      1.0  0.50369  0.98215  0.61123  1.0000
  H   H1319     1.0  0.54394  0.97340  0.50118  1.0000
  H   H1320     1.0  0.42015  0.99215  0.56473  1.0000
  H   H1321     1.0  0.50230  0.69239  0.55755  1.0000
  S   S331      1.0  0.49853  0.97765  0.69396  1.0000
  H   H1322     1.0  0.58142  0.96977  0.51776  1.0000
  H   H1323     1.0  0.33212  0.89345  0.53821  1.0000
  S   S332      1.0  0.64289  0.84624  0.52872  1.0000
  C   C827      1.0  0.59132  0.82772  0.46642  1.0000
  C   C828      1.0  0.62715  0.76422  0.61429  1.0000
  H   H1324     1.0  0.63576  0.77087  0.63246  1.0000
  H   H1325     1.0  0.62043  0.99161  0.61040  1.0000
  H   H1326     1.0  0.65047  0.77289  0.54500  1.0000
  H   H1327     1.0  0.58112  0.81989  0.57381  1.0000
  C   C829      1.0  0.55881  0.88850  0.60423  1.0000
  H   H1328     1.0  0.51293  0.75285  0.47855  1.0000
  C   C830      1.0  0.64491  0.94399  0.61746  1.0000
  C   C831      1.0  0.56485  0.88330  0.55614  1.0000
  C   C832      1.0  0.49958  0.73127  0.49253  1.0000
  C   C833      1.0  0.52176  0.85044  0.58846  1.0000
  H   H1329     1.0  0.58489  0.89988  0.60182  1.0000
  H   H1330     1.0  0.51934  0.83244  0.57389  1.0000
  H   H1331     1.0  0.54086  0.90959  0.60146  1.0000
  Fe  Fe168     1.0  0.52480  0.97451  0.65127  1.0000
  S   S333      1.0  0.54975  0.92593  0.66316  1.0000
  Fe  Fe169     1.0  0.59236  0.95870  0.66980  1.0000
  H   H1332     1.0  0.59094  0.89478  0.55247  1.0000
  H   H1333     1.0  0.57561  0.82321  0.60973  1.0000
  H   H1334     1.0  0.54668  0.90399  0.55228  1.0000
  H   H1335     1.0  0.50258  0.87027  0.58515  1.0000
  C   C834      1.0  0.60499  0.74738  0.56728  1.0000
  H   H1336     1.0  0.37396  0.83306  0.69527  1.0000
  C   C835      1.0  0.63071  0.97026  0.60136  1.0000
  H   H1337     1.0  0.52627  0.79602  0.68743  1.0000
  H   H1338     1.0  0.55264  0.87559  0.62575  1.0000
  H   H1339     1.0  0.51452  0.83676  0.60966  1.0000
  N   N85       1.0  0.55671  0.86500  0.58438  1.0000
  S   S334      1.0  0.64510  0.94125  0.52619  1.0000
  C   C836      1.0  0.64660  0.77417  0.58842  1.0000
  H   H1340     1.0  0.49079  0.96816  0.55887  1.0000
  H   H1341     1.0  0.40004  0.95276  0.62157  1.0000
  N   N86       1.0  0.37709  0.99188  0.59685  1.0000
  S   S335      1.0  0.45525  0.68398  0.70554  1.0000
  C   C837      1.0  0.65697  0.91507  0.57787  1.0000
  C   C838      1.0  0.59024  0.86178  0.46905  1.0000
  H   H1342     1.0  0.41854  0.75295  0.71070  1.0000
  H   H1343     1.0  0.39363  0.95469  0.57122  1.0000
  C   C839      1.0  0.33060  0.78471  0.47350  1.0000
  Fe  Fe170     1.0  0.50320  0.71551  0.69505  1.0000
  C   C840      1.0  0.39827  0.98052  0.61836  1.0000
  H   H1344     1.0  0.34417  0.94803  0.60576  1.0000
  C   C841      1.0  0.34279  0.97584  0.60462  1.0000
  H   H1345     1.0  0.33445  0.76197  0.53673  1.0000
  H   H1346     1.0  0.42479  0.99113  0.61272  1.0000
  H   H1347     1.0  0.33529  0.73111  0.47920  1.0000
  C   C842      1.0  0.60034  0.98170  0.46305  1.0000
  H   H1348     1.0  0.63983  0.69258  0.60712  1.0000
  H   H1349     1.0  0.55976  0.90623  0.46722  1.0000
  C   C843      1.0  0.56226  0.81145  0.46138  1.0000
  H   H1350     1.0  0.38748  0.98811  0.63843  1.0000
  C   C844      1.0  0.53113  0.86327  0.46132  1.0000
  H   H1351     1.0  0.45221  0.78403  0.70289  1.0000
  C   C845      1.0  0.51953  0.80405  0.70729  1.0000
  C   C846      1.0  0.32738  0.94721  0.53489  1.0000
  C   C847      1.0  0.51627  0.83851  0.70928  1.0000
  C   C848      1.0  0.65798  0.91636  0.60569  1.0000
  C   C849      1.0  0.65321  0.66826  0.60870  1.0000
  H   H1352     1.0  0.50466  0.99534  0.82062  1.0000
  S   S336      1.0  0.33277  0.93036  0.75628  1.0000
  S   S337      1.0  0.57303  0.95919  0.71434  1.0000
  C   C850      1.0  0.48820  0.99804  0.80422  1.0000
  H   H1353     1.0  0.47257  0.95378  0.75420  1.0000
  H   H1354     1.0  0.42849  0.82221  0.75073  1.0000
  H   H1355     1.0  0.34993  0.90007  0.95809  1.0000
  H   H1356     1.0  0.38097  0.86092  0.87158  1.0000
  H   H1357     1.0  0.60230  0.82500  0.95384  1.0000
  H   H1358     1.0  0.34159  0.76081  0.89756  1.0000
  C   C851      1.0  0.50251  0.82489  0.75869  1.0000
  N   N87       1.0  0.49113  0.96905  0.78905  1.0000
  H   H1359     1.0  0.41427  0.81296  0.85684  1.0000
  S   S338      1.0  0.37436  0.93625  0.80796  1.0000
  Fe  Fe171     1.0  0.34458  0.89652  0.79362  1.0000
  C   C852      1.0  0.39024  0.79760  0.86196  1.0000
  S   S339      1.0  0.35795  0.84174  0.79602  1.0000
  C   C853      1.0  0.47879  0.93814  0.80779  1.0000
  C   C854      1.0  0.50667  0.79080  0.75677  1.0000
  H   H1360     1.0  0.32861  0.69539  0.92156  1.0000
  H   H1361     1.0  0.54388  0.96158  0.79373  1.0000
  H   H1362     1.0  0.36762  0.81448  0.92681  1.0000
  C   C855      1.0  0.41938  0.83008  0.73068  1.0000
  C   C856      1.0  0.42940  0.77487  0.71802  1.0000
  H   H1363     1.0  0.38127  0.77989  0.76165  1.0000
  C   C857      1.0  0.35752  0.90911  0.93652  1.0000
  C   C858      1.0  0.39069  0.90404  0.92383  1.0000
  C   C859      1.0  0.40093  0.91763  0.89633  1.0000
  C   C860      1.0  0.37747  0.93492  0.88121  1.0000
  H   H1364     1.0  0.42675  0.91425  0.88660  1.0000
  H   H1365     1.0  0.38556  0.94577  0.86014  1.0000
  H   H1366     1.0  0.36197  0.76638  0.73446  1.0000
  H   H1367     1.0  0.50750  0.66636  0.76243  1.0000
  Fe  Fe172     1.0  0.35768  0.97142  0.77321  1.0000
  H   H1368     1.0  0.65268  0.71376  0.94339  1.0000
  C   C861      1.0  0.51499  0.78020  0.73115  1.0000
  H   H1369     1.0  0.57084  0.67464  0.72023  1.0000
  C   C862      1.0  0.52722  0.96526  0.77747  1.0000
  S   S340      1.0  0.41862  0.87890  0.94170  1.0000
  H   H1370     1.0  0.50324  0.77255  0.77526  1.0000
  H   H1371     1.0  0.45160  0.94018  0.81698  1.0000
  H   H1372     1.0  0.40063  0.85031  0.73382  1.0000
  H   H1373     1.0  0.44168  0.84130  0.71586  1.0000
  C   C863      1.0  0.33399  0.92605  0.92135  1.0000
  H   H1374     1.0  0.65640  0.85547  0.90872  1.0000
  H   H1375     1.0  0.49573  0.83271  0.77864  1.0000
  C   C864      1.0  0.62769  0.75621  0.92393  1.0000
  C   C865      1.0  0.61342  0.78757  0.92704  1.0000
  N   N88       1.0  0.36703  0.80891  0.88478  1.0000
  C   C866      1.0  0.35789  0.84422  0.87681  1.0000
  H   H1376     1.0  0.53707  0.98789  0.76275  1.0000
  S   S341      1.0  0.51976  0.73694  0.73015  1.0000
  H   H1377     1.0  0.48046  0.91600  0.79662  1.0000
  H   H1378     1.0  0.39723  0.77090  0.86722  1.0000
  H   H1379     1.0  0.56665  0.68943  0.75268  1.0000
  H   H1380     1.0  0.49411  0.93280  0.82487  1.0000
  H   H1381     1.0  0.37820  0.79979  0.84302  1.0000
  H   H1382     1.0  0.44280  0.97663  0.77465  1.0000
  C   C867      1.0  0.61362  0.80095  0.95152  1.0000
  C   C868      1.0  0.64204  0.73815  0.94550  1.0000
  H   H1383     1.0  0.34444  0.84714  0.85849  1.0000
  H   H1384     1.0  0.60198  0.80142  0.91047  1.0000
  C   C869      1.0  0.50769  0.84891  0.73509  1.0000
  N   N89       1.0  0.40400  0.80154  0.72092  1.0000
  C   C870      1.0  0.34379  0.93851  0.89356  1.0000
  S   S342      1.0  0.62586  0.73972  0.89338  1.0000
  S   S343      1.0  0.50108  0.89127  0.73891  1.0000
  H   H1385     1.0  0.39110  0.77970  0.91620  1.0000
  H   H1386     1.0  0.34086  0.85379  0.89377  1.0000
  C   C871      1.0  0.37404  0.78820  0.74097  1.0000
  H   H1387     1.0  0.53033  0.94314  0.76639  1.0000
  H   H1388     1.0  0.43851  0.76570  0.73786  1.0000
  H   H1389     1.0  0.40812  0.82195  0.90546  1.0000
  C   C872      1.0  0.47033  0.97473  0.76658  1.0000
  C   C873      1.0  0.38438  0.80615  0.90929  1.0000
  C   C874      1.0  0.57390  0.66737  0.74211  1.0000
  H   H1390     1.0  0.34045  0.77234  0.81917  1.0000
  H   H1391     1.0  0.35424  0.80763  0.74350  1.0000
  C   C875      1.0  0.33569  0.78760  0.89109  1.0000
  S   S344      1.0  0.32760  0.74903  0.95963  1.0000
  S   S345      1.0  0.77561  0.24094  0.12956  1.0000
  H   H1392     1.0  0.68846  0.29313  0.06780  1.0000
  S   S346      1.0  0.83478  0.22185  0.99613  1.0000
  H   H1393     1.0  0.94299  0.11036  0.13269  1.0000
  H   H1394     1.0  0.74386  0.07070  0.07755  1.0000
  H   H1395     1.0  0.72762  0.29513  0.13059  1.0000
  H   H1396     1.0  0.90531  0.08903  0.09093  1.0000
  Fe  Fe173     1.0  0.92314  0.10127  0.98169  1.0000
  Fe  Fe174     1.0  0.88212  0.13574  0.02685  1.0000
  S   S347      1.0  0.83241  0.12878  0.01177  1.0000
  S   S348      1.0  0.88765  0.15477  0.06675  1.0000
  Fe  Fe175     1.0  0.85078  0.07733  0.00695  1.0000
  C   C876      1.0  0.72349  0.01019  0.14331  1.0000
  S   S349      1.0  0.72641  0.00960  0.19829  1.0000
  S   S350      1.0  0.89886  0.08242  0.02496  1.0000
  S   S351      1.0  0.91074  0.15516  0.98485  1.0000
  S   S352      1.0  0.68090  0.22773  0.05013  1.0000
  C   C877      1.0  0.96944  0.10665  0.06493  1.0000
  H   H1397     1.0  0.76636  0.15285  0.09372  1.0000
  H   H1398     1.0  0.85950  0.00059  0.10262  1.0000
  C   C878      1.0  0.79180  0.22229  0.01112  1.0000
  S   S353      1.0  0.81239  0.03480  0.01746  1.0000
  H   H1399     1.0  0.84335  0.13578  0.15908  1.0000
  C   C879      1.0  0.72380  0.22385  0.03659  1.0000
  C   C880      1.0  0.73575  0.19533  0.02546  1.0000
  C   C881      1.0  0.76962  0.19492  0.01209  1.0000
  H   H1400     1.0  0.84858  0.04161  0.06279  1.0000
  N   N90       1.0  0.95863  0.09259  0.09410  1.0000
  H   H1401     1.0  0.71863  0.17426  0.02619  1.0000
  H   H1402     1.0  0.77867  0.04829  0.09054  1.0000
  C   C882      1.0  0.82803  0.19060  0.07236  1.0000
  C   C883      1.0  0.85647  0.17884  0.08406  1.0000
  C   C884      1.0  0.85945  0.18496  0.11068  1.0000
  C   C885      1.0  0.83422  0.20282  0.12539  1.0000
  H   H1403     1.0  0.82551  0.18594  0.05195  1.0000
  H   H1404     1.0  0.88134  0.17580  0.11999  1.0000
  C   C886      1.0  0.92662  0.07280  0.09678  1.0000
  C   C887      1.0  0.83801  0.01648  0.06561  1.0000
  H   H1405     1.0  0.81747  0.17284  0.19179  1.0000
  C   C888      1.0  0.77114  0.07292  0.08009  1.0000
  C   C889      1.0  0.95291  0.12009  0.11083  1.0000
  C   C890      1.0  0.81362  0.10327  0.09722  1.0000
  H   H1406     1.0  0.82888  0.10966  0.07644  1.0000
  Fe  Fe176     1.0  0.86129  0.26415  0.00967  1.0000
  H   H1407     1.0  0.78185  0.21896  0.07718  1.0000
  H   H1408     1.0  0.70131  0.32098  0.97466  1.0000
  C   C891      1.0  0.96507  0.24678  0.08051  1.0000
  H   H1409     1.0  0.94827  0.22906  0.04588  1.0000
  C   C892      1.0  0.77957  0.25040  0.02254  1.0000
  H   H1410     1.0  0.76522  0.06893  0.13476  1.0000
  H   H1411     1.0  0.95040  0.12436  0.05706  1.0000
  C   C893      1.0  0.76472  0.13207  0.08160  1.0000
  C   C894      1.0  0.75773  0.09324  0.12377  1.0000
  C   C895      1.0  0.80627  0.21548  0.11324  1.0000
  H   H1412     1.0  0.76257  0.11306  0.13619  1.0000
  C   C896      1.0  0.80327  0.20917  0.08676  1.0000
  H   H1413     1.0  0.78004  0.13967  0.06097  1.0000
  H   H1414     1.0  0.95536  0.03419  0.00314  1.0000
  H   H1415     1.0  0.93396  0.13813  0.10324  1.0000
  C   C897      1.0  0.96588  0.22548  0.06064  1.0000
  N   N91       1.0  0.77681  0.10037  0.09565  1.0000
  H   H1416     1.0  0.82355  0.07945  0.10719  1.0000
  H   H1417     1.0  0.73754  0.12986  0.07864  1.0000
  H   H1418     1.0  0.78615  0.07726  0.05908  1.0000
  H   H1419     1.0  0.92944  0.05276  0.08352  1.0000
  S   S354      1.0  0.85034  0.27306  0.05334  1.0000
  H   H1420     1.0  0.98436  0.20261  0.20531  1.0000
  H   H1421     1.0  0.81882  0.12317  0.10942  1.0000
  S   S355      1.0  0.74360  0.19243  0.20181  1.0000
  H   H1422     1.0  0.98661  0.25731  0.11566  1.0000
  H   H1423     1.0  0.83696  0.20750  0.14578  1.0000
  C   C898      1.0  0.68350  0.04326  0.11820  1.0000
  C   C899      1.0  0.70997  0.02014  0.11893  1.0000
  C   C900      1.0  0.74569  0.25139  0.03485  1.0000
  H   H1424     1.0  0.72979  0.09223  0.12344  1.0000
  H   H1425     1.0  0.84797  0.27863  0.10997  1.0000
  C   C901      1.0  0.81799  0.00713  0.04697  1.0000
  C   C902      1.0  0.86055  0.09974  0.19023  1.0000
  H   H1426     1.0  0.87766  0.00729  0.00806  1.0000
  H   H1427     1.0  0.77857  0.17355  0.00249  1.0000
  H   H1428     1.0  0.79270  0.30660  0.15019  1.0000
  S   S356      1.0  0.87644  0.09119  0.96353  1.0000
  H   H1429     1.0  0.91859  0.06056  0.11830  1.0000
  H   H1430     1.0  0.66157  0.32078  0.08600  1.0000
  H   H1431     1.0  0.67218  0.23100  0.11004  1.0000
  H   H1432     1.0  0.72083  0.01073  0.10030  1.0000
  H   H1433     1.0  0.84282  0.26934  0.14650  1.0000
  Fe  Fe177     1.0  0.83785  0.32500  0.03560  1.0000
  C   C903      1.0  0.82997  0.15024  0.19928  1.0000
  H   H1434     1.0  0.73581  0.30015  0.09391  1.0000
  H   H1435     1.0  0.67161  0.20612  0.18178  1.0000
  H   H1436     1.0  0.88310  0.28534  0.12746  1.0000
  Fe  Fe178     1.0  0.85293  0.02209  0.17828  1.0000
  S   S357      1.0  0.81306  0.01102  0.15333  1.0000
  N   N92       1.0  0.68495  0.28247  0.11169  1.0000
  Fe  Fe179     1.0  0.76529  0.23974  0.17550  1.0000
  C   C904      1.0  0.70971  0.02211  0.16749  1.0000
  C   C905      1.0  0.68244  0.04443  0.16705  1.0000
  C   C906      1.0  0.68739  0.03939  0.96642  1.0000
  H   H1437     1.0  0.97685  0.13469  0.11024  1.0000
  C   C907      1.0  0.69272  0.09315  0.98143  1.0000
  H   H1438     1.0  0.71508  0.24375  0.09501  1.0000
  C   C908      1.0  0.84472  0.12934  0.18074  1.0000
  Fe  Fe180     1.0  0.86209  0.14358  0.96955  1.0000
  H   H1439     1.0  0.66311  0.29571  0.98545  1.0000
  H   H1440     1.0  0.97842  0.05991  0.12595  1.0000
  C   C909      1.0  0.69144  0.29473  0.98111  1.0000
  S   S358      1.0  0.87778  0.07322  0.16690  1.0000
  H   H1441     1.0  0.69778  0.22763  0.98859  1.0000
  H   H1442     1.0  0.70033  0.28508  0.00090  1.0000
  C   C910      1.0  0.85489  0.28733  0.12863  1.0000
  S   S359      1.0  0.84606  0.31511  0.99214  1.0000
  Fe  Fe181     1.0  0.90474  0.29082  0.04739  1.0000
  H   H1443     1.0  0.73675  0.27372  0.04306  1.0000
  S   S360      1.0  0.91729  0.27730  0.00487  1.0000
  S   S361      1.0  0.93714  0.28090  0.08129  1.0000
  Fe  Fe182     1.0  0.90053  0.32961  0.99174  1.0000
  C   C911      1.0  0.66962  0.05534  0.14238  1.0000
  C   C912      1.0  0.98929  0.19919  0.06003  1.0000
  H   H1444     1.0  0.75061  0.26219  0.97418  1.0000
  C   C913      1.0  0.65977  0.28567  0.13621  1.0000
  H   H1445     1.0  0.97294  0.08667  0.05162  1.0000
  C   C914      1.0  0.71588  0.30292  0.11178  1.0000
  C   C915      1.0  0.68877  0.23883  0.96932  1.0000
  H   H1446     1.0  0.70369  0.23652  0.13154  1.0000
  S   S362      1.0  0.72488  0.27304  0.19378  1.0000
  C   C916      1.0  0.97471  0.02536  0.98829  1.0000
  C   C917      1.0  0.69429  0.24689  0.11212  1.0000
  H   H1447     1.0  0.79600  0.27173  0.02189  1.0000
  H   H1448     1.0  0.71019  0.33007  0.11072  1.0000
  C   C918      1.0  0.66982  0.29433  0.08666  1.0000
  H   H1449     1.0  0.67177  0.05387  0.18569  1.0000
  H   H1450     1.0  0.84112  0.31594  0.17451  1.0000
  S   S363      1.0  0.80287  0.25096  0.20275  1.0000
  H   H1451     1.0  0.79791  0.31485  0.11335  1.0000
  H   H1452     1.0  0.67181  0.01596  0.96842  1.0000
  C   C919      1.0  0.98565  0.07076  0.10394  1.0000
  H   H1453     1.0  0.67031  0.27674  0.15546  1.0000
  H   H1454     1.0  0.98981  0.18305  0.04446  1.0000
  H   H1455     1.0  0.71895  0.08741  0.98608  1.0000
  H   H1456     1.0  0.68154  0.11098  0.99518  1.0000
  C   C920      1.0  0.80598  0.32314  0.13186  1.0000
  H   H1457     1.0  0.97900  0.15808  0.20655  1.0000
  S   S364      1.0  0.67017  0.05815  0.08642  1.0000
  N   N93       1.0  0.84349  0.32192  0.13064  1.0000
  C   C921      1.0  0.98735  0.24117  0.10005  1.0000
  C   C922      1.0  0.98875  0.04728  0.96492  1.0000
  H   H1458     1.0  0.71336  0.03208  0.97084  1.0000
  N   N94       1.0  0.67140  0.06231  0.98502  1.0000
  H   H1459     1.0  0.69400  0.03874  0.01960  1.0000
  H   H1460     1.0  0.66042  0.23855  0.97387  1.0000
  H   H1461     1.0  0.99064  0.04964  0.09189  1.0000
  C   C923      1.0  0.66850  0.04562  0.01380  1.0000
  H   H1462     1.0  0.75497  0.06907  0.21021  1.0000
  H   H1463     1.0  0.69128  0.07260  0.27215  1.0000
  C   C924      1.0  0.75351  0.09795  0.27113  1.0000
  H   H1464     1.0  0.73755  0.03262  0.28473  1.0000
  S   S365      1.0  0.95316  0.24469  0.33769  1.0000
  H   H1465     1.0  0.77913  0.03738  0.26487  1.0000
  C   C925      1.0  0.76316  0.08449  0.22493  1.0000
  H   H1466     1.0  0.70031  0.10366  0.24213  1.0000
  Fe  Fe183     1.0  0.77896  0.20540  0.23010  1.0000
  S   S366      1.0  0.95333  0.27716  0.41019  1.0000
  H   H1467     1.0  0.74412  0.02227  0.25052  1.0000
  C   C926      1.0  0.75143  0.04034  0.26365  1.0000
  N   N95       1.0  0.74369  0.07520  0.25276  1.0000
  S   S367      1.0  0.73986  0.23419  0.25390  1.0000
  S   S368      1.0  0.76670  0.32519  0.24380  1.0000
  C   C927      1.0  0.70674  0.07802  0.25137  1.0000
  H   H1468     1.0  0.68163  0.29210  0.44384  1.0000
  H   H1469     1.0  0.78234  0.27243  0.28479  1.0000
  H   H1470     1.0  0.78133  0.09671  0.27236  1.0000
  H   H1471     1.0  0.73971  0.09122  0.29244  1.0000
  C   C928      1.0  0.86215  0.09136  0.21830  1.0000
  C   C929      1.0  0.84803  0.11264  0.23681  1.0000
  C   C930      1.0  0.83151  0.14189  0.22735  1.0000
  H   H1472     1.0  0.87441  0.06850  0.22572  1.0000
  H   H1473     1.0  0.84931  0.10606  0.25849  1.0000
  Fe  Fe184     1.0  0.70690  0.22648  0.22257  1.0000
  H   H1474     1.0  0.76174  0.00842  0.43095  1.0000
  S   S369      1.0  0.81126  0.16686  0.25086  1.0000
  H   H1475     1.0  0.69820  0.05995  0.23869  1.0000
  H   H1476     1.0  0.74793  0.12452  0.26373  1.0000
  H   H1477     1.0  0.85065  0.26535  0.32881  1.0000
  S   S370      1.0  0.72142  0.03699  0.34260  1.0000
  H   H1478     1.0  0.73909  0.09517  0.36541  1.0000
  S   S371      1.0  0.96527  0.08241  0.45422  1.0000
  H   H1479     1.0  0.75992  0.11135  0.21679  1.0000
  Fe  Fe185     1.0  0.67748  0.00659  0.33434  1.0000
  H   H1480     1.0  0.87270  0.29786  0.25494  1.0000
  C   C931      1.0  0.81737  0.04670  0.40920  1.0000
  C   C932      1.0  0.84499  0.29887  0.26293  1.0000
  H   H1481     1.0  0.79324  0.30552  0.30230  1.0000
  C   C933      1.0  0.68091  0.24318  0.38881  1.0000
  H   H1482     1.0  0.68515  0.16310  0.33260  1.0000
  H   H1483     1.0  0.78219  0.01053  0.38109  1.0000
  H   H1484     1.0  0.93591  0.15491  0.43488  1.0000
  Fe  Fe186     1.0  0.93237  0.04585  0.43954  1.0000
  Fe  Fe187     1.0  0.76010  0.27917  0.22402  1.0000
  C   C934      1.0  0.84149  0.24058  0.28324  1.0000
  C   C935      1.0  0.94468  0.20843  0.42362  1.0000
  C   C936      1.0  0.93335  0.17912  0.44181  1.0000
  H   H1485     1.0  0.79328  0.05869  0.40410  1.0000
  C   C937      1.0  0.72097  0.08460  0.40896  1.0000
  H   H1486     1.0  0.85210  0.30886  0.31404  1.0000
  H   H1487     1.0  0.83057  0.29312  0.24660  1.0000
  H   H1488     1.0  0.86879  0.23687  0.27524  1.0000
  H   H1489     1.0  0.82713  0.00826  0.36901  1.0000
  H   H1490     1.0  0.73003  0.10832  0.41321  1.0000
  C   C938      1.0  0.71431  0.04649  0.37633  1.0000
  H   H1491     1.0  0.95588  0.20671  0.40270  1.0000
  C   C939      1.0  0.94101  0.23984  0.43251  1.0000
  C   C940      1.0  0.72614  0.07711  0.38196  1.0000
  C   C941      1.0  0.70510  0.06092  0.43052  1.0000
  H   H1492     1.0  0.79119  0.26273  0.31934  1.0000
  H   H1493     1.0  0.83436  0.22205  0.30216  1.0000
  C   C942      1.0  0.97565  0.01163  0.39078  1.0000
  C   C943      1.0  0.69765  0.02322  0.39781  1.0000
  S   S372      1.0  0.94105  0.03871  0.39527  1.0000
  S   S373      1.0  0.71057  0.23436  0.41154  1.0000
  H   H1494     1.0  0.82284  0.05517  0.42841  1.0000
  Fe  Fe188     1.0  0.69550  0.19551  0.44839  1.0000
  S   S374      1.0  0.95692  0.31343  0.26969  1.0000
  Fe  Fe189     1.0  0.97803  0.28729  0.30696  1.0000
  C   C944      1.0  0.96296  0.17371  0.25748  1.0000
  C   C945      1.0  0.69367  0.03016  0.42490  1.0000
  H   H1495     1.0  0.85374  0.00185  0.43814  1.0000
  C   C946      1.0  0.85659  0.28295  0.30923  1.0000
  H   H1496     1.0  0.96382  0.16987  0.28000  1.0000
  C   C947      1.0  0.69183  0.26296  0.36355  1.0000
  H   H1497     1.0  0.71806  0.27196  0.35837  1.0000
  H   H1498     1.0  0.86883  0.00371  0.40216  1.0000
  H   H1499     1.0  0.87029  0.30023  0.44415  1.0000
  N   N96       1.0  0.83551  0.27535  0.28870  1.0000
  H   H1500     1.0  0.82605  0.23411  0.26770  1.0000
  C   C948      1.0  0.66914  0.27088  0.34474  1.0000
  Fe  Fe190     1.0  0.97768  0.26794  0.36849  1.0000
  N   N97       1.0  0.81449  0.00973  0.41236  1.0000
  H   H1501     1.0  0.90591  0.32357  0.45063  1.0000
  S   S375      1.0  0.66878  0.00270  0.29131  1.0000
  C   C949      1.0  0.79902  0.27910  0.29935  1.0000
  H   H1502     1.0  0.88437  0.28116  0.30162  1.0000
  H   H1503     1.0  0.83845  0.05660  0.39253  1.0000
  H   H1504     1.0  0.95081  0.19828  0.25231  1.0000
  H   H1505     1.0  0.67804  0.28573  0.32499  1.0000
  H   H1506     1.0  0.83919  0.32528  0.26593  1.0000
  H   H1507     1.0  0.79090  0.08042  0.22488  1.0000
  H   H1508     1.0  0.94592  0.15371  0.25338  1.0000
  C   C950      1.0  0.87768  0.32385  0.45108  1.0000
  S   S376      1.0  0.81960  0.00684  0.21855  1.0000
  H   H1509     1.0  0.68176  0.01160  0.44155  1.0000
  H   H1510     1.0  0.79176  0.00478  0.45481  1.0000
  H   H1511     1.0  0.67676  0.32501  0.39911  1.0000
  C   C951      1.0  0.80665  0.99967  0.38654  1.0000
  H   H1512     1.0  0.66059  0.19885  0.33982  1.0000
  H   H1513     1.0  0.68861  0.99946  0.39364  1.0000
  C   C952      1.0  0.66009  0.17098  0.34275  1.0000
  C   C953      1.0  0.92667  0.24182  0.45959  1.0000
  Fe  Fe191     1.0  0.71558  0.17436  0.50462  1.0000
  S   S377      1.0  0.80681  0.31733  0.56162  1.0000
  H   H1514     1.0  0.92478  0.26588  0.46665  1.0000
  S   S378      1.0  0.95475  0.31870  0.58432  1.0000
  C   C954      1.0  0.96509  0.23009  0.53094  1.0000
  S   S379      1.0  0.90232  0.14583  0.49190  1.0000
  S   S380      1.0  0.92279  0.05699  0.51588  1.0000
  C   C955      1.0  0.77060  0.09684  0.54285  1.0000
  S   S381      1.0  0.87441  0.31959  0.61484  1.0000
  C   C956      1.0  0.76681  0.21845  0.54138  1.0000
  C   C957      1.0  0.91795  0.18143  0.46868  1.0000
  H   H1515     1.0  0.94051  0.16672  0.53688  1.0000
  Fe  Fe192     1.0  0.91302  0.28137  0.60260  1.0000
  C   C958      1.0  0.89384  0.25995  0.70188  1.0000
  S   S382      1.0  0.75102  0.17960  0.53551  1.0000
  H   H1516     1.0  0.69277  0.23988  0.58296  1.0000
  S   S383      1.0  0.73572  0.16105  0.46308  1.0000
  H   H1517     1.0  0.72894  0.21929  0.71096  1.0000
  H   H1518     1.0  0.80836  0.33043  0.49934  1.0000
  H   H1519     1.0  0.85387  0.29880  0.51928  1.0000
  C   C959      1.0  0.93167  0.20862  0.68044  1.0000
  Fe  Fe193     1.0  0.89221  0.02398  0.49556  1.0000
  S   S384      1.0  0.67691  0.13191  0.51468  1.0000
  C   C960      1.0  0.80986  0.12586  0.50485  1.0000
  C   C961      1.0  0.97634  0.19250  0.57080  1.0000
  H   H1520     1.0  0.94855  0.18996  0.57899  1.0000
  C   C962      1.0  0.66307  0.20588  0.70790  1.0000
  C   C963      1.0  0.78922  0.06992  0.50323  1.0000
  H   H1521     1.0  0.90291  0.21467  0.49825  1.0000
  H   H1522     1.0  0.82215  0.05397  0.54690  1.0000
  H   H1523     1.0  0.85091  0.07526  0.51842  1.0000
  H   H1524     1.0  0.81817  0.14373  0.51777  1.0000
  C   C964      1.0  0.80534  0.24852  0.56379  1.0000
  Fe  Fe194     1.0  0.96844  0.04096  0.48894  1.0000
  C   C965      1.0  0.79275  0.21834  0.55775  1.0000
  N   N98       1.0  0.79960  0.09286  0.52126  1.0000
  C   C966      1.0  0.96837  0.17069  0.52947  1.0000
  H   H1525     1.0  0.74807  0.10729  0.53377  1.0000
  H   H1526     1.0  0.94343  0.31778  0.67046  1.0000
  H   H1527     1.0  0.77733  0.11436  0.55664  1.0000
  H   H1528     1.0  0.83155  0.12374  0.48821  1.0000
  H   H1529     1.0  0.80314  0.19479  0.56593  1.0000
  H   H1530     1.0  0.78842  0.13767  0.49519  1.0000
  H   H1531     1.0  0.97020  0.23674  0.50817  1.0000
  H   H1532     1.0  0.66338  0.22212  0.61273  1.0000
  S   S385      1.0  0.68126  0.32754  0.55504  1.0000
  S   S386      1.0  0.67860  0.21191  0.48922  1.0000
  H   H1533     1.0  0.85924  0.27352  0.49236  1.0000
  C   C967      1.0  0.82878  0.07883  0.53419  1.0000
  N   N99       1.0  0.98237  0.19901  0.54044  1.0000
  C   C968      1.0  0.91864  0.23389  0.66272  1.0000
  H   H1534     1.0  0.94627  0.18868  0.67225  1.0000
  C   C969      1.0  0.89933  0.25928  0.67351  1.0000
  S   S387      1.0  0.92822  0.23412  0.62718  1.0000
  H   H1535     1.0  0.98126  0.14682  0.53566  1.0000
  H   H1536     1.0  0.78166  0.04468  0.51498  1.0000
  H   H1537     1.0  0.76707  0.07976  0.49325  1.0000
  H   H1538     1.0  0.68328  0.19139  0.55968  1.0000
  H   H1539     1.0  0.76244  0.07243  0.55573  1.0000
  H   H1540     1.0  0.82506  0.24802  0.57668  1.0000
  H   H1541     1.0  0.81046  0.06622  0.48673  1.0000
  Fe  Fe195     1.0  0.86013  0.31865  0.57279  1.0000
  C   C970      1.0  0.82241  0.32800  0.47859  1.0000
  H   H1542     1.0  0.73382  0.24953  0.51809  1.0000
  Fe  Fe196     1.0  0.93374  0.31907  0.54516  1.0000
  H   H1543     1.0  0.93694  0.22744  0.53695  1.0000
  S   S388      1.0  0.70123  0.06819  0.46479  1.0000
  C   C971      1.0  0.86739  0.29746  0.49832  1.0000
  H   H1544     1.0  0.75486  0.30290  0.52989  1.0000
  H   H1545     1.0  0.83755  0.09583  0.54757  1.0000
  C   C972      1.0  0.76554  0.27927  0.53762  1.0000
  H   H1546     1.0  0.81247  0.30489  0.47249  1.0000
  C   C973      1.0  0.96649  0.31633  0.65494  1.0000
  H   H1547     1.0  0.89517  0.29623  0.49965  1.0000
  S   S389      1.0  0.96755  0.31600  0.50525  1.0000
  C   C974      1.0  0.79162  0.27912  0.55394  1.0000
  C   C975      1.0  0.75349  0.24907  0.53101  1.0000
  C   C976      1.0  0.91471  0.21280  0.47750  1.0000
  Fe  Fe197     1.0  0.91733  0.09583  0.47979  1.0000
  H   H1548     1.0  0.88881  0.27858  0.66010  1.0000
  S   S390      1.0  0.89574  0.27771  0.56246  1.0000
  Fe  Fe198     1.0  0.69394  0.12194  0.47158  1.0000
  H   H1549     1.0  0.97147  0.17530  0.50662  1.0000
  C   C977      1.0  0.92625  0.20931  0.70878  1.0000
  H   H1550     1.0  0.96194  0.29553  0.64341  1.0000
  H   H1551     1.0  0.87939  0.27997  0.71009  1.0000
  N   N100      1.0  0.85968  0.32677  0.47884  1.0000
  S   S391      1.0  0.66135  0.32760  0.63622  1.0000
  H   H1552     1.0  0.97131  0.27793  0.70281  1.0000
  H   H1553     1.0  0.68055  0.18941  0.69643  1.0000
  H   H1554     1.0  0.67399  0.24946  0.53751  1.0000
  H   H1555     1.0  0.97379  0.25170  0.53989  1.0000
  S   S392      1.0  0.93854  0.00317  0.47269  1.0000
  C   C978      1.0  0.66529  0.23793  0.59228  1.0000
  H   H1556     1.0  0.99093  0.25707  0.67525  1.0000
  H   H1557     1.0  0.98651  0.21344  0.57979  1.0000
  H   H1558     1.0  0.98881  0.16909  0.57878  1.0000
  H   H1559     1.0  0.70553  0.25765  0.70882  1.0000
  S   S393      1.0  0.88368  0.06401  0.46114  1.0000
  H   H1560     1.0  0.66222  0.24201  0.76554  1.0000
  C   C979      1.0  0.74043  0.27253  0.95508  1.0000
  H   H1561     1.0  0.69506  0.18910  0.76798  1.0000
  H   H1562     1.0  0.87255  0.30047  0.76902  1.0000
  N   N101      1.0  0.67719  0.21459  0.73189  1.0000
  C   C980      1.0  0.90781  0.23523  0.71948  1.0000
  H   H1563     1.0  0.86426  0.32621  0.89575  1.0000
  H   H1564     1.0  0.69523  0.10646  0.95995  1.0000
  H   H1565     1.0  0.75174  0.29818  0.94815  1.0000
  Fe  Fe199     1.0  0.68942  0.13857  0.86819  1.0000
  S   S394      1.0  0.70888  0.14762  0.82302  1.0000
  C   C981      1.0  0.77534  0.32099  0.81585  1.0000
  H   H1566     1.0  0.72072  0.24094  0.74022  1.0000
  Fe  Fe200     1.0  0.69008  0.19988  0.82479  1.0000
  S   S395      1.0  0.84268  0.17545  0.93410  1.0000
  S   S396      1.0  0.67546  0.19217  0.87051  1.0000
  H   H1567     1.0  0.79859  0.19907  0.89471  1.0000
  C   C982      1.0  0.78924  0.17465  0.90515  1.0000
  N   N102      1.0  0.84002  0.07625  0.86692  1.0000
  S   S397      1.0  0.71571  0.10719  0.89987  1.0000
  H   H1568     1.0  0.79978  0.05104  0.89678  1.0000
  H   H1569     1.0  0.83119  0.12268  0.88283  1.0000
  C   C983      1.0  0.80564  0.15790  0.92616  1.0000
  C   C984      1.0  0.93822  0.03127  0.82023  1.0000
  C   C985      1.0  0.96225  0.08763  0.81513  1.0000
  C   C986      1.0  0.84476  0.09301  0.83810  1.0000
  C   C987      1.0  0.84774  0.10040  0.88490  1.0000
  H   H1570     1.0  0.75269  0.22791  0.84595  1.0000
  H   H1571     1.0  0.74880  0.17229  0.88076  1.0000
  C   C988      1.0  0.91596  0.07632  0.79059  1.0000
  C   C989      1.0  0.79369  0.12618  0.93941  1.0000
  H   H1572     1.0  0.97997  0.04482  0.84002  1.0000
  H   H1573     1.0  0.86012  0.03418  0.89096  1.0000
  C   C990      1.0  0.86333  0.04766  0.86952  1.0000
  H   H1574     1.0  0.93585  0.18943  0.72232  1.0000
  H   H1575     1.0  0.78593  0.08489  0.87358  1.0000
  C   C991      1.0  0.96173  0.05376  0.82660  1.0000
  H   H1576     1.0  0.89053  0.05609  0.86365  1.0000
  H   H1577     1.0  0.84354  0.08891  0.90691  1.0000
  Fe  Fe201     1.0  0.95289  0.22034  0.76910  1.0000
  S   S398      1.0  0.88407  0.01505  0.79577  1.0000
  C   C992      1.0  0.76116  0.15949  0.89719  1.0000
  H   H1578     1.0  0.84050  0.07516  0.82378  1.0000
  H   H1579     1.0  0.90663  0.31691  0.90329  1.0000
  H   H1580     1.0  0.87114  0.10362  0.83160  1.0000
  S   S399      1.0  0.95618  0.20606  0.81372  1.0000
  H   H1581     1.0  0.93545  0.30300  0.75577  1.0000
  H   H1582     1.0  0.88373  0.23173  0.94184  1.0000
  C   C993      1.0  0.89015  0.25907  0.93700  1.0000
  C   C994      1.0  0.74973  0.12745  0.91008  1.0000
  C   C995      1.0  0.83316  0.27165  0.92734  1.0000
  H   H1583     1.0  0.82657  0.28204  0.94690  1.0000
  H   H1584     1.0  0.87473  0.10967  0.87975  1.0000
  C   C996      1.0  0.93931  0.09892  0.79711  1.0000
  C   C997      1.0  0.87433  0.32543  0.77583  1.0000
  C   C998      1.0  0.76615  0.11078  0.93107  1.0000
  H   H1585     1.0  0.74989  0.25645  0.93930  1.0000
  C   C999      1.0  0.80428  0.06396  0.87513  1.0000
  C   C1000     1.0  0.70951  0.23397  0.72251  1.0000
  H   H1586     1.0  0.79753  0.04586  0.86186  1.0000
  H   H1587     1.0  0.93937  0.12507  0.78831  1.0000
  H   H1588     1.0  0.85845  0.02918  0.85593  1.0000
  H   H1589     1.0  0.69896  0.33082  0.84089  1.0000
  H   H1590     1.0  0.82674  0.11403  0.83518  1.0000
  C   C1001     1.0  0.91508  0.04254  0.80247  1.0000
  H   H1591     1.0  0.82568  0.24455  0.93198  1.0000
  H   H1592     1.0  0.89818  0.08516  0.77672  1.0000
  H   H1593     1.0  0.97121  0.14964  0.90842  1.0000
  H   H1594     1.0  0.69917  0.31327  0.92686  1.0000
  H   H1595     1.0  0.69015  0.05121  0.94449  1.0000
  H   H1596     1.0  0.90508  0.26488  0.88199  1.0000
  H   H1597     1.0  0.90987  0.27827  0.80270  1.0000
  S   S400      1.0  0.90443  0.23826  0.75446  1.0000
  H   H1598     1.0  0.87127  0.23427  0.89445  1.0000
  H   H1599     1.0  0.93856  0.00507  0.82846  1.0000
  C   C1002     1.0  0.87757  0.26165  0.89084  1.0000
  C   C1003     1.0  0.93560  0.32785  0.76292  1.0000
  C   C1004     1.0  0.68377  0.18348  0.74993  1.0000
  C   C1005     1.0  0.75885  0.25386  0.83758  1.0000
  C   C1006     1.0  0.91089  0.30374  0.80878  1.0000
  S   S401      1.0  0.98507  0.17824  0.75584  1.0000
  H   H1600     1.0  0.79496  0.25947  0.86518  1.0000
  H   H1601     1.0  0.91806  0.26198  0.92969  1.0000
  H   H1602     1.0  0.93572  0.30633  0.81637  1.0000
  C   C1007     1.0  0.87895  0.31246  0.91115  1.0000
  H   H1603     1.0  0.88476  0.26920  0.95670  1.0000
  S   S402      1.0  0.97436  0.08876  0.95880  1.0000
  H   H1604     1.0  0.81722  0.28417  0.91233  1.0000
  C   C1008     1.0  0.78280  0.27175  0.84843  1.0000
  C   C1009     1.0  0.79109  0.30539  0.83758  1.0000
  H   H1605     1.0  0.86233  0.27362  0.87512  1.0000
  C   C1010     1.0  0.69013  0.28687  0.93411  1.0000
  H   H1606     1.0  0.87340  0.32423  0.93017  1.0000
  H   H1607     1.0  0.88214  0.00843  0.95879  1.0000
  C   C1011     1.0  0.75227  0.30284  0.80447  1.0000
  H   H1608     1.0  0.74091  0.31492  0.78719  1.0000
  H   H1609     1.0  0.67556  0.30737  0.80362  1.0000
  C   C1012     1.0  0.74392  0.26926  0.81527  1.0000
  N   N103      1.0  0.86997  0.27624  0.91657  1.0000
  H   H1610     1.0  0.69627  0.22199  0.95373  1.0000
  H   H1611     1.0  0.75781  0.08574  0.94073  1.0000
  S   S403      1.0  0.71483  0.24741  0.80030  1.0000
  H   H1612     1.0  0.69895  0.27176  0.91750  1.0000
  H   H1613     1.0  0.70190  0.16706  0.73899  1.0000
  H   H1614     1.0  0.67699  0.27273  0.84918  1.0000
  H   H1615     1.0  0.97948  0.14544  0.87257  1.0000
  S   S404      1.0  0.82203  0.32722  0.85068  1.0000
  H   H1616     1.0  0.88999  0.30480  0.82622  1.0000
  H   H1617     1.0  0.80617  0.11315  0.95566  1.0000
  H   H1618     1.0  0.65981  0.16847  0.75776  1.0000
  H   H1619     1.0  0.85241  0.32699  0.79239  1.0000
  C   C1013     1.0  0.99068  0.14215  0.89197  1.0000
  S   S405      1.0  0.99203  0.11524  0.82334  1.0000
  N   N104      1.0  0.70270  0.27324  0.95992  1.0000
  H   H1620     1.0  0.66168  0.28658  0.93705  1.0000
  Fe  Fe202     1.0  0.99254  0.16723  0.79984  1.0000
  N   N105      1.0  0.90730  0.33015  0.78548  1.0000
  C   C1014     1.0  0.76518  0.46780  0.00883  1.0000
  H   H1621     1.0  0.81834  0.42832  0.04398  1.0000
  C   C1015     1.0  0.83021  0.62307  0.20139  1.0000
  H   H1622     1.0  0.93852  0.58913  0.12034  1.0000
  C   C1016     1.0  0.82188  0.44016  0.06154  1.0000
  H   H1623     1.0  0.89407  0.43130  0.01831  1.0000
  H   H1624     1.0  0.85407  0.37138  0.10815  1.0000
  C   C1017     1.0  0.71865  0.38503  0.99167  1.0000
  C   C1018     1.0  0.70454  0.37409  0.01902  1.0000
  C   C1019     1.0  0.72599  0.36216  0.03834  1.0000
  C   C1020     1.0  0.76134  0.36021  0.03021  1.0000
  C   C1021     1.0  0.77514  0.37067  0.00280  1.0000
  C   C1022     1.0  0.75395  0.38321  0.98365  1.0000
  H   H1625     1.0  0.67735  0.37585  0.02542  1.0000
  H   H1626     1.0  0.77809  0.55497  0.20657  1.0000
  C   C1023     1.0  0.67968  0.53065  0.18277  1.0000
  C   C1024     1.0  0.96686  0.59078  0.16533  1.0000
  C   C1025     1.0  0.81204  0.42292  0.08806  1.0000
  C   C1026     1.0  0.74736  0.47536  0.96409  1.0000
  H   H1627     1.0  0.68461  0.58903  0.20216  1.0000
  C   C1027     1.0  0.76270  0.60291  0.96857  1.0000
  H   H1628     1.0  0.95400  0.50379  0.00287  1.0000
  C   C1028     1.0  0.79371  0.50927  0.97254  1.0000
  C   C1029     1.0  0.94283  0.47949  0.01406  1.0000
  H   H1629     1.0  0.80233  0.37008  0.99650  1.0000
  H   H1630     1.0  0.86421  0.38544  0.98304  1.0000
  C   C1030     1.0  0.81692  0.43771  0.11093  1.0000
  C   C1031     1.0  0.84106  0.48742  0.08065  1.0000
  N   N106      1.0  0.94009  0.45510  0.99507  1.0000
  C   C1032     1.0  0.92211  0.47046  0.97250  1.0000
  S   S406      1.0  0.85192  0.46014  0.19432  1.0000
  S   S407      1.0  0.69362  0.40351  0.96734  1.0000
  C   C1033     1.0  0.83129  0.47006  0.10726  1.0000
  H   H1631     1.0  0.73088  0.53625  0.97522  1.0000
  C   C1034     1.0  0.84774  0.65108  0.13212  1.0000
  H   H1632     1.0  0.83541  0.48144  0.12489  1.0000
  S   S408      1.0  0.80581  0.41488  0.14379  1.0000
  H   H1633     1.0  0.70521  0.54114  0.17639  1.0000
  H   H1634     1.0  0.96841  0.59728  0.18607  1.0000
  H   H1635     1.0  0.74300  0.59273  0.98515  1.0000
  S   S409      1.0  0.66549  0.65218  0.05430  1.0000
  C   C1035     1.0  0.82047  0.59015  0.19988  1.0000
  H   H1636     1.0  0.95888  0.46993  0.02995  1.0000
  H   H1637     1.0  0.80066  0.39805  0.09080  1.0000
  H   H1638     1.0  0.91947  0.40564  0.99686  1.0000
  H   H1639     1.0  0.98913  0.43377  0.99998  1.0000
  C   C1036     1.0  0.87075  0.64719  0.10862  1.0000
  H   H1640     1.0  0.93306  0.41369  0.02804  1.0000
  C   C1037     1.0  0.83643  0.47235  0.05783  1.0000
  S   S410      1.0  0.89142  0.34434  0.03383  1.0000
  H   H1641     1.0  0.97340  0.42642  0.96941  1.0000
  N   N107      1.0  0.76058  0.49260  0.98468  1.0000
  C   C1038     1.0  0.95671  0.61048  0.11919  1.0000
  S   S411      1.0  0.85090  0.56206  0.18728  1.0000
  C   C1039     1.0  0.98296  0.64758  0.14420  1.0000
  H   H1642     1.0  0.79657  0.34902  0.13278  1.0000
  C   C1040     1.0  0.97462  0.44527  0.98354  1.0000
  Fe  Fe203     1.0  0.80514  0.44663  0.17719  1.0000
  S   S412      1.0  0.78372  0.49837  0.17316  1.0000
  H   H1643     1.0  0.76966  0.56335  0.07796  1.0000
  Fe  Fe204     1.0  0.82709  0.51046  0.19454  1.0000
  H   H1644     1.0  0.91668  0.65522  0.14510  1.0000
  H   H1645     1.0  0.77503  0.62696  0.07500  1.0000
  H   H1646     1.0  0.77607  0.60931  0.14914  1.0000
  H   H1647     1.0  0.94842  0.63163  0.10479  1.0000
  Fe  Fe205     1.0  0.94311  0.58172  0.00871  1.0000
  S   S413      1.0  0.90313  0.56752  0.98504  1.0000
  Fe  Fe206     1.0  0.89015  0.59838  0.05539  1.0000
  S   S414      1.0  0.84573  0.58657  0.03479  1.0000
  S   S415      1.0  0.87724  0.60671  0.09955  1.0000
  Fe  Fe207     1.0  0.87579  0.54192  0.02498  1.0000
  Fe  Fe208     1.0  0.87665  0.61336  0.99649  1.0000
  S   S416      1.0  0.91846  0.55111  0.04812  1.0000
  S   S417      1.0  0.91851  0.63000  0.01770  1.0000
  H   H1648     1.0  0.91745  0.48482  0.02515  1.0000
  H   H1649     1.0  0.85238  0.51230  0.07787  1.0000
  C   C1041     1.0  0.73588  0.51797  0.99321  1.0000
  H   H1650     1.0  0.85038  0.33932  0.08737  1.0000
  H   H1651     1.0  0.84496  0.35845  0.15785  1.0000
  H   H1652     1.0  0.74101  0.45369  0.01779  1.0000
  H   H1653     1.0  0.74550  0.53229  0.00808  1.0000
  C   C1042     1.0  0.92080  0.42513  0.01026  1.0000
  H   H1654     1.0  0.71527  0.35472  0.05961  1.0000
  H   H1655     1.0  0.83353  0.62971  0.14381  1.0000
  C   C1043     1.0  0.86885  0.39910  0.96246  1.0000
  H   H1656     1.0  0.77413  0.48006  0.02518  1.0000
  H   H1657     1.0  0.98403  0.65586  0.16440  1.0000
  C   C1044     1.0  0.78625  0.57997  0.20816  1.0000
  H   H1658     1.0  0.78289  0.64327  0.10538  1.0000
  H   H1659     1.0  0.76644  0.56540  0.15330  1.0000
  H   H1660     1.0  0.79973  0.60828  0.99534  1.0000
  H   H1661     1.0  0.76550  0.53766  0.11121  1.0000
  C   C1045     1.0  0.78031  0.58643  0.13909  1.0000
  H   H1662     1.0  0.72170  0.59923  0.09538  1.0000
  H   H1663     1.0  0.80811  0.58085  0.13737  1.0000
  C   C1046     1.0  0.77769  0.56087  0.09862  1.0000
  C   C1047     1.0  0.92345  0.63162  0.15754  1.0000
  N   N108      1.0  0.76871  0.59081  0.11194  1.0000
  H   H1664     1.0  0.99206  0.58091  0.15732  1.0000
  C   C1048     1.0  0.73131  0.59507  0.11552  1.0000
  C   C1049     1.0  0.78553  0.62088  0.09460  1.0000
  H   H1665     1.0  0.80584  0.55701  0.09588  1.0000
  H   H1666     1.0  0.81326  0.61738  0.08902  1.0000
  N   N109      1.0  0.95752  0.62013  0.14658  1.0000
  H   H1667     1.0  0.72389  0.61711  0.12604  1.0000
  H   H1668     1.0  0.71090  0.50612  0.00320  1.0000
  H   H1669     1.0  0.98225  0.60275  0.10985  1.0000
  S   S418      1.0  0.84885  0.49333  0.02452  1.0000
  H   H1670     1.0  0.98989  0.46730  0.97189  1.0000
  H   H1671     1.0  0.71772  0.57255  0.12797  1.0000
  S   S419      1.0  0.78813  0.34549  0.05448  1.0000
  H   H1672     1.0  0.92225  0.63665  0.17901  1.0000
  H   H1673     1.0  0.89541  0.47677  0.98026  1.0000
  H   H1674     1.0  0.88813  0.34225  0.10306  1.0000
  H   H1675     1.0  0.93521  0.49399  0.96138  1.0000
  C   C1050     1.0  0.67191  0.61328  0.20432  1.0000
  H   H1676     1.0  0.90312  0.61256  0.15740  1.0000
  H   H1677     1.0  0.85650  0.63126  0.19498  1.0000
  H   H1678     1.0  0.94744  0.57009  0.16797  1.0000
  H   H1679     1.0  0.72116  0.46501  0.97180  1.0000
  C   C1051     1.0  0.79481  0.61180  0.97436  1.0000
  C   C1052     1.0  0.85985  0.34473  0.10623  1.0000
  H   H1680     1.0  0.82118  0.42498  0.96692  1.0000
  H   H1681     1.0  0.98745  0.64962  0.05226  1.0000
  C   C1053     1.0  0.80578  0.64581  0.21055  1.0000
  H   H1682     1.0  0.78458  0.44896  0.00328  1.0000
  H   H1683     1.0  0.80407  0.52315  0.98734  1.0000
  C   C1054     1.0  0.67279  0.50753  0.20703  1.0000
  H   H1684     1.0  0.69241  0.63231  0.20378  1.0000
  H   H1685     1.0  0.71627  0.35146  0.21012  1.0000
  H   H1686     1.0  0.81313  0.49071  0.96636  1.0000
  H   H1687     1.0  0.76505  0.39170  0.96253  1.0000
  C   C1055     1.0  0.85323  0.33244  0.15568  1.0000
  H   H1688     1.0  0.88140  0.33194  0.15523  1.0000
  Fe  Fe209     1.0  0.81913  0.44498  0.23519  1.0000
  S   S420      1.0  0.83659  0.41807  0.27421  1.0000
  H   H1689     1.0  0.87123  0.62388  0.38827  1.0000
  H   H1690     1.0  0.79574  0.50732  0.31194  1.0000
  C   C1056     1.0  0.91388  0.35889  0.24688  1.0000
  C   C1057     1.0  0.92510  0.34419  0.27129  1.0000
  H   H1691     1.0  0.74533  0.50121  0.34869  1.0000
  C   C1058     1.0  0.74346  0.47425  0.34634  1.0000
  N   N110      1.0  0.75648  0.46900  0.31793  1.0000
  H   H1692     1.0  0.97720  0.46275  0.41368  1.0000
  C   C1059     1.0  0.72275  0.36198  0.27565  1.0000
  C   C1060     1.0  0.68182  0.38026  0.23510  1.0000
  S   S421      1.0  0.70291  0.49913  0.22993  1.0000
  C   C1061     1.0  0.70984  0.35940  0.23004  1.0000
  H   H1693     1.0  0.68719  0.38956  0.30103  1.0000
  C   C1062     1.0  0.87152  0.39066  0.27245  1.0000
  C   C1063     1.0  0.88721  0.38204  0.24743  1.0000
  C   C1064     1.0  0.69386  0.38185  0.28107  1.0000
  H   H1694     1.0  0.91155  0.56248  0.34481  1.0000
  C   C1065     1.0  0.90999  0.35336  0.29627  1.0000
  C   C1066     1.0  0.88317  0.37640  0.29683  1.0000
  H   H1695     1.0  0.87840  0.39282  0.22855  1.0000
  H   H1696     1.0  0.86848  0.57697  0.34586  1.0000
  C   C1067     1.0  0.68771  0.54139  0.37083  1.0000
  H   H1697     1.0  0.87125  0.38307  0.31625  1.0000
  H   H1698     1.0  0.92965  0.60401  0.38822  1.0000
  H   H1699     1.0  0.72676  0.42370  0.32085  1.0000
  C   C1068     1.0  0.73624  0.48874  0.29873  1.0000
  H   H1700     1.0  0.80852  0.46602  0.32567  1.0000
  C   C1069     1.0  0.79270  0.48003  0.31128  1.0000
  H   H1701     1.0  0.76269  0.42848  0.29400  1.0000
  C   C1070     1.0  0.68519  0.51445  0.41804  1.0000
  C   C1071     1.0  0.75365  0.43304  0.31545  1.0000
  H   H1702     1.0  0.75796  0.45962  0.36141  1.0000
  H   H1703     1.0  0.74286  0.48292  0.27751  1.0000
  H   H1704     1.0  0.76943  0.41737  0.32892  1.0000
  H   H1705     1.0  0.93505  0.64295  0.42605  1.0000
  H   H1706     1.0  0.70846  0.48318  0.30453  1.0000
  H   H1707     1.0  0.73997  0.51622  0.29805  1.0000
  S   S422      1.0  0.73524  0.64126  0.45482  1.0000
  C   C1072     1.0  0.89216  0.57836  0.35518  1.0000
  H   H1708     1.0  0.80392  0.47540  0.29048  1.0000
  H   H1709     1.0  0.71613  0.46661  0.35222  1.0000
  S   S423      1.0  0.77358  0.42845  0.21807  1.0000
  S   S424      1.0  0.79842  0.49662  0.23662  1.0000
  H   H1710     1.0  0.92341  0.65362  0.32053  1.0000
  S   S425      1.0  0.96017  0.49433  0.45987  1.0000
  C   C1073     1.0  0.70042  0.57076  0.37796  1.0000
  C   C1074     1.0  0.93564  0.61372  0.36600  1.0000
  H   H1711     1.0  0.85455  0.63406  0.35647  1.0000
  H   H1712     1.0  0.91851  0.34230  0.31519  1.0000
  C   C1075     1.0  0.73041  0.35013  0.25031  1.0000
  H   H1713     1.0  0.93413  0.61272  0.31267  1.0000
  H   H1714     1.0  0.92551  0.35201  0.22745  1.0000
  H   H1715     1.0  0.95608  0.59786  0.35687  1.0000
  S   S426      1.0  0.94957  0.51768  0.38052  1.0000
  C   C1076     1.0  0.67312  0.39087  0.26084  1.0000
  H   H1716     1.0  0.67984  0.49245  0.43343  1.0000
  H   H1717     1.0  0.88653  0.56661  0.37711  1.0000
  C   C1077     1.0  0.87824  0.63375  0.36601  1.0000
  S   S427      1.0  0.87195  0.61788  0.46059  1.0000
  Fe  Fe210     1.0  0.90945  0.57622  0.45936  1.0000
  H   H1718     1.0  0.73881  0.35527  0.29128  1.0000
  H   H1719     1.0  0.89112  0.62710  0.31224  1.0000
  H   H1720     1.0  0.67675  0.57330  0.25147  1.0000
  C   C1078     1.0  0.98642  0.49409  0.37437  1.0000
  S   S428      1.0  0.68294  0.53985  0.33653  1.0000
  H   H1721     1.0  0.68621  0.61578  0.25530  1.0000
  S   S429      1.0  0.88791  0.52968  0.44820  1.0000
  S   S430      1.0  0.96018  0.57429  0.43277  1.0000
  C   C1079     1.0  0.88216  0.65453  0.43710  1.0000
  Fe  Fe211     1.0  0.94017  0.52541  0.42469  1.0000
  C   C1080     1.0  0.70494  0.57218  0.40521  1.0000
  H   H1722     1.0  0.94653  0.63958  0.36393  1.0000
  H   H1723     1.0  0.66694  0.38833  0.21891  1.0000
  C   C1081     1.0  0.67948  0.51341  0.39101  1.0000
  C   C1082     1.0  0.76207  0.60239  0.21811  1.0000
  S   S431      1.0  0.70477  0.54485  0.45906  1.0000
  H   H1724     1.0  0.70679  0.59245  0.36241  1.0000
  H   H1725     1.0  0.71475  0.59496  0.41059  1.0000
  C   C1083     1.0  0.69782  0.54386  0.42519  1.0000
  N   N111      1.0  0.90486  0.61330  0.35257  1.0000
  C   C1084     1.0  0.91359  0.62729  0.32320  1.0000
  H   H1726     1.0  0.88722  0.66021  0.36453  1.0000
  H   H1727     1.0  0.73596  0.59395  0.22479  1.0000
  C   C1085     1.0  0.66521  0.59825  0.25356  1.0000
  H   H1728     1.0  0.67860  0.35421  0.44024  1.0000
  Fe  Fe212     1.0  0.75602  0.48177  0.21540  1.0000
  H   H1729     1.0  0.87191  0.34520  0.43570  1.0000
  C   C1086     1.0  0.91508  0.66062  0.42248  1.0000
  H   H1730     1.0  0.66950  0.49069  0.38569  1.0000
  C   C1087     1.0  0.77163  0.63558  0.21886  1.0000
  S   S432      1.0  0.74058  0.66431  0.22927  1.0000
  S   S433      1.0  0.76934  0.65724  0.52295  1.0000
  H   H1731     1.0  0.72782  0.63909  0.57833  1.0000
  C   C1088     1.0  0.96404  0.42895  0.64628  1.0000
  H   H1732     1.0  0.84380  0.53559  0.50234  1.0000
  C   C1089     1.0  0.84630  0.44411  0.51405  1.0000
  C   C1090     1.0  0.78907  0.40656  0.50740  1.0000
  H   H1733     1.0  0.68898  0.43459  0.63522  1.0000
  H   H1734     1.0  0.98001  0.33961  0.70033  1.0000
  H   H1735     1.0  0.74397  0.39346  0.66245  1.0000
  C   C1091     1.0  0.82435  0.42817  0.53701  1.0000
  H   H1736     1.0  0.96854  0.34007  0.64016  1.0000
  H   H1737     1.0  0.79465  0.59265  0.49223  1.0000
  Fe  Fe213     1.0  0.70836  0.37615  0.53574  1.0000
  C   C1092     1.0  0.83949  0.44148  0.48768  1.0000
  C   C1093     1.0  0.96367  0.46090  0.54704  1.0000
  Fe  Fe214     1.0  0.66437  0.35293  0.59196  1.0000
  H   H1738     1.0  0.81919  0.51350  0.53271  1.0000
  C   C1094     1.0  0.79560  0.40972  0.53371  1.0000
  S   S434      1.0  0.88214  0.46677  0.51909  1.0000
  H   H1739     1.0  0.76421  0.51033  0.47869  1.0000
  C   C1095     1.0  0.67243  0.43065  0.68974  1.0000
  H   H1740     1.0  0.77923  0.39686  0.55154  1.0000
  S   S435      1.0  0.75476  0.38150  0.50265  1.0000
  H   H1741     1.0  0.82978  0.42975  0.55745  1.0000
  H   H1742     1.0  0.75909  0.56343  0.53390  1.0000
  C   C1096     1.0  0.75858  0.54055  0.52385  1.0000
  H   H1743     1.0  0.68763  0.36843  0.71091  1.0000
  C   C1097     1.0  0.68321  0.40890  0.64670  1.0000
  C   C1098     1.0  0.82005  0.53659  0.51724  1.0000
  S   S436      1.0  0.89733  0.36030  0.55246  1.0000
  N   N112      1.0  0.78943  0.53897  0.50338  1.0000
  Fe  Fe215     1.0  0.91536  0.35706  0.59352  1.0000
  C   C1099     1.0  0.81105  0.42249  0.48439  1.0000
  C   C1100     1.0  0.68228  0.37160  0.68937  1.0000
  C   C1101     1.0  0.87124  0.35776  0.48760  1.0000
  Fe  Fe216     1.0  0.72611  0.65221  0.49843  1.0000
  C   C1102     1.0  0.92386  0.38910  0.68990  1.0000
  H   H1744     1.0  0.81506  0.56907  0.46680  1.0000
  S   S437      1.0  0.93675  0.40321  0.60635  1.0000
  H   H1745     1.0  0.89879  0.35689  0.48990  1.0000
  N   N113      1.0  0.69167  0.40577  0.67486  1.0000
  C   C1103     1.0  0.92019  0.38604  0.66268  1.0000
  C   C1104     1.0  0.94035  0.40599  0.64080  1.0000
  H   H1746     1.0  0.73657  0.43740  0.66276  1.0000
  H   H1747     1.0  0.80986  0.50675  0.47443  1.0000
  C   C1105     1.0  0.79220  0.56957  0.48270  1.0000
  H   H1748     1.0  0.90773  0.37412  0.70672  1.0000
  H   H1749     1.0  0.95214  0.46529  0.56798  1.0000
  H   H1750     1.0  0.73593  0.40959  0.69458  1.0000
  H   H1751     1.0  0.82276  0.55869  0.52784  1.0000
  Fe  Fe217     1.0  0.90972  0.50340  0.48439  1.0000
  C   C1106     1.0  0.94806  0.41171  0.69529  1.0000
  H   H1752     1.0  0.95429  0.48075  0.53207  1.0000
  Fe  Fe218     1.0  0.70024  0.59678  0.47012  1.0000
  C   C1107     1.0  0.72870  0.41182  0.67362  1.0000
  H   H1753     1.0  0.85640  0.36181  0.50771  1.0000
  S   S438      1.0  0.69665  0.39957  0.57430  1.0000
  H   H1754     1.0  0.73498  0.54107  0.51410  1.0000
  H   H1755     1.0  0.90140  0.36873  0.65862  1.0000
  H   H1756     1.0  0.69793  0.39092  0.63478  1.0000
  C   C1108     1.0  0.96818  0.43153  0.67339  1.0000
  H   H1757     1.0  0.75622  0.51825  0.54017  1.0000
  H   H1758     1.0  0.70854  0.63021  0.61372  1.0000
  H   H1759     1.0  0.98659  0.44931  0.67732  1.0000
  S   S439      1.0  0.69519  0.60479  0.51394  1.0000
  H   H1760     1.0  0.95306  0.43646  0.54385  1.0000
  H   H1761     1.0  0.78395  0.48567  0.50484  1.0000
  H   H1762     1.0  0.86770  0.38022  0.47253  1.0000
  H   H1763     1.0  0.97931  0.44495  0.62959  1.0000
  S   S440      1.0  0.92775  0.55039  0.49743  1.0000
  H   H1764     1.0  0.76942  0.57229  0.47197  1.0000
  H   H1765     1.0  0.97889  0.56972  0.69510  1.0000
  H   H1766     1.0  0.67801  0.45676  0.67907  1.0000
  C   C1109     1.0  0.78679  0.50914  0.48971  1.0000
  H   H1767     1.0  0.80605  0.42008  0.46399  1.0000
  H   H1768     1.0  0.69640  0.35216  0.67873  1.0000
  S   S441      1.0  0.66289  0.39748  0.51799  1.0000
  C   C1110     1.0  0.70305  0.63800  0.59245  1.0000
  H   H1769     1.0  0.68699  0.61788  0.58728  1.0000
  Fe  Fe219     1.0  0.97654  0.54375  0.46967  1.0000
  H   H1770     1.0  0.98940  0.64585  0.67709  1.0000
  H   H1771     1.0  0.85641  0.45360  0.46988  1.0000
  H   H1772     1.0  0.66190  0.66093  0.55567  1.0000
  H   H1773     1.0  0.67846  0.42926  0.71103  1.0000
  H   H1774     1.0  0.81540  0.35003  0.46439  1.0000
  H   H1775     1.0  0.97198  0.62574  0.71098  1.0000
  H   H1776     1.0  0.87920  0.61612  0.83730  1.0000
  H   H1777     1.0  0.98180  0.48719  0.81732  1.0000
  H   H1778     1.0  0.96088  0.33165  0.76939  1.0000
  Fe  Fe220     1.0  0.81290  0.44375  0.87388  1.0000
  S   S442      1.0  0.85707  0.41819  0.85245  1.0000
  S   S443      1.0  0.81701  0.46191  0.91369  1.0000
  Fe  Fe221     1.0  0.77025  0.43999  0.82884  1.0000
  Fe  Fe222     1.0  0.81750  0.38369  0.84303  1.0000
  H   H1779     1.0  0.71488  0.56503  0.88475  1.0000
  H   H1780     1.0  0.70150  0.48842  0.89520  1.0000
  S   S444      1.0  0.77405  0.40604  0.86812  1.0000
  N   N114      1.0  0.69909  0.52830  0.86164  1.0000
  S   S445      1.0  0.80438  0.48028  0.83733  1.0000
  H   H1781     1.0  0.92411  0.61653  0.93446  1.0000
  S   S446      1.0  0.95345  0.41451  0.72937  1.0000
  H   H1782     1.0  0.97405  0.66244  0.95357  1.0000
  H   H1783     1.0  0.93355  0.34719  0.74496  1.0000
  S   S447      1.0  0.72131  0.45173  0.81207  1.0000
  S   S448      1.0  0.81185  0.41573  0.80311  1.0000
  C   C1111     1.0  0.85023  0.43934  0.92683  1.0000
  C   C1112     1.0  0.90500  0.41257  0.91851  1.0000
  C   C1113     1.0  0.88105  0.43578  0.90975  1.0000
  C   C1114     1.0  0.97689  0.46973  0.83712  1.0000
  Fe  Fe223     1.0  0.84666  0.45304  0.81545  1.0000
  H   H1784     1.0  0.92798  0.40854  0.90479  1.0000
  H   H1785     1.0  0.88604  0.45043  0.88953  1.0000
  C   C1115     1.0  0.68348  0.43524  0.83264  1.0000
  H   H1786     1.0  0.74141  0.51036  0.88196  1.0000
  C   C1116     1.0  0.68233  0.42458  0.86081  1.0000
  H   H1787     1.0  0.72735  0.52320  0.82212  1.0000
  H   H1788     1.0  0.70513  0.42492  0.87016  1.0000
  C   C1117     1.0  0.81828  0.63046  0.82105  1.0000
  C   C1118     1.0  0.94999  0.62211  0.92240  1.0000
  S   S449      1.0  0.92735  0.36325  0.95499  1.0000
  H   H1789     1.0  0.83228  0.64701  0.76588  1.0000
  C   C1119     1.0  0.69126  0.55469  0.87919  1.0000
  N   N115      1.0  0.95637  0.65868  0.91528  1.0000
  H   H1790     1.0  0.87087  0.34495  0.75821  1.0000
  C   C1120     1.0  0.85405  0.59288  0.79623  1.0000
  C   C1121     1.0  0.89847  0.39363  0.94464  1.0000
  C   C1122     1.0  0.89789  0.51762  0.83142  1.0000
  H   H1791     1.0  0.74636  0.49256  0.94461  1.0000
  H   H1792     1.0  0.97213  0.51727  0.87022  1.0000
  S   S450      1.0  0.88894  0.48435  0.78829  1.0000
  C   C1123     1.0  0.84474  0.42197  0.95355  1.0000
  S   S451      1.0  0.97558  0.65302  0.76821  1.0000
  C   C1124     1.0  0.67266  0.33950  0.84723  1.0000
  C   C1125     1.0  0.72072  0.54264  0.83572  1.0000
  H   H1793     1.0  0.83160  0.64485  0.90988  1.0000
  H   H1794     1.0  0.79623  0.62567  0.81055  1.0000
  H   H1795     1.0  0.81611  0.61245  0.84049  1.0000
  H   H1796     1.0  0.67795  0.57598  0.86856  1.0000
  H   H1797     1.0  0.74501  0.55347  0.83961  1.0000
  C   C1126     1.0  0.71752  0.50096  0.87613  1.0000
  H   H1798     1.0  0.78156  0.34685  0.80729  1.0000
  C   C1127     1.0  0.81955  0.62728  0.95324  1.0000
  H   H1799     1.0  0.93871  0.53640  0.76584  1.0000
  Fe  Fe224     1.0  0.70315  0.63855  0.89975  1.0000
  S   S452      1.0  0.73404  0.64008  0.85821  1.0000
  S   S453      1.0  0.71454  0.60027  0.93461  1.0000
  H   H1800     1.0  0.70735  0.56281  0.82392  1.0000
  H   H1801     1.0  0.67448  0.54485  0.89873  1.0000
  H   H1802     1.0  0.81537  0.65618  0.82674  1.0000
  H   H1803     1.0  0.66989  0.34213  0.86938  1.0000
  Fe  Fe225     1.0  0.97866  0.64142  0.81320  1.0000
  C   C1128     1.0  0.81252  0.63295  0.92627  1.0000
  C   C1129     1.0  0.93115  0.53831  0.78735  1.0000
  H   H1804     1.0  0.87938  0.50000  0.84406  1.0000
  H   H1805     1.0  0.96517  0.58023  0.78652  1.0000
  S   S454      1.0  0.95648  0.59562  0.84222  1.0000
  S   S455      1.0  0.67725  0.62479  0.80638  1.0000
  H   H1806     1.0  0.92075  0.45318  0.95729  1.0000
  H   H1807     1.0  0.77529  0.62882  0.89968  1.0000
  H   H1808     1.0  0.90631  0.54356  0.86485  1.0000
  H   H1809     1.0  0.87860  0.58969  0.78277  1.0000
  H   H1810     1.0  0.93318  0.36832  0.80118  1.0000
  C   C1130     1.0  0.90704  0.51543  0.80348  1.0000
  H   H1811     1.0  0.66747  0.58378  0.76627  1.0000
  H   H1812     1.0  0.90479  0.63176  0.80520  1.0000
  C   C1131     1.0  0.93732  0.56516  0.82698  1.0000
  C   C1132     1.0  0.90837  0.36352  0.79434  1.0000
  C   C1133     1.0  0.75544  0.60917  0.94163  1.0000
  C   C1134     1.0  0.91321  0.54226  0.84317  1.0000
  C   C1135     1.0  0.78054  0.62393  0.92049  1.0000
  C   C1136     1.0  0.94598  0.56330  0.79900  1.0000
  H   H1813     1.0  0.94995  0.47318  0.84622  1.0000
  C   C1137     1.0  0.85289  0.65175  0.77787  1.0000
  H   H1814     1.0  0.85321  0.57375  0.81491  1.0000
  H   H1815     1.0  0.97907  0.44373  0.83215  1.0000
  C   C1138     1.0  0.87957  0.63411  0.81798  1.0000
  H   H1816     1.0  0.67180  0.49772  0.83986  1.0000
  H   H1817     1.0  0.96893  0.61003  0.93497  1.0000
  H   H1818     1.0  0.88755  0.36594  0.81159  1.0000
  N   N116      1.0  0.85118  0.62726  0.80328  1.0000
  H   H1819     1.0  0.90530  0.38404  0.77727  1.0000
  H   H1820     1.0  0.92838  0.66086  0.88135  1.0000
  H   H1821     1.0  0.67060  0.36499  0.83557  1.0000
  H   H1822     1.0  0.83301  0.58666  0.78518  1.0000
  Fe  Fe226     1.0  0.68430  0.65082  0.84250  1.0000
  H   H1823     1.0  0.72499  0.48144  0.86289  1.0000
  H   H1824     1.0  0.76366  0.45403  0.95892  1.0000
  C   C1139     1.0  0.66687  0.51495  0.85537  1.0000
  H   H1825     1.0  0.95150  0.60977  0.90366  1.0000
  H   H1826     1.0  0.99214  0.65429  0.87899  1.0000
  H   H1827     1.0  0.87828  0.65993  0.82344  1.0000
  H   H1828     1.0  0.96633  0.45854  0.89262  1.0000
  H   H1829     1.0  0.87781  0.65087  0.76427  1.0000
  H   H1830     1.0  0.79132  0.52759  0.95390  1.0000
  C   C1140     1.0  0.99245  0.45389  0.88231  1.0000
  S   S456      1.0  0.85768  0.64342  0.96045  1.0000
  S   S457      1.0  0.88692  0.72197  0.03413  1.0000
  C   C1141     1.0  0.76094  0.70050  0.07386  1.0000
  C   C1142     1.0  0.73304  0.69154  0.09446  1.0000
  Fe  Fe227     1.0  0.83452  0.95952  0.15646  1.0000
  C   C1143     1.0  0.76006  0.69357  0.04726  1.0000
  H   H1831     1.0  0.73379  0.69689  0.11505  1.0000
  H   H1832     1.0  0.73015  0.67221  0.02087  1.0000
  C   C1144     1.0  0.84376  0.68236  0.14122  1.0000
  C   C1145     1.0  0.68050  0.75261  0.05890  1.0000
  S   S458      1.0  0.87832  0.97225  0.17716  1.0000
  H   H1833     1.0  0.74231  0.76761  0.07285  1.0000
  C   C1146     1.0  0.97581  0.70094  0.05712  1.0000
  H   H1834     1.0  0.95430  0.70178  0.04606  1.0000
  H   H1835     1.0  0.78182  0.70011  0.03142  1.0000
  H   H1836     1.0  0.82578  0.68502  0.15925  1.0000
  C   C1147     1.0  0.88779  0.70576  0.10456  1.0000
  N   N117      1.0  0.88541  0.96390  0.98776  1.0000
  H   H1837     1.0  0.90387  0.72674  0.09425  1.0000
  S   S459      1.0  0.79620  0.71989  0.08275  1.0000
  C   C1148     1.0  0.86395  0.70981  0.12762  1.0000
  Fe  Fe228     1.0  0.83834  0.74539  0.05128  1.0000
  H   H1838     1.0  0.97663  0.66986  0.12984  1.0000
  H   H1839     1.0  0.67666  0.87223  0.15994  1.0000
  N   N118      1.0  0.69262  0.78479  0.06516  1.0000
  S   S460      1.0  0.76466  0.72786  0.16399  1.0000
  C   C1149     1.0  0.84398  0.99333  0.08824  1.0000
  H   H1840     1.0  0.69458  0.73134  0.15734  1.0000
  H   H1841     1.0  0.73325  0.86236  0.17574  1.0000
  H   H1842     1.0  0.96437  0.82889  0.02947  1.0000
  S   S461      1.0  0.69563  0.89689  0.06745  1.0000
  S   S462      1.0  0.91158  0.79846  0.00500  1.0000
  S   S463      1.0  0.84490  0.86808  0.01226  1.0000
  C   C1150     1.0  0.81084  0.95122  0.07310  1.0000
  S   S464      1.0  0.78729  0.80405  0.17120  1.0000
  C   C1151     1.0  0.70994  0.92519  0.17117  1.0000
  H   H1843     1.0  0.78830  0.96734  0.03669  1.0000
  C   C1152     1.0  0.69001  0.88924  0.14188  1.0000
  H   H1844     1.0  0.87698  0.89113  0.15867  1.0000
  C   C1153     1.0  0.91751  0.82608  0.13215  1.0000
  H   H1845     1.0  0.86644  0.79910  0.17164  1.0000
  C   C1154     1.0  0.73758  0.88973  0.05262  1.0000
  C   C1155     1.0  0.75893  0.86912  0.06763  1.0000
  C   C1156     1.0  0.79164  0.86148  0.05513  1.0000
  C   C1157     1.0  0.80330  0.87519  0.02783  1.0000
  C   C1158     1.0  0.78190  0.89571  0.01291  1.0000
  C   C1159     1.0  0.74906  0.90280  0.02523  1.0000
  H   H1846     1.0  0.75005  0.85862  0.08876  1.0000
  H   H1847     1.0  0.80809  0.84559  0.06677  1.0000
  H   H1848     1.0  0.79064  0.90590  0.99170  1.0000
  H   H1849     1.0  0.73277  0.91881  0.01365  1.0000
  C   C1160     1.0  0.73698  0.92800  0.12400  1.0000
  H   H1850     1.0  0.90928  0.67154  0.07718  1.0000
  H   H1851     1.0  0.73212  0.93844  0.17640  1.0000
  S   S465      1.0  0.67657  0.88135  0.99596  1.0000
  C   C1161     1.0  0.98449  0.72900  0.06834  1.0000
  H   H1852     1.0  0.70971  0.95361  0.97821  1.0000
  Fe  Fe229     1.0  0.91278  0.76621  0.04558  1.0000
  H   H1853     1.0  0.69717  0.87374  0.12522  1.0000
  C   C1162     1.0  0.71909  0.77863  0.08325  1.0000
  C   C1163     1.0  0.70727  0.80600  0.03931  1.0000
  C   C1164     1.0  0.89849  0.87775  0.14809  1.0000
  Fe  Fe230     1.0  0.88186  0.75604  0.99515  1.0000
  H   H1854     1.0  0.87827  0.96823  0.03074  1.0000
  Fe  Fe231     1.0  0.86072  0.81522  0.02366  1.0000
  H   H1855     1.0  0.85394  0.83771  0.18384  1.0000
  C   C1165     1.0  0.70402  0.67618  0.08853  1.0000
  S   S466      1.0  0.83711  0.93184  0.12050  1.0000
  C   C1166     1.0  0.70282  0.66933  0.06203  1.0000
  H   H1856     1.0  0.75269  0.86413  0.14063  1.0000
  H   H1857     1.0  0.82447  0.73510  0.96792  1.0000
  C   C1167     1.0  0.83052  0.96062  0.09190  1.0000
  H   H1858     1.0  0.92751  0.83945  0.11133  1.0000
  H   H1859     1.0  0.90675  0.89306  0.12767  1.0000
  H   H1860     1.0  0.80060  0.92592  0.07576  1.0000
  H   H1861     1.0  0.71933  0.94765  0.11670  1.0000
  S   S467      1.0  0.86456  0.78768  0.06534  1.0000
  N   N119      1.0  0.88798  0.84341  0.14534  1.0000
  H   H1862     1.0  0.85214  0.81965  0.12534  1.0000
  H   H1863     1.0  0.71540  0.83091  0.04317  1.0000
  H   H1864     1.0  0.89602  0.82181  0.18601  1.0000
  H   H1865     1.0  0.91700  0.98673  0.01164  1.0000
  C   C1168     1.0  0.86037  0.84514  0.12822  1.0000
  Fe  Fe232     1.0  0.73896  0.77614  0.17067  1.0000
  H   H1866     1.0  0.86866  0.85952  0.10743  1.0000
  C   C1169     1.0  0.90545  0.93289  0.99003  1.0000
  H   H1867     1.0  0.68835  0.81027  0.02486  1.0000
  S   S468      1.0  0.83051  0.77506  0.01107  1.0000
  C   C1170     1.0  0.89075  0.67466  0.09478  1.0000
  H   H1868     1.0  0.83757  0.85777  0.13766  1.0000
  H   H1869     1.0  0.91040  0.80015  0.12956  1.0000
  C   C1171     1.0  0.87553  0.82477  0.17291  1.0000
  H   H1870     1.0  0.68232  0.67041  0.10440  1.0000
  C   C1172     1.0  0.80389  0.97468  0.05102  1.0000
  H   H1871     1.0  0.91993  0.87750  0.16022  1.0000
  C   C1173     1.0  0.73101  0.67764  0.04140  1.0000
  Fe  Fe233     1.0  0.81242  0.75426  0.16892  1.0000
  H   H1872     1.0  0.93873  0.82391  0.14462  1.0000
  C   C1174     1.0  0.74475  0.87969  0.15712  1.0000
  H   H1873     1.0  0.67172  0.82614  0.08454  1.0000
  H   H1874     1.0  0.74498  0.91390  0.10663  1.0000
  H   H1875     1.0  0.72732  0.80222  0.08967  1.0000
  H   H1876     1.0  0.70968  0.76111  0.10231  1.0000
  H   H1877     1.0  0.73006  0.79433  0.02883  1.0000
  S   S469      1.0  0.96069  0.76606  0.06538  1.0000
  S   S470      1.0  0.69877  0.80313  0.14942  1.0000
  H   H1878     1.0  0.78736  0.76091  0.96852  1.0000
  C   C1175     1.0  0.98629  0.99227  0.99273  1.0000
  H   H1879     1.0  0.83307  0.97799  0.98669  1.0000
  H   H1880     1.0  0.76832  0.89114  0.16186  1.0000
  H   H1881     1.0  0.83877  0.94037  0.00962  1.0000
  N   N120      1.0  0.72042  0.90556  0.14857  1.0000
  H   H1882     1.0  0.67151  0.90801  0.13453  1.0000
  S   S471      1.0  0.86116  0.74851  0.14034  1.0000
  C   C1176     1.0  0.88978  0.98237  0.01054  1.0000
  H   H1883     1.0  0.93580  0.84957  0.20552  1.0000
  H   H1884     1.0  0.97888  0.83099  0.97962  1.0000
  H   H1885     1.0  0.69814  0.90885  0.19026  1.0000
  H   H1886     1.0  0.70166  0.73940  0.04793  1.0000
  H   H1887     1.0  0.74462  0.99325  0.14339  1.0000
  S   S472      1.0  0.79965  0.93911  0.19502  1.0000
  H   H1888     1.0  0.90102  0.91723  0.97420  1.0000
  H   H1889     1.0  0.69112  0.94459  0.16561  1.0000
  H   H1890     1.0  0.76030  0.94053  0.12808  1.0000
  H   H1891     1.0  0.89796  0.91715  0.01040  1.0000
  Fe  Fe234     1.0  0.75767  0.71662  0.20992  1.0000
  H   H1892     1.0  0.89385  0.89586  0.20745  1.0000
  H   H1893     1.0  0.97578  0.97551  0.01106  1.0000
  H   H1894     1.0  0.79050  0.68720  0.96339  1.0000
  C   C1177     1.0  0.84889  0.95519  0.98941  1.0000
  C   C1178     1.0  0.66392  0.77557  0.15422  1.0000
  H   H1895     1.0  0.75255  0.71141  0.96280  1.0000
  H   H1896     1.0  0.77276  0.96098  0.97268  1.0000
  H   H1897     1.0  0.84463  0.93975  0.97341  1.0000
  H   H1898     1.0  0.93334  0.93852  0.98763  1.0000
  H   H1899     1.0  0.66959  0.73573  0.07794  1.0000
  C   C1179     1.0  0.66355  0.80187  0.07910  1.0000
  C   C1180     1.0  0.98983  0.84033  0.02958  1.0000
  Fe  Fe235     1.0  0.78110  0.99203  0.19333  1.0000
  C   C1181     1.0  0.66908  0.74100  0.15809  1.0000
  H   H1900     1.0  0.98683  0.86803  0.02739  1.0000
  C   C1182     1.0  0.89728  0.98511  0.96120  1.0000
  H   H1901     1.0  0.66019  0.75632  0.04558  1.0000
  Fe  Fe236     1.0  0.66027  0.90071  0.03575  1.0000
  H   H1902     1.0  0.80413  0.97191  0.38823  1.0000
  S   S473      1.0  0.94722  0.72992  0.30725  1.0000
  H   H1903     1.0  0.84517  0.79602  0.25636  1.0000
  C   C1183     1.0  0.89693  0.71368  0.39959  1.0000
  H   H1904     1.0  0.84598  0.96703  0.42110  1.0000
  H   H1905     1.0  0.84412  0.72542  0.41094  1.0000
  H   H1906     1.0  0.90387  0.76702  0.43798  1.0000
  C   C1184     1.0  0.92243  0.69017  0.40369  1.0000
  Fe  Fe237     1.0  0.97835  0.77519  0.28559  1.0000
  H   H1907     1.0  0.94799  0.69495  0.39289  1.0000
  C   C1185     1.0  0.86402  0.70746  0.41416  1.0000
  S   S474      1.0  0.85910  0.92579  0.25375  1.0000
  S   S475      1.0  0.72640  0.76207  0.21624  1.0000
  S   S476      1.0  0.78172  0.82621  0.24457  1.0000
  C   C1186     1.0  0.85665  0.67796  0.43288  1.0000
  H   H1908     1.0  0.84821  0.76861  0.34228  1.0000
  H   H1909     1.0  0.79178  0.77541  0.28828  1.0000
  C   C1187     1.0  0.80830  0.76427  0.30336  1.0000
  Fe  Fe238     1.0  0.84195  0.95559  0.21600  1.0000
  H   H1910     1.0  0.89712  0.81106  0.43852  1.0000
  H   H1911     1.0  0.85657  0.83357  0.30383  1.0000
  H   H1912     1.0  0.79338  0.76361  0.32423  1.0000
  N   N121      1.0  0.84056  0.78377  0.30033  1.0000
  C   C1188     1.0  0.74565  0.84993  0.25480  1.0000
  C   C1189     1.0  0.71431  0.84474  0.24620  1.0000
  C   C1190     1.0  0.68547  0.86243  0.25577  1.0000
  C   C1191     1.0  0.68764  0.88574  0.27381  1.0000
  C   C1192     1.0  0.71919  0.89175  0.28184  1.0000
  C   C1193     1.0  0.74810  0.87383  0.27237  1.0000
  H   H1913     1.0  0.71220  0.82694  0.23232  1.0000
  H   H1914     1.0  0.72127  0.90986  0.29555  1.0000
  H   H1915     1.0  0.77242  0.87850  0.27871  1.0000
  S   S477      1.0  0.96294  0.80547  0.24719  1.0000
  C   C1194     1.0  0.89036  0.89447  0.25106  1.0000
  C   C1195     1.0  0.90240  0.87910  0.27491  1.0000
  C   C1196     1.0  0.92536  0.85241  0.27396  1.0000
  C   C1197     1.0  0.93700  0.84123  0.24897  1.0000
  H   H1916     1.0  0.78378  0.96984  0.43793  1.0000
  C   C1198     1.0  0.90267  0.88390  0.22594  1.0000
  H   H1917     1.0  0.89347  0.88756  0.29432  1.0000
  H   H1918     1.0  0.93373  0.84032  0.29260  1.0000
  Fe  Fe239     1.0  0.77625  0.78782  0.21661  1.0000
  S   S478      1.0  0.80699  0.74086  0.21479  1.0000
  H   H1919     1.0  0.86687  0.78613  0.42624  1.0000
  C   C1199     1.0  0.83284  0.81870  0.30456  1.0000
  H   H1920     1.0  0.82003  0.80481  0.45984  1.0000
  C   C1200     1.0  0.86154  0.76860  0.32095  1.0000
  H   H1921     1.0  0.68174  0.84225  0.39897  1.0000
  H   H1922     1.0  0.81313  0.73792  0.29988  1.0000
  H   H1923     1.0  0.86785  0.74221  0.31854  1.0000
  H   H1924     1.0  0.88619  0.78266  0.31911  1.0000
  H   H1925     1.0  0.81698  0.81977  0.32480  1.0000
  Fe  Fe240     1.0  0.95289  0.75030  0.34574  1.0000
  H   H1926     1.0  0.86512  0.75761  0.26822  1.0000
  C   C1201     1.0  0.85963  0.78356  0.27246  1.0000
  H   H1927     1.0  0.81886  0.83179  0.28838  1.0000
  H   H1928     1.0  0.88454  0.79712  0.26977  1.0000
  C   C1202     1.0  0.97708  0.98250  0.40961  1.0000
  H   H1929     1.0  0.95545  0.97475  0.42513  1.0000
  Fe  Fe241     1.0  0.68660  0.66924  0.45075  1.0000
  C   C1203     1.0  0.88405  0.78606  0.44204  1.0000
  S   S479      1.0  0.98049  0.79738  0.32398  1.0000
  C   C1204     1.0  0.92614  0.85758  0.22492  1.0000
  S   S480      1.0  0.66127  0.95306  0.35056  1.0000
  S   S481      1.0  0.67956  0.70148  0.41131  1.0000
  S   S482      1.0  0.90549  0.75122  0.37677  1.0000
  H   H1930     1.0  0.66750  0.88486  0.39312  1.0000
  C   C1205     1.0  0.84715  0.99493  0.41869  1.0000
  H   H1931     1.0  0.83112  0.67328  0.44417  1.0000
  H   H1932     1.0  0.82964  0.74417  0.45905  1.0000
  H   H1933     1.0  0.67357  0.83753  0.35044  1.0000
  H   H1934     1.0  0.66134  0.85806  0.24916  1.0000
  C   C1206     1.0  0.78674  0.99767  0.43499  1.0000
  H   H1935     1.0  0.81353  0.67126  0.21115  1.0000
  S   S483      1.0  0.78832  0.87605  0.46934  1.0000
  C   C1207     1.0  0.82555  0.72300  0.55345  1.0000
  H   H1936     1.0  0.70322  0.68141  0.54651  1.0000
  H   H1937     1.0  0.86206  0.92604  0.70145  1.0000
  C   C1208     1.0  0.78378  0.69469  0.53254  1.0000
  H   H1938     1.0  0.66566  0.89297  0.56940  1.0000
  C   C1209     1.0  0.81314  0.69385  0.54539  1.0000
  S   S484      1.0  0.84406  0.99737  0.51789  1.0000
  H   H1939     1.0  0.84842  0.72208  0.56301  1.0000
  Fe  Fe242     1.0  0.92989  0.77208  0.60535  1.0000
  C   C1210     1.0  0.67910  0.67977  0.56130  1.0000
  C   C1211     1.0  0.84812  0.74509  0.47371  1.0000
  S   S485      1.0  0.95522  0.73260  0.63155  1.0000
  C   C1212     1.0  0.91622  0.87075  0.70220  1.0000
  C   C1213     1.0  0.94162  0.73081  0.66678  1.0000
  H   H1940     1.0  0.66670  0.70454  0.55827  1.0000
  C   C1214     1.0  0.90934  0.74187  0.67693  1.0000
  H   H1941     1.0  0.87862  0.95201  0.48299  1.0000
  C   C1215     1.0  0.96385  0.71837  0.68498  1.0000
  H   H1942     1.0  0.79222  0.94099  0.56675  1.0000
  H   H1943     1.0  0.69649  0.72197  0.59382  1.0000
  C   C1216     1.0  0.98122  0.80887  0.67243  1.0000
  C   C1217     1.0  0.80369  0.91218  0.47985  1.0000
  H   H1944     1.0  0.71343  0.69120  0.61791  1.0000
  C   C1218     1.0  0.70823  0.69676  0.59639  1.0000
  S   S486      1.0  0.90107  0.84727  0.55830  1.0000
  C   C1219     1.0  0.76658  0.72491  0.52815  1.0000
  H   H1945     1.0  0.89188  0.75097  0.66297  1.0000
  C   C1220     1.0  0.83874  0.80418  0.47450  1.0000
  Fe  Fe243     1.0  0.94849  0.81761  0.55148  1.0000
  S   S487      1.0  0.71221  0.81020  0.50208  1.0000
  H   H1946     1.0  0.76170  0.86184  0.61199  1.0000
  H   H1947     1.0  0.85633  0.90413  0.46416  1.0000
  H   H1948     1.0  0.78962  0.83506  0.59337  1.0000
  H   H1949     1.0  0.87493  0.77281  0.51182  1.0000
  H   H1950     1.0  0.97584  0.93397  0.68662  1.0000
  C   C1221     1.0  0.85141  0.94690  0.48587  1.0000
  H   H1951     1.0  0.82396  0.79943  0.49559  1.0000
  S   S488      1.0  0.92161  0.76751  0.56230  1.0000
  S   S489      1.0  0.82356  0.79083  0.55782  1.0000
  S   S490      1.0  0.71830  0.87671  0.53212  1.0000
  C   C1222     1.0  0.80830  0.75317  0.54914  1.0000
  S   S491      1.0  0.68904  0.88455  0.47248  1.0000
  H   H1952     1.0  0.96714  0.90105  0.55977  1.0000
  C   C1223     1.0  0.77615  0.91842  0.57621  1.0000
  H   H1953     1.0  0.96903  0.80336  0.65477  1.0000
  C   C1224     1.0  0.77861  0.75388  0.53674  1.0000
  S   S492      1.0  0.67994  0.68401  0.49307  1.0000
  S   S493      1.0  0.88047  0.79783  0.61689  1.0000
  H   H1954     1.0  0.79310  0.87837  0.53732  1.0000
  C   C1225     1.0  0.82894  0.96605  0.50148  1.0000
  Fe  Fe244     1.0  0.67119  0.89479  0.51528  1.0000
  H   H1955     1.0  0.66808  0.89557  0.61825  1.0000
  H   H1956     1.0  0.85039  0.82978  0.47185  1.0000
  Fe  Fe245     1.0  0.73455  0.86268  0.49034  1.0000
  C   C1226     1.0  0.79381  0.95916  0.50522  1.0000
  C   C1227     1.0  0.83879  0.91978  0.47524  1.0000
  H   H1957     1.0  0.83366  0.73844  0.49466  1.0000
  C   C1228     1.0  0.78120  0.93272  0.49397  1.0000
  H   H1958     1.0  0.74400  0.72604  0.51823  1.0000
  S   S494      1.0  0.96109  0.81951  0.59339  1.0000
  H   H1959     1.0  0.77623  0.97423  0.51687  1.0000
  H   H1960     1.0  0.75400  0.92823  0.49634  1.0000
  C   C1229     1.0  0.89908  0.73986  0.70537  1.0000
  H   H1961     1.0  0.82902  0.86016  0.55113  1.0000
  H   H1962     1.0  0.98906  0.71041  0.67715  1.0000
  H   H1963     1.0  0.75447  0.85405  0.57876  1.0000
  H   H1964     1.0  0.97752  0.78621  0.68835  1.0000
  H   H1965     1.0  0.76506  0.77711  0.53350  1.0000
  C   C1230     1.0  0.77470  0.85850  0.59119  1.0000
  N   N122      1.0  0.86490  0.77847  0.47015  1.0000
  H   H1966     1.0  0.96227  0.94514  0.56085  1.0000
  Fe  Fe246     1.0  0.69140  0.82686  0.54228  1.0000
  C   C1231     1.0  0.88868  0.77848  0.49041  1.0000
  C   C1232     1.0  0.94056  0.89406  0.70630  1.0000
  H   H1967     1.0  0.76328  0.92297  0.59675  1.0000
  N   N123      1.0  0.79681  0.88779  0.57823  1.0000
  S   S495      1.0  0.91234  0.89287  0.62037  1.0000
  H   H1968     1.0  0.84166  0.91311  0.58553  1.0000
  C   C1233     1.0  0.90882  0.86892  0.67565  1.0000
  H   H1969     1.0  0.73330  0.69888  0.58268  1.0000
  C   C1234     1.0  0.92492  0.89113  0.65313  1.0000
  C   C1235     1.0  0.81266  0.88253  0.55042  1.0000
  C   C1236     1.0  0.82392  0.89177  0.59505  1.0000
  H   H1970     1.0  0.88977  0.85111  0.67273  1.0000
  C   C1237     1.0  0.94911  0.91451  0.65729  1.0000
  H   H1971     1.0  0.96123  0.93221  0.64009  1.0000
  H   H1972     1.0  0.81301  0.89644  0.61603  1.0000
  C   C1238     1.0  0.97975  0.92379  0.56436  1.0000
  Fe  Fe247     1.0  0.91151  0.84516  0.60162  1.0000
  H   H1973     1.0  0.90867  0.75925  0.48788  1.0000
  Fe  Fe248     1.0  0.87443  0.79702  0.57262  1.0000
  H   H1974     1.0  0.82903  0.90435  0.53984  1.0000
  H   H1975     1.0  0.83961  0.86886  0.59740  1.0000
  C   C1239     1.0  0.95738  0.91557  0.68367  1.0000
  H   H1976     1.0  0.75582  0.91650  0.56328  1.0000
  S   S496      1.0  0.68471  0.79744  0.58472  1.0000
  H   H1977     1.0  0.90179  0.80331  0.48841  1.0000
  H   H1978     1.0  0.82661  0.67058  0.54885  1.0000
  H   H1979     1.0  0.86705  0.72501  0.47058  1.0000
  S   S497      1.0  0.98964  0.83360  0.51584  1.0000
  Fe  Fe249     1.0  0.66518  0.83348  0.48786  1.0000
  H   H1980     1.0  0.86114  0.97003  0.70432  1.0000
  H   H1981     1.0  0.96698  0.82951  0.68118  1.0000
  H   H1982     1.0  0.98193  0.91960  0.58663  1.0000
  N   N124      1.0  0.68591  0.67070  0.58977  1.0000
  H   H1983     1.0  0.99261  0.95745  0.51303  1.0000
  H   H1984     1.0  0.83335  0.95723  0.78006  1.0000
  S   S498      1.0  0.90849  0.72333  0.75912  1.0000
  H   H1985     1.0  0.97151  0.70770  0.72696  1.0000
  H   H1986     1.0  0.93503  0.70070  0.89215  1.0000
  S   S499      1.0  0.69185  0.70676  0.83883  1.0000
  H   H1987     1.0  0.72205  0.90109  0.93572  1.0000
  Fe  Fe250     1.0  0.73866  0.69538  0.85864  1.0000
  S   S500      1.0  0.79054  0.72135  0.84920  1.0000
  S   S501      1.0  0.71126  0.69302  0.90157  1.0000
  H   H1988     1.0  0.74857  0.84304  0.88580  1.0000
  C   C1240     1.0  0.80882  0.75153  0.95475  1.0000
  H   H1989     1.0  0.89417  0.97171  0.94368  1.0000
  S   S502      1.0  0.87755  0.91554  0.81983  1.0000
  Fe  Fe251     1.0  0.95223  0.70100  0.77831  1.0000
  S   S503      1.0  0.95083  0.68748  0.82339  1.0000
  C   C1241     1.0  0.70873  0.89769  0.88453  1.0000
  Fe  Fe252     1.0  0.87351  0.96899  0.82743  1.0000
  H   H1990     1.0  0.84216  0.74289  0.90533  1.0000
  H   H1991     1.0  0.96836  0.93311  0.90892  1.0000
  H   H1992     1.0  0.70613  0.83249  0.88094  1.0000
  H   H1993     1.0  0.95347  0.78564  0.76329  1.0000
  H   H1994     1.0  0.76616  0.74170  0.90216  1.0000
  C   C1242     1.0  0.77559  0.70367  0.94968  1.0000
  H   H1995     1.0  0.73495  0.90406  0.87335  1.0000
  C   C1243     1.0  0.93374  0.80405  0.76898  1.0000
  H   H1996     1.0  0.82543  0.77332  0.94438  1.0000
  H   H1997     1.0  0.85007  0.67792  0.78252  1.0000
  Fe  Fe253     1.0  0.66390  0.70040  0.88215  1.0000
  H   H1998     1.0  0.67332  0.84301  0.94016  1.0000
  C   C1244     1.0  0.72171  0.83928  0.89627  1.0000
  H   H1999     1.0  0.90414  0.67118  0.91233  1.0000
  N   N125      1.0  0.79638  0.73290  0.93472  1.0000
  C   C1245     1.0  0.84909  0.90307  0.75523  1.0000
  H   H2000     1.0  0.84444  0.88392  0.74216  1.0000
  H   H2001     1.0  0.87594  0.90057  0.75924  1.0000
  H   H2002     1.0  0.94646  0.75344  0.90382  1.0000
  H   H2003     1.0  0.93894  0.82716  0.75375  1.0000
  H   H2004     1.0  0.87705  0.96061  0.76358  1.0000
  C   C1246     1.0  0.86568  0.94467  0.71526  1.0000
  H   H2005     1.0  0.84263  0.70514  0.92911  1.0000
  H   H2006     1.0  0.90949  0.85836  0.79037  1.0000
  H   H2007     1.0  0.69816  0.92079  0.89211  1.0000
  N   N126      1.0  0.93398  0.81103  0.79726  1.0000
  H   H2008     1.0  0.92462  0.99273  0.95940  1.0000
  S   S504      1.0  0.89760  0.74209  0.95313  1.0000
  S   S505      1.0  0.94757  0.89745  0.74003  1.0000
  H   H2009     1.0  0.84589  0.98805  0.75037  1.0000
  H   H2010     1.0  0.90554  0.83970  0.82570  1.0000
  H   H2011     1.0  0.88075  0.82312  0.80306  1.0000
  H   H2012     1.0  0.73734  0.76671  0.83445  1.0000
  H   H2013     1.0  0.95061  0.76222  0.81275  1.0000
  H   H2014     1.0  0.75250  0.76359  0.93057  1.0000
  Fe  Fe254     1.0  0.89407  0.90563  0.86139  1.0000
  C   C1247     1.0  0.96708  0.82673  0.79908  1.0000
  S   S506      1.0  0.93790  0.87105  0.86572  1.0000
  Fe  Fe255     1.0  0.84084  0.95009  0.88635  1.0000
  S   S507      1.0  0.81904  0.96271  0.84727  1.0000
  S   S508      1.0  0.82302  0.97346  0.92395  1.0000
  Fe  Fe256     1.0  0.82495  0.90823  0.84369  1.0000
  C   C1248     1.0  0.92893  0.77931  0.81660  1.0000
  S   S509      1.0  0.84150  0.89465  0.88488  1.0000
  S   S510      1.0  0.89508  0.95981  0.86690  1.0000
  H   H2015     1.0  0.90862  0.79343  0.76657  1.0000
  C   C1249     1.0  0.78879  0.76546  0.84363  1.0000
  C   C1250     1.0  0.90611  0.83405  0.80440  1.0000
  H   H2016     1.0  0.76680  0.68813  0.93531  1.0000
  H   H2017     1.0  0.75800  0.88520  0.91559  1.0000
  C   C1251     1.0  0.77536  0.75500  0.91780  1.0000
  C   C1252     1.0  0.72409  0.96167  0.95810  1.0000
  C   C1253     1.0  0.75813  0.81657  0.83211  1.0000
  H   H2018     1.0  0.83710  0.83498  0.84555  1.0000
  H   H2019     1.0  0.83990  0.77266  0.85208  1.0000
  H   H2020     1.0  0.87519  0.81066  0.95135  1.0000
  H   H2021     1.0  0.90508  0.76584  0.81468  1.0000
  C   C1254     1.0  0.81703  0.78489  0.84657  1.0000
  H   H2022     1.0  0.79028  0.77748  0.90652  1.0000
  H   H2023     1.0  0.73534  0.82869  0.82626  1.0000
  H   H2024     1.0  0.72080  0.81736  0.91278  1.0000
  H   H2025     1.0  0.73313  0.85809  0.94352  1.0000
  H   H2026     1.0  0.96010  0.70131  0.93616  1.0000
  H   H2027     1.0  0.90284  0.85417  0.71955  1.0000
  H   H2028     1.0  0.92740  0.78380  0.83825  1.0000
  C   C1255     1.0  0.85001  0.96181  0.75974  1.0000
  S   S511      1.0  0.78339  0.88000  0.83000  1.0000
  H   H2029     1.0  0.96823  0.83204  0.82024  1.0000
  H   H2030     1.0  0.81761  0.70682  0.90162  1.0000
  C   C1256     1.0  0.92710  0.83587  0.89078  1.0000
  C   C1257     1.0  0.90259  0.83772  0.91385  1.0000
  C   C1258     1.0  0.89389  0.80905  0.93340  1.0000
  C   C1259     1.0  0.90915  0.77840  0.92951  1.0000
  C   C1260     1.0  0.93386  0.77674  0.90659  1.0000
  C   C1261     1.0  0.94321  0.80553  0.88752  1.0000
  H   H2031     1.0  0.89084  0.86133  0.91698  1.0000
  H   H2032     1.0  0.83210  0.89661  0.77531  1.0000
  C   C1262     1.0  0.81553  0.82012  0.84278  1.0000
  H   H2033     1.0  0.96272  0.80406  0.87009  1.0000
  C   C1263     1.0  0.77838  0.97452  0.92873  1.0000
  H   H2034     1.0  0.96492  0.93743  0.85963  1.0000
  C   C1264     1.0  0.92126  0.72705  0.72355  1.0000
  C   C1265     1.0  0.70731  0.96720  0.93508  1.0000
  H   H2035     1.0  0.97153  0.85100  0.78506  1.0000
  C   C1266     1.0  0.75968  0.96582  0.95497  1.0000
  C   C1267     1.0  0.92983  0.67355  0.89952  1.0000
  C   C1268     1.0  0.78620  0.83600  0.83513  1.0000
  C   C1269     1.0  0.75921  0.78142  0.83677  1.0000
  C   C1270     1.0  0.82594  0.72140  0.91685  1.0000
  N   N127      1.0  0.70898  0.86977  0.90736  1.0000
  H   H2036     1.0  0.98395  0.97585  0.90390  1.0000
  N   N128      1.0  0.84288  0.93731  0.74187  1.0000
  H   H2037     1.0  0.71267  0.98351  0.89148  1.0000
  H   H2038     1.0  0.69287  0.89133  0.86927  1.0000
  H   H2039     1.0  0.98120  0.98006  0.85339  1.0000
  C   C1271     1.0  0.73158  0.87884  0.92637  1.0000
  C   C1272     1.0  0.98850  0.95327  0.85520  1.0000
  H   H2040     1.0  0.77534  0.98989  0.88595  1.0000
  C   C1273     1.0  0.95383  0.71683  0.71327  1.0000
  H   H2041     1.0  0.89304  0.94413  0.71820  1.0000
  H   H2042     1.0  0.66315  0.88605  0.93028  1.0000
  H   H2043     1.0  0.80108  0.96539  0.72765  1.0000
  S   S512      1.0  0.66414  0.95652  0.93791  1.0000
  C   C1274     1.0  0.67392  0.86326  0.92228  1.0000
  H   H2044     1.0  0.78908  0.93400  0.75713  1.0000
  C   C1275     1.0  0.95505  0.67375  0.94074  1.0000
  C   C1276     1.0  0.76128  0.98177  0.90603  1.0000
  C   C1277     1.0  0.80684  0.93973  0.73737  1.0000
  H   H2045     1.0  0.80067  0.92174  0.72377  1.0000
  H   H2046     1.0  0.92938  0.67001  0.95359  1.0000
  C   C1278     1.0  0.72573  0.97850  0.90922  1.0000
  H   H2047     1.0  0.87386  0.74778  0.71321  1.0000
  H   H2048     1.0  0.98876  0.81021  0.79347  1.0000
  C   C1279     1.0  0.99180  0.94935  0.90358  1.0000
  C   C1280     1.0  0.99041  0.66519  0.89845  1.0000
