data_image0
_chemical_formula_structural       SCH6SC2FeS2FeH2FeS3H4C2H2C6H2CH4CHCH2C2H2SH3C7H3CH3SHFeCH2FeHCH3NHSH2NH7CHCFeHCFeCH2CHCHSH2NH3C2HC2H3SHCH4CSCH3CH2CSH2N2HCHC3FeSHCFeSHS2H2SCHCH10C3SC2NHCFeS2FeS2FeS3H2SH2SC2H3CH2C3H4FeSHC6H4CH2CH2SFeH5CH2SH2NCHSCH2CHFeH3CH3CHCNCHCHCNSFeCH2SHC2H2FeHFeHCS3HS2FeH2C2SH2NC5H2C2HCH4CH2C2FeHC4H3C2H2SC2FeCHS2CHNCH3CHFeHCSHC2H2FeCH2CH7NH2CH2CH2CH4SHCHSHFeH3C4HFeSHSCSFeH3SFeHFeHCHSH2NCH2SHCHCHCHSHC2SHCHFeS2FeS2FeSFeS3C4H4C2H6C2H4C2HCHNHCH3CFeCHSC2H3CHC2HCH3C3H3CH2C2H2C2NC3HCH6C2HCH2SCH2S2NCN2C2HCH2C2NCH3CH2CH2CH5CSFeHCH4CHCFeHNCHSH2CHCH2CH4FeHS3HC2HSCFeSHCFeSFeH3C2HCH2CNSCHC6H4NH5C2HFeC2H2CH5SCNCH4SHCHCSHCH3CH2CHCHC2FeCH4SCH2CH5CHSH2SC5HCH2CFeHSC3H2SCH2CH5C2NH5CFeSFeS2FeSFeS2FeCSFeH2S3CHSH2CHC2H3CH4C6H4C2HC3H5FeHCH3SCH3CHNSFeHSH2CNC4HNCHSCH5S2C3H2C2H5C3H2C2HFeCH2CFeHCHC2NHC2HCHCFeHCHNFeSHSH2CH3SCHSH5C2HCH2CH2NCH6C2HCHC2NCHCHCH3CHSH2CH2SCH2NHC2H3C2H2CNSCH4CHCH2SH2FeCH4CHCHCHNFeS2FeSFeHFeCSH2SH2NH10SC7H3C4HSCH4SCH2C2SCH3SHSHCH6CH3CH4SH6CHFeCHC3H2C6H4C3SCH5SH2SH3SHSHSCSCHC4H2C2SFeCHN2CH3CH6FeCHFeH2CH2FeHC2FeSFeC2SH2SC4H3NH3SH2NCH5CH2C2H4CHSFe2HSH4C2HS2FeH3FeS2FeS2FeSFeS3FeCHFeS2Fe2S3HCHSHCHC2HCNC2HC2H4C3H2C6H4CH2C3HC6HCH7CH6CH3SH2S2H5CSHCHC2H7SHC2H2CN2CNC2H2CH3C2HCH6NH4C2H2SCH2CH3NSCFeSFeS2FeSFeS2FeSHSH3C6H3CHSCHC7H3CH4C2NC4H3CH7SCFeHCHSH2SHCHSH4SCNH2C2HC3FeHNCH5C2H2CHSHFeH7CH4C2H7C2HCS2HCFeHSCFeHFeSNS2C3H3SCH2CH2CSFeCNFeC5H3SH4SH3C2HCH3NC2H5CFeCHCH3C2FeH2FeHSCSFeCSFeSNH2CHSCHCHC6H6CH2C3SH3CH2SCH3CHCHFeH3CHSCHCHC2SC6H5CSCSCH2FeHSCNH3FeSH8S3CH3CHCHSH2CHCHFeHNFe2H2CHFeSHFeCNSFeSFeSHFe2HS3C2SH5CH2C3HSH3NH8CH2NSH2CHCHCFeSFeSHFeSFeS3H2CHCH3C3H3C3H3CHCHCH2SC2H3CH4CHCNHFeSFeSCFeSFeS2H3CH4C2H2C3HCH2CHC2H2SH3CH2NHCHCS3H5C2FeHCSFeH2CH2SH2C2HC2HCHSCHFeSFeS2FeS3H3CFeSH3C8H4C6H4C7H4SHC2H2NFeHCH4NCS2CH2SH2CH2FeCHS2CNH5C2NH2CH4CHCH3CH6S2H4FeSFeC2SHC2H2SHFeCH4CH5SC2HCH5NCHCHN2HCHSH2CHCHCSH3NHCHC2HSC2FeSFeS2FeHFeS3FeHSHC6H4SHSHNSCH6CH2CH5CH3CHC2HCNHC2H4Fe2CSCHFeC4HC3H2CFeC2H2CS2C2H3CSH2CH2C2H7FeSHFeSFeSFeHS2H2C3H2C2H5CH2SHSH3CFeCH3FeC4HC2HCH3C5H2SC2SNC2HCHNH5C3H3CS2H2CH4CHCH2SH5CHNHCFeCHCFeSFeSFe2S2HC3H3SC2H2NHC3NH3CH2SH6SFeS2FeHSHCH2CHC3H3C2H2NCHSFeHC2H3NFeH2CHCS2H4CH3CHCH6C3H2CSHC2HC2H2FeCNH3CH4CSCSCSHC2H2C2H2NH2SHCFeCH4C2HC4H3C3H4C2HSC3HCH4CSH2CSH3CH3SH2CH6NHCHCHCH2SCHSH3CHCH2S2HS2FeC2H6FeSHFeS2FeSHFeSFeS2HCHCHCH2CSC3H2CHC3H2FeC2HCFeH2C2H3CH3C2H3SHC2H3C3SHSC2HN2HCSH3CH4C2H3C2H3C2HC3FeSHS2CH2CHFeNHSCHCH2CH3CH2CH2C2HCH3FeSHFeSHFe2S2HC2H5C7SNH6CHCH4CS2H5CHCH2CHCSHCNH2C3H2CH2CH3CH2SFeS2Fe2S3HCHNH3CHSCHNHCH3CFeC6HC2H2CH3CH3C3H2SH2FeSCHSFeSHFeS3CSHC6H5C5HSHFeH2NCHFeSH4C3SH2SHFeS2FeSFeHSHNSC3HC3H3C3HC2HCHSC2H2NHCHCH2C3FeHCSCH3CH2CNHSHCS2CH5CH3C3NH3C2NH2C2HSFeS2FeS2FeHFeCS2H2NCH4CH2CH3FeHC2HC2H2FeH3CNCH2C3H2C3HCH2CH3NHCH3FeSFeS2FeSFeS3HC3HC4H2C2H2CH2C2H4NH2C3SHNCSH3CH2SC2H3C2H2NHC2H4CSFeS2FeSFeCSCH2C2HCHCHC2HCHCSHCHCH2CSH5CSHSHFeSH2SC3H2NCH6CH2CFeHNC2H3C2H5C2H4FeH2C2H2SHCH5CH2CHSH3C2H3FeH3CNH5CHC2FeS2FeSFeC2HCSH2C6H2C3HSH3CSHCFeNH2SCH4C2H2FeH6C3H2CHSH5SFeS2FeS2Fe2S2C5HCHC4HNH3CH2C4HSH3C2SCH4C3SNSHCH7NHSHSH4CHCNH3C2H2CHNC3HCH4CHC2H2C3H2NC2FeSFeSFeNCH2CHCHCHCHCHSHC2H3CH2SC2H3SHSH3CSC2FeSCHFeS3C6H8CH2SHC2H3C2HCHCHC2H2SH2C2HCH2FeSHSCHC2FeC3H2FeSCH2CH2CHSH2CHSCHFe2SHS2HSCH5CSCNH4C2SNSC2HC2H2FeH2FeCH3C2HSH3CFeCNH4NFeC2SCH3Fe2CH5SHSC2SCNH2CH2CHC5H4CH3CSHCFeH2FeCSH2CFeHCH2SCSHFeHC4H5S2CH2SH3SCS2FeH6FeSHSH2CH5CH5FeSHC2S2HCH2SHFeSFeS2FeSFeS3CH2CHCFeCH3FeCHFeC6H4C6H3SC2SH3NC3NHCH7S2CH3CHC2HNH2CHSCFeSC2HFeSCHFeSCHCH3SCH4CH3CH7CNCH2NH5SH7CH4SCH2SCH5CSH4FeHC2H4C2SCHCSHNH3CHC8FeCH5S2CHS2H3FeHSFeH2CS2CSHFeCHCHNH3C5H4NCSHC6SCHSH2CH3CHCH2C2H3NFeH2C2H3FeNFeS4NHCHC3H2CHCH3SHSHFeH4CHFeCHSH2FeHC2HSH2CH2CHCSHCH2SCH3NCH4NCH4SNCH2CSFeHFeC2HSCHCH3SH2CHC3HSCSH2NCH2CH2CH2C3SCH2SH2SHFeCS2H5CHCS2FeHCH2C2FeSC2HCHCH2CSHFeCSHCH7NC2HCHFeCH4FeHCH3FeC2SNSH3CSHC4H4CH2CHFe2HC4HSCSHFeS2FeSFe2S4H2FeSHCH6SC6H6C6H3NC4H4CHNCH4CHCS2H2C4H2FeH9CHCH3CFeHSCHNHCHC2FeNSH2CH2CH5CHCHCFe2H3SHFeSCFeS2FeS2FeS2FeSHFeSFeS3H3CHC6H5C6H4CH2C3H5NH2NCH3SHCH3NSCH2CH4CH2NC4H3CH11SFeCHCHCHC2HC5HCH2CH5CH3NCHCHC2H2CSC2HCH2CH2CSH9CHSFeS2FeS2FeSFeCS2C2SCHCH2C2HC4H4C2NH3C6H5CH3NHCH2NH2CH2CHC2H2NCHCH14FeHCH4C2S3CH2CFeC2SC2HC3HFeHCH2S2CH3CFeCH5SHCSH2C2H2NH2CH3C2H2CH3CHSCH2FeCH2C3H2NH4C5HCHCSH2SC2H6FeS2FeS2Fe2S2C5H5CH2CSHC2H3C2H2NCH5CH2CH2CH4CH2SHCH3CHCFeCSH2FeHSCHC3H2SNCHCNHS2FeH2CH7CH3CFeCHC5SHSHFeH2SHFeS2FeSHFeHCH2SNSFeS2C3H3C6H3C7H3NHCH4C2SH4SH5SHCSCHFeCH2SH2CHCH4NC3SCFeH2CHSHCH3CH2NH5CNH3C2H2NH2FeC2H6CHCH3C2H3CSH3NCH5CFeC2SHFeSHSCFeS2CH2C7H5C3H3S2C2H2NC4H4FeSH4FeSH2SH7FeH3C2H2SCHSHSC12FeH3CH3SCHSNH4NSHC3H7CHCSH5NCH2CH8SCH2NHFeCHFeSCFeCS4FeSCHSCH2C3SH3C2HFeCH2FeH2CSCH2CNFeCHNCHC2Fe2H3SH3CHCFeHSH3SH3CSHC2SC4HCHCH2SHNCH3CH7CSCHCH3CH4FeHFeS2H4CSC2S2C2HCNC2H2CHCSHCH2FeHFeSFe2CSC2HFeH3FeSH2CSFeSHS2C2H2C3H7SFeH3NHSFeNSCH3SH2SCHFeC2HSHSH14C6HC2H2SHCH2SH2CSCH3NSCH2CHCHC2SCH2CHC2HCH2CHNHC2HCHCHSCHNCH2CHC2H3CH2C2H2FeCH5CH2C2SCHFeNSCSFeH5CHCSCHCH2CFeSHFeSFeSFeS3H4CSCH2C8H4NC3HC6H3CH2NHC2HCHC4H3FeH3CH3SH2SH2CH4FeCN2SHSH2CSHCHCH2CHSH2FeHFeHCHCSHSC2H2CH2CHNCFeCH2FeSC2HS2CFeHSCSH3CNC2HSHSCH2C2H3C3HCHCH3NSH4FeHC2NSFeS2FeSHFeSFeS3FeSFeSFeSHCHCHC2H3C6H4SHC5H3CS2CH13NC3HC2H2CSH4CHCH5CH2CH2CFeH3SC3FeS2HCFeS3H2CH2CH4C2HCNHC7H5CSH4SH2C2HC2H2NFeCH2SCHCFeH4C2H4SHSFeSC3H2NH5SH2FeC3HSH3C2H2FeSHC2HCSCH3CS2H2C2H2S2H3CHFeSCHS3CH5C2SHNHCH3C2NC2HSCFeH3NH3CHCH6SHFeH2C2FeHCH2CSFe2C3HSHC3SHCH2SHSCHSC2HFeS2FeSFe2S3CHC4HCH2CHCH2FeCHSHC2HCHCHCH2C2HC2HSH12CH3CHCH2NHCH3CH3CHCHFeHC2H2C2HC2H4CHCHSH3SCH2CH5NSH8SC2HCSFeC2HSCNFeNFeHCHC2SC2HCHSHC2H2SHC4HC2SH3FeCH2SFeHSC2NHC2HSCH2C2H5CH3CH2FeSHFeS2FeSFeS3HSH2C3SH2C2HNHSCH3C3HFeH4C6H11C2H6CHCH6CH7SHC2H
_chemical_formula_sum              "S768 C1920 H3072 Fe384 N192"
_cell_length_a       69.2312
_cell_length_b       69.3459
_cell_length_c       75.1835
_cell_angle_alpha    73.9746
_cell_angle_beta     74.042
_cell_angle_gamma    74.5021

_space_group_name_H-M_alt    "P 1"
_space_group_IT_number       1

loop_
  _space_group_symop_operation_xyz
  'x, y, z'

loop_
  _atom_site_type_symbol
  _atom_site_label
  _atom_site_symmetry_multiplicity
  _atom_site_fract_x
  _atom_site_fract_y
  _atom_site_fract_z
  _atom_site_occupancy
  S   S1        1.0  0.05144  0.02392  0.11882  1.0000
  C   C1        1.0  0.00224  0.01194  0.11833  1.0000
  H   H1        1.0  0.09672  0.19778  0.09249  1.0000
  H   H2        1.0  0.08730  0.00288  0.18208  1.0000
  H   H3        1.0  0.03670  0.18510  0.12301  1.0000
  H   H4        1.0  0.12774  0.02762  0.17172  1.0000
  H   H5        1.0  0.10812  0.23791  0.13696  1.0000
  H   H6        1.0  0.22817  0.22072  0.09219  1.0000
  S   S2        1.0  0.16391  0.20586  0.09612  1.0000
  C   C2        1.0  0.14422  0.02479  0.20151  1.0000
  C   C3        1.0  0.13163  0.05861  0.18402  1.0000
  Fe  Fe1       1.0  0.08274  0.13933  0.14788  1.0000
  S   S3        1.0  0.10952  0.11468  0.15582  1.0000
  S   S4        1.0  0.08288  0.16978  0.12676  1.0000
  Fe  Fe2       1.0  0.05109  0.11408  0.17153  1.0000
  H   H7        1.0  0.01909  0.17268  0.15598  1.0000
  H   H8        1.0  0.01014  0.15128  0.11118  1.0000
  Fe  Fe3       1.0  0.09281  0.09314  0.15186  1.0000
  S   S5        1.0  0.10960  0.06400  0.14248  1.0000
  S   S6        1.0  0.06413  0.13720  0.17789  1.0000
  S   S7        1.0  0.06776  0.11792  0.14109  1.0000
  H   H9        1.0  0.09018  0.00666  0.13056  1.0000
  H   H10       1.0  0.25461  0.31080  0.00646  1.0000
  H   H11       1.0  0.18152  0.25738  0.10995  1.0000
  H   H12       1.0  0.15605  0.02109  0.18883  1.0000
  C   C4        1.0  0.02511  0.04027  0.17115  1.0000
  C   C5        1.0  0.20753  0.21029  0.12834  1.0000
  H   H13       1.0  0.02032  0.01045  0.20274  1.0000
  H   H14       1.0  0.03414  0.03030  0.16105  1.0000
  C   C6        1.0  0.10636  0.17809  0.11752  1.0000
  C   C7        1.0  0.12217  0.17130  0.12744  1.0000
  C   C8        1.0  0.14000  0.17955  0.12050  1.0000
  C   C9        1.0  0.14216  0.19457  0.10360  1.0000
  C   C10       1.0  0.12659  0.20094  0.09341  1.0000
  C   C11       1.0  0.10874  0.19276  0.10039  1.0000
  H   H15       1.0  0.12050  0.16001  0.14067  1.0000
  H   H16       1.0  0.15203  0.17444  0.12841  1.0000
  C   C12       1.0  0.21833  0.24280  0.11877  1.0000
  H   H17       1.0  0.13801  0.06618  0.19174  1.0000
  H   H18       1.0  0.13279  0.32315  0.05127  1.0000
  H   H19       1.0  0.00998  0.02508  0.14529  1.0000
  H   H20       1.0  0.06496  0.03151  0.16999  1.0000
  C   C13       1.0  0.09376  0.24933  0.09483  1.0000
  H   H21       1.0  0.05504  0.05694  0.17382  1.0000
  C   C14       1.0  0.24622  0.31477  0.02032  1.0000
  H   H22       1.0  0.01578  0.08966  0.12713  1.0000
  H   H23       1.0  0.14031  0.01010  0.21066  1.0000
  C   C15       1.0  0.03368  0.17205  0.11899  1.0000
  C   C16       1.0  0.01711  0.09870  0.15195  1.0000
  H   H24       1.0  0.10554  0.02945  0.22253  1.0000
  H   H25       1.0  0.12828  0.21221  0.08019  1.0000
  S   S8        1.0  0.01785  0.11204  0.18290  1.0000
  H   H26       1.0  0.09648  0.05477  0.20962  1.0000
  H   H27       1.0  0.03349  0.09777  0.14784  1.0000
  H   H28       1.0  0.22371  0.20160  0.12585  1.0000
  C   C17       1.0  0.06762  0.03465  0.12575  1.0000
  C   C18       1.0  0.08587  0.02276  0.13083  1.0000
  C   C19       1.0  0.09885  0.03185  0.13585  1.0000
  C   C20       1.0  0.09337  0.05273  0.13615  1.0000
  C   C21       1.0  0.07483  0.06443  0.13161  1.0000
  C   C22       1.0  0.06206  0.05544  0.12627  1.0000
  C   C23       1.0  0.09544  0.27244  0.11292  1.0000
  H   H29       1.0  0.11313  0.02271  0.13946  1.0000
  H   H30       1.0  0.07061  0.08053  0.13163  1.0000
  H   H31       1.0  0.04800  0.06466  0.12227  1.0000
  C   C24       1.0  0.17406  0.24802  0.98993  1.0000
  H   H32       1.0  0.20995  0.24377  0.08570  1.0000
  H   H33       1.0  0.23487  0.23523  0.11582  1.0000
  H   H34       1.0  0.19785  0.20099  0.12612  1.0000
  S   S9        1.0  0.07476  0.08762  0.18163  1.0000
  H   H35       1.0  0.16993  0.22201  0.01311  1.0000
  Fe  Fe4       1.0  0.16376  0.23444  0.07265  1.0000
  C   C25       1.0  0.03580  0.01430  0.19740  1.0000
  H   H36       1.0  0.07011  0.25128  0.14052  1.0000
  H   H37       1.0  0.04519  0.00384  0.18785  1.0000
  Fe  Fe5       1.0  0.17443  0.25790  0.03199  1.0000
  H   H38       1.0  0.20276  0.21135  0.14350  1.0000
  C   C26       1.0  0.26507  0.28768  0.06660  1.0000
  H   H39       1.0  0.23331  0.26160  0.05950  1.0000
  H   H40       1.0  0.21397  0.24480  0.13364  1.0000
  H   H41       1.0  0.21682  0.25843  0.10931  1.0000
  N   N1        1.0  0.03461  0.03608  0.18753  1.0000
  H   H42       1.0  0.12386  0.23660  0.11372  1.0000
  S   S10       1.0  0.08104  0.99865  0.22249  1.0000
  H   H43       1.0  0.06136  0.11498  0.23409  1.0000
  H   H44       1.0  0.03261  0.17688  0.10384  1.0000
  N   N2        1.0  0.20534  0.23082  0.11554  1.0000
  H   H45       1.0  0.04296  0.01051  0.20985  1.0000
  H   H46       1.0  0.10258  0.04039  0.18160  1.0000
  H   H47       1.0  0.09434  0.27502  0.12715  1.0000
  H   H48       1.0  0.08393  0.28474  0.10615  1.0000
  H   H49       1.0  0.11078  0.27471  0.10408  1.0000
  H   H50       1.0  0.20241  0.21943  0.09275  1.0000
  H   H51       1.0  0.04753  0.15949  0.11998  1.0000
  C   C27       1.0  0.18363  0.24170  0.11924  1.0000
  H   H52       1.0  0.02092  0.06589  0.19377  1.0000
  C   C28       1.0  0.00710  0.09397  0.14030  1.0000
  Fe  Fe6       1.0  0.29381  0.32085  0.05957  1.0000
  H   H53       1.0  0.21219  0.32448  0.04670  1.0000
  C   C29       1.0  0.21178  0.22855  0.09567  1.0000
  Fe  Fe7       1.0  0.08974  0.11071  0.18519  1.0000
  C   C30       1.0  0.10545  0.11624  0.22253  1.0000
  H   H54       1.0  0.11816  0.06981  0.17945  1.0000
  H   H55       1.0  0.14320  0.05597  0.17086  1.0000
  C   C31       1.0  0.09731  0.13718  0.21694  1.0000
  H   H56       1.0  0.03044  0.14696  0.15346  1.0000
  C   C32       1.0  0.01223  0.14744  0.12600  1.0000
  H   H57       1.0  0.01476  0.00136  0.12497  1.0000
  S   S11       1.0  0.10359  0.09833  0.21083  1.0000
  H   H58       1.0  0.25469  0.31407  0.07918  1.0000
  H   H59       1.0  0.21793  0.31375  0.08487  1.0000
  N   N3        1.0  0.12581  0.03932  0.19602  1.0000
  H   H60       1.0  0.09073  0.14281  0.20453  1.0000
  H   H61       1.0  0.11324  0.01517  0.19361  1.0000
  H   H62       1.0  0.15133  0.03126  0.20955  1.0000
  C   C33       1.0  0.09736  0.15084  0.22771  1.0000
  C   C34       1.0  0.11697  0.03019  0.18530  1.0000
  H   H63       1.0  0.22159  0.32351  0.99590  1.0000
  C   C35       1.0  0.16839  0.22914  0.99869  1.0000
  C   C36       1.0  0.11046  0.04366  0.21326  1.0000
  H   H64       1.0  0.00915  0.03765  0.17571  1.0000
  H   H65       1.0  0.15838  0.20386  0.99489  1.0000
  H   H66       1.0  0.06357  0.03654  0.19259  1.0000
  S   S12       1.0  0.19659  0.28885  0.07661  1.0000
  H   H67       1.0  0.24072  0.30097  0.02973  1.0000
  C   C37       1.0  0.05548  0.04046  0.18074  1.0000
  H   H68       1.0  0.09079  0.16699  0.22360  1.0000
  H   H69       1.0  0.00323  0.15418  0.16117  1.0000
  H   H70       1.0  0.02897  0.04649  0.21326  1.0000
  H   H71       1.0  0.02585  0.13462  0.12697  1.0000
  C   C38       1.0  0.07176  0.24948  0.12587  1.0000
  S   S13       1.0  0.16527  0.28860  0.03991  1.0000
  C   C39       1.0  0.22310  0.28766  0.07259  1.0000
  H   H72       1.0  0.10933  0.25021  0.08573  1.0000
  H   H73       1.0  0.99842  0.19596  0.13328  1.0000
  H   H74       1.0  0.17812  0.24346  0.13418  1.0000
  C   C40       1.0  0.25016  0.30248  0.07499  1.0000
  H   H75       1.0  0.11664  0.05056  0.22170  1.0000
  H   H76       1.0  0.27048  0.26127  0.05470  1.0000
  C   C41       1.0  0.10101  0.32082  0.05843  1.0000
  S   S14       1.0  0.19327  0.24290  0.05417  1.0000
  H   H77       1.0  0.06897  0.23402  0.12705  1.0000
  H   H78       1.0  0.10572  0.22029  0.12458  1.0000
  N   N4        1.0  0.09230  0.25182  0.11409  1.0000
  N   N5        1.0  0.01494  0.16534  0.13140  1.0000
  H   H79       1.0  0.00953  0.02264  0.10586  1.0000
  C   C42       1.0  0.10819  0.23601  0.12273  1.0000
  H   H80       1.0  0.09060  0.23434  0.09516  1.0000
  C   C43       1.0  0.02212  0.04933  0.20075  1.0000
  C   C44       1.0  0.22932  0.30225  0.07826  1.0000
  C   C45       1.0  0.25896  0.27266  0.06134  1.0000
  Fe  Fe8       1.0  0.13813  0.27653  0.05905  1.0000
  S   S15       1.0  0.15341  0.26321  0.08353  1.0000
  H   H81       1.0  0.08264  0.26157  0.08753  1.0000
  C   C46       1.0  0.23794  0.27280  0.06410  1.0000
  Fe  Fe9       1.0  0.18157  0.27265  0.06364  1.0000
  S   S16       1.0  0.14592  0.24680  0.04960  1.0000
  H   H82       1.0  0.17347  0.23329  0.11651  1.0000
  S   S17       1.0  0.29118  0.28845  0.06227  1.0000
  S   S18       1.0  0.10542  0.29387  0.06431  1.0000
  H   H83       1.0  0.05942  0.26112  0.11970  1.0000
  H   H84       1.0  0.03754  0.10759  0.23685  1.0000
  S   S19       1.0  0.18659  0.25905  0.00079  1.0000
  C   C47       1.0  0.00585  0.10477  0.16872  1.0000
  H   H85       1.0  0.25751  0.31790  0.02670  1.0000
  C   C48       1.0  0.11407  0.10908  0.23854  1.0000
  H   H86       1.0  0.20778  0.31413  0.01946  1.0000
  H   H87       1.0  0.00424  0.04657  0.12649  1.0000
  H   H88       1.0  0.02447  0.05640  0.16309  1.0000
  H   H89       1.0  0.32449  0.28720  0.10554  1.0000
  H   H90       1.0  0.99859  0.14150  0.13545  1.0000
  H   H91       1.0  0.06824  0.32361  0.06470  1.0000
  H   H92       1.0  0.06128  0.08880  0.23565  1.0000
  H   H93       1.0  0.32213  0.29238  0.08137  1.0000
  H   H94       1.0  0.32801  0.31132  0.09008  1.0000
  H   H95       1.0  0.00621  0.04654  0.20613  1.0000
  C   C49       1.0  0.01697  0.15961  0.15135  1.0000
  C   C50       1.0  0.99732  0.03517  0.13856  1.0000
  C   C51       1.0  0.26401  0.28522  0.47175  1.0000
  S   S20       1.0  0.04029  0.01750  0.31091  1.0000
  C   C52       1.0  0.19378  0.13123  0.35755  1.0000
  C   C53       1.0  0.22075  0.14436  0.33295  1.0000
  N   N6        1.0  0.32896  0.07174  0.37657  1.0000
  H   H96       1.0  0.01577  0.08024  0.32039  1.0000
  C   C54       1.0  0.16966  0.23386  0.43980  1.0000
  Fe  Fe10      1.0  0.10491  0.12875  0.32946  1.0000
  S   S21       1.0  0.08332  0.15520  0.31516  1.0000
  S   S22       1.0  0.12273  0.12829  0.35106  1.0000
  Fe  Fe11      1.0  0.09782  0.09810  0.31048  1.0000
  S   S23       1.0  0.07565  0.12192  0.29514  1.0000
  S   S24       1.0  0.10785  0.06676  0.30338  1.0000
  Fe  Fe12      1.0  0.09791  0.14218  0.28914  1.0000
  S   S25       1.0  0.10318  0.16004  0.25892  1.0000
  S   S26       1.0  0.12133  0.11765  0.30262  1.0000
  S   S27       1.0  0.08302  0.10696  0.33847  1.0000
  H   H97       1.0  0.32367  0.10409  0.36438  1.0000
  H   H98       1.0  0.30617  0.05885  0.39915  1.0000
  S   S28       1.0  0.02826  0.14251  0.32969  1.0000
  H   H99       1.0  0.08064  0.01787  0.28619  1.0000
  H   H100      1.0  0.18406  0.17040  0.33938  1.0000
  S   S29       1.0  0.15386  0.20048  0.36471  1.0000
  C   C55       1.0  0.31689  0.18400  0.37281  1.0000
  C   C56       1.0  0.14925  0.26196  0.45419  1.0000
  H   H101      1.0  0.30015  0.31731  0.46691  1.0000
  H   H102      1.0  0.10041  0.99536  0.35093  1.0000
  H   H103      1.0  0.25867  0.29894  0.47812  1.0000
  C   C57       1.0  0.23833  0.24774  0.41863  1.0000
  H   H104      1.0  0.11971  0.11684  0.26224  1.0000
  H   H105      1.0  0.04569  0.06774  0.26641  1.0000
  C   C58       1.0  0.12598  0.16907  0.34403  1.0000
  C   C59       1.0  0.12917  0.14933  0.35552  1.0000
  C   C60       1.0  0.13893  0.14569  0.37057  1.0000
  H   H106      1.0  0.28251  0.17237  0.39541  1.0000
  H   H107      1.0  0.11839  0.17210  0.33243  1.0000
  H   H108      1.0  0.18976  0.16572  0.31595  1.0000
  H   H109      1.0  0.14248  0.25123  0.46698  1.0000
  Fe  Fe13      1.0  0.17918  0.19270  0.38096  1.0000
  S   S30       1.0  0.21168  0.18917  0.36408  1.0000
  H   H110      1.0  0.20520  0.11750  0.36259  1.0000
  C   C61       1.0  0.05865  0.03205  0.30778  1.0000
  C   C62       1.0  0.05466  0.04644  0.31893  1.0000
  C   C63       1.0  0.06950  0.05757  0.31737  1.0000
  C   C64       1.0  0.08858  0.05391  0.30497  1.0000
  C   C65       1.0  0.09255  0.03956  0.29375  1.0000
  C   C66       1.0  0.07750  0.02884  0.29495  1.0000
  H   H111      1.0  0.04017  0.04881  0.32901  1.0000
  H   H112      1.0  0.06639  0.06862  0.32606  1.0000
  H   H113      1.0  0.10727  0.03686  0.28404  1.0000
  H   H114      1.0  0.30930  0.17040  0.34557  1.0000
  C   C67       1.0  0.20071  0.12448  0.32636  1.0000
  H   H115      1.0  0.17987  0.28111  0.43243  1.0000
  H   H116      1.0  0.16921  0.27183  0.41784  1.0000
  C   C68       1.0  0.28035  0.18723  0.38497  1.0000
  H   H117      1.0  0.31755  0.19681  0.37873  1.0000
  H   H118      1.0  0.03407  0.09941  0.33147  1.0000
  S   S31       1.0  0.23410  0.13137  0.37779  1.0000
  Fe  Fe14      1.0  0.06276  0.13270  0.32218  1.0000
  H   H119      1.0  0.22614  0.15076  0.31760  1.0000
  H   H120      1.0  0.27145  0.18109  0.47076  1.0000
  H   H121      1.0  0.18527  0.12078  0.32911  1.0000
  H   H122      1.0  0.31041  0.14651  0.47317  1.0000
  H   H123      1.0  0.13075  0.19998  0.33824  1.0000
  C   C69       1.0  0.02211  0.10762  0.32379  1.0000
  H   H124      1.0  0.30752  0.05442  0.37635  1.0000
  H   H125      1.0  0.20987  0.10640  0.45434  1.0000
  S   S32       1.0  0.03573  0.00734  0.26476  1.0000
  H   H126      1.0  0.16970  0.15560  0.33385  1.0000
  H   H127      1.0  0.27834  0.21026  0.35005  1.0000
  N   N7        1.0  0.29692  0.18731  0.36770  1.0000
  C   C70       1.0  0.14621  0.16131  0.37370  1.0000
  H   H128      1.0  0.22073  0.15577  0.34089  1.0000
  S   S33       1.0  0.30854  0.28807  0.39014  1.0000
  C   C71       1.0  0.01172  0.09680  0.31757  1.0000
  H   H129      1.0  0.23232  0.13041  0.33732  1.0000
  H   H130      1.0  0.21162  0.10986  0.33046  1.0000
  C   C72       1.0  0.18531  0.15869  0.33129  1.0000
  H   H131      1.0  0.17880  0.12653  0.36101  1.0000
  Fe  Fe15      1.0  0.28703  0.28390  0.41870  1.0000
  H   H132      1.0  0.14115  0.13056  0.37972  1.0000
  H   H133      1.0  0.02215  0.08690  0.26791  1.0000
  H   H134      1.0  0.19216  0.14268  0.36602  1.0000
  C   C73       1.0  0.21910  0.20288  0.47838  1.0000
  H   H135      1.0  0.22919  0.27079  0.48451  1.0000
  H   H136      1.0  0.32990  0.18300  0.36028  1.0000
  H   H137      1.0  0.23602  0.09161  0.47414  1.0000
  C   C74       1.0  0.25276  0.26039  0.41152  1.0000
  H   H138      1.0  0.07931  0.07823  0.26167  1.0000
  C   C75       1.0  0.01672  0.12901  0.32043  1.0000
  N   N8        1.0  0.20015  0.13969  0.33702  1.0000
  C   C76       1.0  0.13303  0.18483  0.34733  1.0000
  H   H139      1.0  0.26511  0.18980  0.38158  1.0000
  C   C77       1.0  0.30884  0.31422  0.47771  1.0000
  H   H140      1.0  0.20549  0.13030  0.31080  1.0000
  C   C78       1.0  0.14352  0.18091  0.36197  1.0000
  N   N9        1.0  0.22733  0.12361  0.46136  1.0000
  S   S34       1.0  0.25635  0.27449  0.42630  1.0000
  Fe  Fe16      1.0  0.31768  0.31188  0.39966  1.0000
  C   C79       1.0  0.29709  0.17073  0.35878  1.0000
  H   H141      1.0  0.16351  0.22230  0.45217  1.0000
  H   H142      1.0  0.25569  0.28790  0.46024  1.0000
  S   S35       1.0  0.23869  0.22820  0.37211  1.0000
  H   H143      1.0  0.28413  0.24655  0.47007  1.0000
  C   C80       1.0  0.17878  0.26705  0.42865  1.0000
  C   C81       1.0  0.11361  0.12262  0.24954  1.0000
  H   H144      1.0  0.28060  0.28429  0.46502  1.0000
  H   H145      1.0  0.22917  0.11596  0.43499  1.0000
  Fe  Fe17      1.0  0.21753  0.20564  0.38339  1.0000
  H   H146      1.0  0.15385  0.15815  0.38523  1.0000
  Fe  Fe18      1.0  0.04700  0.99571  0.29163  1.0000
  H   H147      1.0  0.15983  0.23753  0.42933  1.0000
  C   C82       1.0  0.29323  0.20733  0.35432  1.0000
  S   S36       1.0  0.29722  0.11670  0.45786  1.0000
  S   S37       1.0  0.29086  0.07649  0.43330  1.0000
  S   S38       1.0  0.18301  0.17836  0.45002  1.0000
  H   H148      1.0  0.07866  0.10428  0.26166  1.0000
  S   S39       1.0  0.32109  0.11985  0.41334  1.0000
  S   S40       1.0  0.29390  0.30963  0.42729  1.0000
  Fe  Fe19      1.0  0.30973  0.09574  0.43770  1.0000
  H   H149      1.0  0.19940  0.23967  0.45333  1.0000
  H   H150      1.0  0.19454  0.26017  0.42165  1.0000
  C   C83       1.0  0.10515  0.14349  0.24424  1.0000
  C   C84       1.0  0.32343  0.29596  0.48058  1.0000
  S   S41       1.0  0.18501  0.16346  0.40255  1.0000
  H   H151      1.0  0.02275  0.12262  0.26598  1.0000
  H   H152      1.0  0.12040  0.09292  0.24294  1.0000
  N   N10       1.0  0.26066  0.26631  0.48612  1.0000
  C   C85       1.0  0.30105  0.21083  0.41617  1.0000
  C   C86       1.0  0.22567  0.20267  0.45908  1.0000
  C   C87       1.0  0.26479  0.08262  0.40989  1.0000
  C   C88       1.0  0.31372  0.22520  0.40863  1.0000
  C   C89       1.0  0.25982  0.12533  0.40151  1.0000
  H   H153      1.0  0.30837  0.17343  0.47038  1.0000
  H   H154      1.0  0.21962  0.19555  0.43534  1.0000
  C   C90       1.0  0.30659  0.15890  0.48106  1.0000
  C   C91       1.0  0.27216  0.11309  0.41407  1.0000
  H   H155      1.0  0.24996  0.13815  0.43987  1.0000
  C   C92       1.0  0.21469  0.19512  0.45033  1.0000
  H   H156      1.0  0.08378  0.00717  0.33465  1.0000
  H   H157      1.0  0.17776  0.23517  0.47224  1.0000
  H   H158      1.0  0.26664  0.06611  0.41316  1.0000
  H   H159      1.0  0.27966  0.19957  0.39213  1.0000
  C   C93       1.0  0.27056  0.16596  0.48077  1.0000
  H   H160      1.0  0.30569  0.09119  0.36184  1.0000
  H   H161      1.0  0.27951  0.12023  0.42069  1.0000
  C   C94       1.0  0.19734  0.18732  0.46091  1.0000
  C   C95       1.0  0.21765  0.11959  0.44785  1.0000
  Fe  Fe20      1.0  0.19310  0.18241  0.41827  1.0000
  H   H162      1.0  0.13889  0.26638  0.44407  1.0000
  C   C96       1.0  0.18339  0.24663  0.45949  1.0000
  C   C97       1.0  0.00121  0.13956  0.31050  1.0000
  C   C98       1.0  0.24999  0.11621  0.39308  1.0000
  C   C99       1.0  0.31498  0.09167  0.37161  1.0000
  H   H163      1.0  0.03712  0.11533  0.28420  1.0000
  H   H164      1.0  0.26497  0.23415  0.48731  1.0000
  H   H165      1.0  0.31967  0.16958  0.38372  1.0000
  C   C100      1.0  0.31687  0.05561  0.38576  1.0000
  C   C101      1.0  0.26753  0.24863  0.47691  1.0000
  H   H166      1.0  0.27343  0.15455  0.47199  1.0000
  H   H167      1.0  0.24375  0.14566  0.46211  1.0000
  S   S42       1.0  0.18431  0.21230  0.39815  1.0000
  C   C102      1.0  0.24292  0.10535  0.46725  1.0000
  C   C103      1.0  0.06985  0.09187  0.26725  1.0000
  Fe  Fe21      1.0  0.31165  0.13973  0.43439  1.0000
  C   C104      1.0  0.27470  0.09175  0.41824  1.0000
  H   H168      1.0  0.28452  0.21605  0.41948  1.0000
  S   S43       1.0  0.22654  0.17678  0.40443  1.0000
  S   S44       1.0  0.29369  0.17200  0.42932  1.0000
  C   C105      1.0  0.25262  0.09485  0.39713  1.0000
  H   H169      1.0  0.22299  0.22776  0.41238  1.0000
  N   N11       1.0  0.04963  0.09857  0.26208  1.0000
  C   C106      1.0  0.30972  0.18984  0.41945  1.0000
  H   H170      1.0  0.23902  0.20883  0.45073  1.0000
  H   H171      1.0  0.25817  0.14177  0.39812  1.0000
  H   H172      1.0  0.24497  0.08778  0.39064  1.0000
  C   C107      1.0  0.03854  0.11756  0.26872  1.0000
  H   H173      1.0  0.14912  0.27603  0.45865  1.0000
  Fe  Fe22      1.0  0.31904  0.28610  0.43932  1.0000
  H   H174      1.0  0.25896  0.25062  0.46573  1.0000
  C   C108      1.0  0.05251  0.10264  0.24126  1.0000
  S   S45       1.0  0.31002  0.26049  0.43327  1.0000
  H   H175      1.0  0.23040  0.24600  0.43332  1.0000
  C   C109      1.0  0.23422  0.23735  0.40684  1.0000
  C   C110      1.0  0.24434  0.23984  0.38774  1.0000
  H   H176      1.0  0.29249  0.22018  0.36085  1.0000
  H   H177      1.0  0.30684  0.24136  0.40582  1.0000
  Fe  Fe23      1.0  0.21769  0.16096  0.38654  1.0000
  C   C111      1.0  0.25903  0.25220  0.38072  1.0000
  H   H178      1.0  0.27437  0.27212  0.38688  1.0000
  H   H179      1.0  0.26685  0.25432  0.36595  1.0000
  C   C112      1.0  0.26335  0.26230  0.39259  1.0000
  H   H180      1.0  0.29992  0.15542  0.36854  1.0000
  H   H181      1.0  0.22615  0.15497  0.44656  1.0000
  H   H182      1.0  0.06821  0.08790  0.28288  1.0000
  H   H183      1.0  0.04683  0.13036  0.26168  1.0000
  H   H184      1.0  0.18526  0.22629  0.43314  1.0000
  H   H185      1.0  0.18408  0.26015  0.46436  1.0000
  H   H186      1.0  0.32700  0.04034  0.38946  1.0000
  N   N12       1.0  0.17027  0.25239  0.44553  1.0000
  H   H187      1.0  0.28214  0.17272  0.35494  1.0000
  H   H188      1.0  0.20589  0.13317  0.44304  1.0000
  C   C113      1.0  0.21143  0.12821  0.47821  1.0000
  H   H189      1.0  0.30422  0.09626  0.38443  1.0000
  H   H190      1.0  0.30560  0.20814  0.34122  1.0000
  C   C114      1.0  0.23727  0.14134  0.45212  1.0000
  H   H191      1.0  0.25519  0.10145  0.45491  1.0000
  H   H192      1.0  0.03554  0.07871  0.28685  1.0000
  C   C115      1.0  0.03772  0.08226  0.27114  1.0000
  H   H193      1.0  0.19924  0.14170  0.47424  1.0000
  H   H194      1.0  0.00086  0.04612  0.29421  1.0000
  H   H195      1.0  0.20376  0.11508  0.48567  1.0000
  H   H196      1.0  0.25053  0.10786  0.47744  1.0000
  S   S46       1.0  0.32689  0.27676  0.46816  1.0000
  H   H197      1.0  0.99743  0.15614  0.30750  1.0000
  C   C116      1.0  0.19119  0.18684  0.48039  1.0000
  H   H198      1.0  0.11092  0.99538  0.30860  1.0000
  S   S47       1.0  0.23176  0.21470  0.48827  1.0000
  H   H199      1.0  0.21804  0.13179  0.48856  1.0000
  Fe  Fe24      1.0  0.32835  0.10627  0.46481  1.0000
  H   H200      1.0  0.17779  0.18077  0.48869  1.0000
  H   H201      1.0  0.33028  0.07647  0.40330  1.0000
  H   H202      1.0  0.19691  0.19474  0.50409  1.0000
  C   C117      1.0  0.31488  0.23915  0.56170  1.0000
  C   C118      1.0  0.27227  0.27226  0.58451  1.0000
  C   C119      1.0  0.30953  0.15490  0.55404  1.0000
  C   C120      1.0  0.28910  0.16438  0.56013  1.0000
  H   H203      1.0  0.31310  0.14343  0.54572  1.0000
  Fe  Fe25      1.0  0.19823  0.20353  0.56039  1.0000
  S   S48       1.0  0.26950  0.15788  0.55399  1.0000
  H   H204      1.0  0.29656  0.19556  0.58444  1.0000
  S   S49       1.0  0.21728  0.18214  0.54139  1.0000
  C   C121      1.0  0.30022  0.18427  0.57591  1.0000
  S   S50       1.0  0.20223  0.23207  0.53753  1.0000
  Fe  Fe26      1.0  0.22377  0.21054  0.51998  1.0000
  H   H205      1.0  0.31830  0.15519  0.48978  1.0000
  H   H206      1.0  0.26866  0.18664  0.57552  1.0000
  H   H207      1.0  0.13242  0.03306  0.72230  1.0000
  S   S51       1.0  0.22386  0.20403  0.57332  1.0000
  Fe  Fe27      1.0  0.24311  0.18469  0.55252  1.0000
  H   H208      1.0  0.11498  0.01031  0.70288  1.0000
  Fe  Fe28      1.0  0.22920  0.23108  0.54911  1.0000
  H   H209      1.0  0.28759  0.31045  0.61609  1.0000
  C   C122      1.0  0.32536  0.16038  0.55858  1.0000
  H   H210      1.0  0.30938  0.27425  0.53547  1.0000
  S   S52       1.0  0.06730  0.99704  0.63726  1.0000
  H   H211      1.0  0.26825  0.14107  0.51589  1.0000
  H   H212      1.0  0.13858  0.00109  0.71095  1.0000
  N   N13       1.0  0.32163  0.24172  0.54090  1.0000
  C   C123      1.0  0.27256  0.26315  0.50064  1.0000
  H   H213      1.0  0.27739  0.29929  0.56285  1.0000
  H   H214      1.0  0.02343  0.12921  0.67143  1.0000
  S   S53       1.0  0.25088  0.21164  0.52993  1.0000
  H   H215      1.0  0.99866  0.08680  0.70166  1.0000
  C   C124      1.0  0.24819  0.31858  0.61403  1.0000
  H   H216      1.0  0.26467  0.24434  0.60333  1.0000
  C   C125      1.0  0.11577  0.03278  0.72668  1.0000
  H   H217      1.0  0.25817  0.29337  0.54223  1.0000
  C   C126      1.0  0.28445  0.17930  0.57081  1.0000
  H   H218      1.0  0.03074  0.02915  0.61090  1.0000
  S   S54       1.0  0.16611  0.20101  0.57727  1.0000
  H   H219      1.0  0.24631  0.23779  0.58208  1.0000
  C   C127      1.0  0.17809  0.16120  0.59669  1.0000
  C   C128      1.0  0.14102  0.16779  0.68781  1.0000
  S   S55       1.0  0.32904  0.29434  0.55663  1.0000
  H   H220      1.0  0.11568  0.14927  0.68017  1.0000
  C   C129      1.0  0.00334  0.00625  0.61453  1.0000
  H   H221      1.0  0.02061  0.00734  0.64210  1.0000
  Fe  Fe29      1.0  0.08364  0.12025  0.68426  1.0000
  S   S56       1.0  0.11198  0.09581  0.67981  1.0000
  S   S57       1.0  0.07051  0.13471  0.70960  1.0000
  Fe  Fe30      1.0  0.07289  0.12026  0.64776  1.0000
  S   S58       1.0  0.10046  0.09587  0.63999  1.0000
  S   S59       1.0  0.04787  0.13467  0.63160  1.0000
  Fe  Fe31      1.0  0.09266  0.08040  0.67079  1.0000
  S   S60       1.0  0.09106  0.04722  0.68408  1.0000
  Fe  Fe32      1.0  0.11727  0.11359  0.64948  1.0000
  S   S61       1.0  0.14967  0.11801  0.63535  1.0000
  S   S62       1.0  0.06387  0.10349  0.67778  1.0000
  S   S63       1.0  0.09017  0.13929  0.65474  1.0000
  C   C130      1.0  0.03352  0.11639  0.63419  1.0000
  C   C131      1.0  0.04080  0.09582  0.64206  1.0000
  C   C132      1.0  0.02846  0.08149  0.64607  1.0000
  C   C133      1.0  0.00867  0.08776  0.64252  1.0000
  H   H222      1.0  0.27041  0.24903  0.51175  1.0000
  H   H223      1.0  0.05591  0.09092  0.64522  1.0000
  H   H224      1.0  0.03408  0.06562  0.65241  1.0000
  H   H225      1.0  0.01242  0.05064  0.61832  1.0000
  C   C134      1.0  0.08791  0.13610  0.72213  1.0000
  C   C135      1.0  0.10826  0.12522  0.71897  1.0000
  H   H226      1.0  0.29217  0.25880  0.53575  1.0000
  H   H227      1.0  0.02378  0.11383  0.70574  1.0000
  H   H228      1.0  0.11375  0.11632  0.70818  1.0000
  H   H229      1.0  0.23554  0.25418  0.50596  1.0000
  H   H230      1.0  0.29886  0.23671  0.56675  1.0000
  H   H231      1.0  0.17136  0.13565  0.68047  1.0000
  C   C136      1.0  0.15392  0.14073  0.61842  1.0000
  C   C137      1.0  0.13764  0.15705  0.61448  1.0000
  H   H232      1.0  0.14957  0.18481  0.65022  1.0000
  H   H233      1.0  0.12199  0.15555  0.62113  1.0000
  H   H234      1.0  0.28229  0.19156  0.49454  1.0000
  H   H235      1.0  0.12893  0.18801  0.59884  1.0000
  C   C138      1.0  0.08284  0.04200  0.65198  1.0000
  C   C139      1.0  0.08364  0.03388  0.67105  1.0000
  H   H236      1.0  0.08643  0.05688  0.64506  1.0000
  C   C140      1.0  0.07773  0.03066  0.64169  1.0000
  H   H237      1.0  0.29235  0.17248  0.51345  1.0000
  N   N14       1.0  0.25661  0.32386  0.62774  1.0000
  H   H238      1.0  0.02058  0.09355  0.68392  1.0000
  C   C141      1.0  0.27052  0.28596  0.56721  1.0000
  H   H239      1.0  0.16010  0.12815  0.66528  1.0000
  H   H240      1.0  0.13141  0.15983  0.70079  1.0000
  H   H241      1.0  0.15547  0.16790  0.69154  1.0000
  C   C142      1.0  0.12562  0.15751  0.66770  1.0000
  Fe  Fe33      1.0  0.30659  0.29876  0.58358  1.0000
  C   C143      1.0  0.31974  0.22357  0.53536  1.0000
  H   H242      1.0  0.16134  0.16126  0.64267  1.0000
  S   S64       1.0  0.32890  0.10290  0.49521  1.0000
  C   C144      1.0  0.31599  0.32425  0.50354  1.0000
  C   C145      1.0  0.01405  0.12253  0.62986  1.0000
  H   H243      1.0  0.12833  0.14977  0.65585  1.0000
  H   H244      1.0  0.00844  0.13846  0.62373  1.0000
  H   H245      1.0  0.07736  0.03695  0.62690  1.0000
  C   C146      1.0  0.14159  0.17543  0.60182  1.0000
  H   H246      1.0  0.26571  0.17726  0.51321  1.0000
  C   C147      1.0  0.15653  0.13623  0.67707  1.0000
  C   C148      1.0  0.16180  0.17757  0.59285  1.0000
  H   H247      1.0  0.23912  0.30624  0.65192  1.0000
  C   C149      1.0  0.07890  0.01455  0.67988  1.0000
  H   H248      1.0  0.31542  0.25287  0.56637  1.0000
  H   H249      1.0  0.01171  0.04362  0.59728  1.0000
  H   H250      1.0  0.07940  0.00818  0.69463  1.0000
  C   C150      1.0  0.15775  0.16875  0.65486  1.0000
  C   C151      1.0  0.27634  0.30958  0.62988  1.0000
  C   C152      1.0  0.25104  0.26512  0.56073  1.0000
  H   H251      1.0  0.25885  0.31964  0.59987  1.0000
  H   H252      1.0  0.18682  0.13033  0.61250  1.0000
  H   H253      1.0  0.28334  0.31315  0.63995  1.0000
  C   C153      1.0  0.00675  0.11879  0.70896  1.0000
  H   H254      1.0  0.00063  0.01157  0.59987  1.0000
  H   H255      1.0  0.17264  0.16927  0.65746  1.0000
  C   C154      1.0  0.30853  0.26016  0.53159  1.0000
  C   C155      1.0  0.17414  0.14288  0.60950  1.0000
  H   H256      1.0  0.14743  0.12722  0.68964  1.0000
  H   H257      1.0  0.11675  0.17333  0.66345  1.0000
  C   C156      1.0  0.07306  0.01132  0.65051  1.0000
  C   C157      1.0  0.07344  0.00337  0.66969  1.0000
  N   N15       1.0  0.14524  0.15758  0.67187  1.0000
  C   C158      1.0  0.01441  0.03736  0.61189  1.0000
  C   C159      1.0  0.32064  0.17482  0.56976  1.0000
  C   C160      1.0  0.00447  0.01590  0.64261  1.0000
  H   H258      1.0  0.13262  0.18396  0.68430  1.0000
  C   C161      1.0  0.00368  0.09846  0.68887  1.0000
  H   H259      1.0  0.08256  0.02073  0.72495  1.0000
  H   H260      1.0  0.30369  0.22110  0.54009  1.0000
  H   H261      1.0  0.28651  0.12797  0.49855  1.0000
  H   H262      1.0  0.19372  0.16270  0.58985  1.0000
  H   H263      1.0  0.29513  0.13562  0.51542  1.0000
  H   H264      1.0  0.00222  0.02856  0.64983  1.0000
  C   C162      1.0  0.28139  0.17619  0.50397  1.0000
  C   C163      1.0  0.23858  0.26828  0.49514  1.0000
  H   H265      1.0  0.23288  0.28124  0.50255  1.0000
  C   C164      1.0  0.26330  0.25501  0.58997  1.0000
  H   H266      1.0  0.00300  0.13422  0.71228  1.0000
  H   H267      1.0  0.10862  0.04230  0.71468  1.0000
  S   S65       1.0  0.32966  0.30370  0.59683  1.0000
  C   C165      1.0  0.25296  0.25126  0.57795  1.0000
  H   H268      1.0  0.27448  0.29335  0.63497  1.0000
  H   H269      1.0  0.26757  0.27619  0.50794  1.0000
  S   S66       1.0  0.23848  0.26114  0.54504  1.0000
  S   S67       1.0  0.28604  0.27635  0.59915  1.0000
  N   N16       1.0  0.11236  0.01160  0.73173  1.0000
  C   C166      1.0  0.25964  0.28256  0.55552  1.0000
  N   N17       1.0  0.00023  0.02370  0.62341  1.0000
  N   N18       1.0  0.99811  0.11918  0.69289  1.0000
  C   C167      1.0  0.00148  0.10824  0.63425  1.0000
  C   C168      1.0  0.24196  0.32211  0.64630  1.0000
  H   H270      1.0  0.31323  0.26257  0.51589  1.0000
  C   C169      1.0  0.08079  0.14719  0.73647  1.0000
  H   H271      1.0  0.00051  0.10802  0.72203  1.0000
  H   H272      1.0  0.01920  0.99684  0.61388  1.0000
  C   C170      1.0  0.28372  0.14039  0.50623  1.0000
  C   C171      1.0  0.00645  0.13384  0.67594  1.0000
  N   N19       1.0  0.28559  0.16034  0.49298  1.0000
  C   C172      1.0  0.12176  0.00175  0.71538  1.0000
  H   H273      1.0  0.99992  0.13478  0.66369  1.0000
  H   H274      1.0  0.24580  0.30251  0.61870  1.0000
  H   H275      1.0  0.00302  0.14956  0.67854  1.0000
  C   C173      1.0  0.09007  0.01205  0.73699  1.0000
  H   H276      1.0  0.32963  0.20945  0.54191  1.0000
  H   H277      1.0  0.32447  0.22509  0.51974  1.0000
  C   C174      1.0  0.20204  0.19466  0.48914  1.0000
  H   H278      1.0  0.32476  0.22569  0.56919  1.0000
  H   H279      1.0  0.00127  0.99751  0.73713  1.0000
  C   C175      1.0  0.12139  0.12536  0.73023  1.0000
  H   H280      1.0  0.13705  0.11672  0.72798  1.0000
  H   H281      1.0  0.28927  0.26181  0.49422  1.0000
  H   H282      1.0  0.25453  0.16718  0.48933  1.0000
  H   H283      1.0  0.24788  0.32591  0.65700  1.0000
  H   H284      1.0  0.13182  0.03411  0.83491  1.0000
  C   C176      1.0  0.17571  0.32605  0.90032  1.0000
  S   S68       1.0  0.13014  0.13543  0.75953  1.0000
  Fe  Fe34      1.0  0.11111  0.13909  0.78837  1.0000
  H   H285      1.0  0.02728  0.12297  0.77669  1.0000
  C   C177      1.0  0.12295  0.30531  0.92691  1.0000
  H   H286      1.0  0.16303  0.31788  0.90288  1.0000
  H   H287      1.0  0.10665  0.32197  0.87862  1.0000
  H   H288      1.0  0.11065  0.03302  0.85495  1.0000
  H   H289      1.0  0.20216  0.21497  0.95079  1.0000
  C   C178      1.0  0.11141  0.31738  0.89199  1.0000
  H   H290      1.0  0.08135  0.20976  0.80479  1.0000
  C   C179      1.0  0.22346  0.23071  0.96631  1.0000
  Fe  Fe35      1.0  0.08045  0.00287  0.79827  1.0000
  H   H291      1.0  0.06948  0.23651  0.80021  1.0000
  N   N20       1.0  0.05228  0.09778  0.77090  1.0000
  C   C180      1.0  0.99988  0.11208  0.82017  1.0000
  H   H292      1.0  0.05163  0.12574  0.77850  1.0000
  S   S69       1.0  0.08789  0.03397  0.78486  1.0000
  H   H293      1.0  0.09912  0.00801  0.84270  1.0000
  H   H294      1.0  0.01811  0.22920  0.82990  1.0000
  C   C181      1.0  0.07469  0.09423  0.76320  1.0000
  H   H295      1.0  0.11188  0.06336  0.78104  1.0000
  C   C182      1.0  0.16193  0.21885  0.98834  1.0000
  H   H296      1.0  0.05373  0.06928  0.79155  1.0000
  H   H297      1.0  0.03473  0.19209  0.83602  1.0000
  C   C183      1.0  0.04799  0.08601  0.79068  1.0000
  H   H298      1.0  0.01289  0.02128  0.82166  1.0000
  H   H299      1.0  0.21894  0.21715  0.92775  1.0000
  H   H300      1.0  0.02388  0.09484  0.83497  1.0000
  H   H301      1.0  0.10772  0.17966  0.91733  1.0000
  Fe  Fe36      1.0  0.17214  0.21088  0.88701  1.0000
  H   H302      1.0  0.20790  0.30963  0.86775  1.0000
  S   S70       1.0  0.17027  0.18298  0.87784  1.0000
  S   S71       1.0  0.15593  0.21320  0.95561  1.0000
  S   S72       1.0  0.14516  0.22867  0.90434  1.0000
  H   H303      1.0  0.08243  0.01951  0.74920  1.0000
  C   C184      1.0  0.16091  0.22754  0.96932  1.0000
  C   C185      1.0  0.04236  0.09099  0.75929  1.0000
  H   H304      1.0  0.10413  0.99998  0.87510  1.0000
  S   S73       1.0  0.19203  0.20438  0.90806  1.0000
  C   C186      1.0  0.24139  0.20038  0.95421  1.0000
  Fe  Fe37      1.0  0.09513  0.11403  0.82667  1.0000
  S   S74       1.0  0.07397  0.14119  0.83721  1.0000
  H   H305      1.0  0.03269  0.24780  0.81469  1.0000
  C   C187      1.0  0.10445  0.07123  0.80825  1.0000
  Fe  Fe38      1.0  0.10047  0.15720  0.82351  1.0000
  S   S75       1.0  0.10170  0.18295  0.83622  1.0000
  Fe  Fe39      1.0  0.06656  0.15101  0.80850  1.0000
  H   H306      1.0  0.05427  0.19814  0.84414  1.0000
  H   H307      1.0  0.13152  0.16683  0.90461  1.0000
  H   H308      1.0  0.20573  0.23977  0.93651  1.0000
  C   C188      1.0  0.02077  0.14441  0.81055  1.0000
  C   C189      1.0  0.04973  0.19700  0.83141  1.0000
  H   H309      1.0  0.24723  0.19349  0.94149  1.0000
  C   C190      1.0  0.02838  0.12548  0.82152  1.0000
  H   H310      1.0  0.25467  0.19871  0.96053  1.0000
  H   H311      1.0  0.12753  0.30059  0.94039  1.0000
  C   C191      1.0  0.12180  0.99978  0.74794  1.0000
  N   N21       1.0  0.23111  0.22212  0.94913  1.0000
  S   S76       1.0  0.09159  0.16862  0.79514  1.0000
  C   C192      1.0  0.12754  0.15023  0.94195  1.0000
  H   H312      1.0  0.05546  0.09059  0.79982  1.0000
  C   C193      1.0  0.15154  0.18346  0.86569  1.0000
  C   C194      1.0  0.13587  0.20071  0.86253  1.0000
  C   C195      1.0  0.12075  0.20028  0.85347  1.0000
  C   C196      1.0  0.12121  0.18269  0.84739  1.0000
  C   C197      1.0  0.13686  0.16543  0.85056  1.0000
  C   C198      1.0  0.15191  0.16582  0.85975  1.0000
  H   H313      1.0  0.13543  0.21439  0.86704  1.0000
  H   H314      1.0  0.10871  0.21371  0.85105  1.0000
  H   H315      1.0  0.13737  0.15181  0.84595  1.0000
  H   H316      1.0  0.16398  0.15240  0.86217  1.0000
  N   N22       1.0  0.13269  0.17035  0.93186  1.0000
  H   H317      1.0  0.04221  0.22834  0.78922  1.0000
  H   H318      1.0  0.02783  0.20952  0.80448  1.0000
  H   H319      1.0  0.06890  0.03204  0.82456  1.0000
  H   H320      1.0  0.13631  0.02700  0.85852  1.0000
  H   H321      1.0  0.13441  0.13868  0.93297  1.0000
  C   C199      1.0  0.13092  0.29281  0.91367  1.0000
  C   C200      1.0  0.04303  0.21399  0.80042  1.0000
  H   H322      1.0  0.04237  0.12316  0.82631  1.0000
  Fe  Fe40      1.0  0.20232  0.23343  0.89159  1.0000
  C   C201      1.0  0.03368  0.23288  0.82519  1.0000
  C   C202      1.0  0.07910  0.04266  0.82006  1.0000
  H   H323      1.0  0.16188  0.16301  0.93979  1.0000
  H   H324      1.0  0.21205  0.22243  0.97702  1.0000
  C   C203      1.0  0.08055  0.05331  0.83288  1.0000
  H   H325      1.0  0.25900  0.23357  0.94112  1.0000
  H   H326      1.0  0.04539  0.09959  0.74424  1.0000
  H   H327      1.0  0.12701  0.20061  0.93704  1.0000
  H   H328      1.0  0.12940  0.18039  0.95743  1.0000
  H   H329      1.0  0.05424  0.20165  0.79392  1.0000
  S   S77       1.0  0.03456  0.16414  0.80368  1.0000
  C   C204      1.0  0.11405  0.13604  0.74489  1.0000
  N   N23       1.0  0.04897  0.21645  0.81699  1.0000
  C   C205      1.0  0.12340  0.18525  0.94421  1.0000
  H   H330      1.0  0.07456  0.22343  0.82326  1.0000
  H   H331      1.0  0.29030  0.31356  0.98623  1.0000
  H   H332      1.0  0.12859  0.19270  0.90614  1.0000
  H   H333      1.0  0.16284  0.15717  0.91754  1.0000
  S   S78       1.0  0.09437  0.08155  0.84275  1.0000
  H   H334      1.0  0.15952  0.18306  0.91914  1.0000
  C   C206      1.0  0.15522  0.16820  0.92695  1.0000
  H   H335      1.0  0.03778  0.23506  0.83774  1.0000
  C   C207      1.0  0.12470  0.17769  0.91430  1.0000
  S   S79       1.0  0.12261  0.12885  0.81547  1.0000
  H   H336      1.0  0.11063  0.15127  0.94583  1.0000
  C   C208      1.0  0.09309  0.06774  0.82693  1.0000
  H   H337      1.0  0.13342  0.14423  0.95523  1.0000
  H   H338      1.0  0.23833  0.25020  0.93066  1.0000
  H   H339      1.0  0.12031  0.01110  0.82271  1.0000
  C   C209      1.0  0.09038  0.04627  0.80135  1.0000
  H   H340      1.0  0.10639  0.18729  0.94829  1.0000
  H   H341      1.0  0.07158  0.05075  0.84727  1.0000
  C   C210      1.0  0.01784  0.10945  0.82648  1.0000
  H   H342      1.0  0.04638  0.12911  0.75560  1.0000
  C   C211      1.0  0.06941  0.22186  0.81101  1.0000
  H   H343      1.0  0.04825  0.07437  0.75940  1.0000
  C   C212      1.0  0.00252  0.14726  0.80457  1.0000
  C   C213      1.0  0.10306  0.06054  0.79548  1.0000
  Fe  Fe41      1.0  0.16593  0.22438  0.92396  1.0000
  C   C214      1.0  0.24583  0.23385  0.93521  1.0000
  H   H344      1.0  0.11444  0.08213  0.80366  1.0000
  H   H345      1.0  0.20831  0.27283  0.87282  1.0000
  H   H346      1.0  0.17639  0.27172  0.96441  1.0000
  H   H347      1.0  0.25215  0.22753  0.92218  1.0000
  S   S80       1.0  0.08516  0.12256  0.79915  1.0000
  C   C215      1.0  0.21371  0.22355  0.94071  1.0000
  H   H348      1.0  0.06129  0.18444  0.82571  1.0000
  H   H349      1.0  0.14113  0.27837  0.91724  1.0000
  C   C216      1.0  0.24876  0.29000  0.88874  1.0000
  H   H350      1.0  0.07841  0.10235  0.74813  1.0000
  H   H351      1.0  0.03123  0.08836  0.79693  1.0000
  H   H352      1.0  0.23609  0.22979  0.97318  1.0000
  H   H353      1.0  0.01506  0.01262  0.86360  1.0000
  H   H354      1.0  0.08802  0.15535  0.75919  1.0000
  C   C217      1.0  0.10963  0.32414  0.92245  1.0000
  H   H355      1.0  0.08144  0.07766  0.76384  1.0000
  S   S81       1.0  0.23445  0.23667  0.88943  1.0000
  H   H356      1.0  0.08270  0.09975  0.77121  1.0000
  H   H357      1.0  0.00835  0.00273  0.76580  1.0000
  S   S82       1.0  0.18471  0.23856  0.86900  1.0000
  C   C218      1.0  0.17219  0.25705  0.97121  1.0000
  C   C219      1.0  0.12590  0.29926  0.89585  1.0000
  C   C220      1.0  0.24967  0.26902  0.89066  1.0000
  C   C221      1.0  0.23345  0.30469  0.88076  1.0000
  C   C222      1.0  0.21925  0.29838  0.87462  1.0000
  H   H358      1.0  0.26177  0.25768  0.89643  1.0000
  C   C223      1.0  0.16533  0.24699  0.96106  1.0000
  H   H359      1.0  0.16372  0.25422  0.94677  1.0000
  H   H360      1.0  0.23060  0.19115  0.96468  1.0000
  C   C224      1.0  0.21959  0.27752  0.87731  1.0000
  Fe  Fe42      1.0  0.15908  0.25587  0.88816  1.0000
  H   H361      1.0  0.13859  0.99925  0.74450  1.0000
  S   S83       1.0  0.13848  0.28572  0.87785  1.0000
  C   C225      1.0  0.23476  0.26278  0.88536  1.0000
  C   C226      1.0  0.09373  0.14694  0.74799  1.0000
  C   C227      1.0  0.12671  0.02532  0.84957  1.0000
  H   H362      1.0  0.25999  0.29482  0.89319  1.0000
  H   H363      1.0  0.21575  0.24717  0.96294  1.0000
  S   S84       1.0  0.17783  0.25299  0.90909  1.0000
  C   C228      1.0  0.04404  0.11986  0.77039  1.0000
  H   H364      1.0  0.99819  0.04705  0.82072  1.0000
  H   H365      1.0  0.01876  0.03804  0.83301  1.0000
  C   C229      1.0  0.00599  0.03344  0.82997  1.0000
  H   H366      1.0  0.11484  0.00663  0.76059  1.0000
  H   H367      1.0  0.02540  0.09346  0.76472  1.0000
  H   H368      1.0  0.18860  0.31485  0.90605  1.0000
  H   H369      1.0  0.17387  0.32651  0.93641  1.0000
  H   H370      1.0  0.15614  0.00122  0.82860  1.0000
  C   C230      1.0  0.00260  0.00846  0.85964  1.0000
  C   C231      1.0  0.11575  0.00214  0.83740  1.0000
  N   N24       1.0  0.12817  0.00353  0.84999  1.0000
  H   H371      1.0  0.00983  0.99563  0.85216  1.0000
  H   H372      1.0  0.08698  0.99625  0.74107  1.0000
  H   H373      1.0  0.15974  0.99463  0.85252  1.0000
  H   H374      1.0  0.06515  0.15586  0.73884  1.0000
  H   H375      1.0  0.10901  0.04046  0.73886  1.0000
  C   C232      1.0  0.14984  0.99376  0.84345  1.0000
  Fe  Fe43      1.0  0.12886  0.44013  0.00116  1.0000
  S   S85       1.0  0.10241  0.44226  0.02610  1.0000
  Fe  Fe44      1.0  0.15671  0.40837  0.02399  1.0000
  S   S86       1.0  0.13321  0.40705  0.05152  1.0000
  S   S87       1.0  0.18961  0.39285  0.01665  1.0000
  Fe  Fe45      1.0  0.11158  0.40794  0.03377  1.0000
  S   S88       1.0  0.08589  0.39086  0.04415  1.0000
  Fe  Fe46      1.0  0.12586  0.44138  0.04194  1.0000
  S   S89       1.0  0.13576  0.40587  0.00718  1.0000
  S   S90       1.0  0.15140  0.44252  0.01628  1.0000
  Fe  Fe47      1.0  0.27016  0.36244  0.06682  1.0000
  C   C233      1.0  0.00598  0.49322  0.13514  1.0000
  S   S91       1.0  0.23885  0.37854  0.07950  1.0000
  Fe  Fe48      1.0  0.30042  0.35963  0.02979  1.0000
  H   H376      1.0  0.31687  0.41564  0.09722  1.0000
  H   H377      1.0  0.06158  0.46011  0.09121  1.0000
  S   S92       1.0  0.30399  0.37393  0.99865  1.0000
  S   S93       1.0  0.27278  0.34605  0.04418  1.0000
  S   S94       1.0  0.29629  0.37823  0.05131  1.0000
  C   C234      1.0  0.20102  0.44376  0.11445  1.0000
  H   H378      1.0  0.11704  0.48494  0.08850  1.0000
  S   S95       1.0  0.14869  0.43320  0.13668  1.0000
  H   H379      1.0  0.30125  0.49154  0.11040  1.0000
  H   H380      1.0  0.18604  0.41079  0.11748  1.0000
  C   C235      1.0  0.03176  0.59952  0.18234  1.0000
  H   H381      1.0  0.06980  0.38047  0.01663  1.0000
  C   C236      1.0  0.31329  0.50017  0.10882  1.0000
  C   C237      1.0  0.08069  0.33176  0.06008  1.0000
  H   H382      1.0  0.04981  0.52081  0.23387  1.0000
  H   H383      1.0  0.18421  0.44799  0.11504  1.0000
  H   H384      1.0  0.20736  0.45771  0.10692  1.0000
  C   C238      1.0  0.14821  0.42951  0.10145  1.0000
  H   H385      1.0  0.04512  0.53220  0.20054  1.0000
  H   H386      1.0  0.20996  0.39485  0.10898  1.0000
  H   H387      1.0  0.15641  0.41386  0.10523  1.0000
  H   H388      1.0  0.05726  0.37808  0.99963  1.0000
  C   C239      1.0  0.20249  0.39182  0.03401  1.0000
  C   C240      1.0  0.19216  0.39026  0.05301  1.0000
  C   C241      1.0  0.20322  0.38689  0.06707  1.0000
  C   C242      1.0  0.22453  0.38520  0.06202  1.0000
  C   C243      1.0  0.23458  0.38799  0.04292  1.0000
  C   C244      1.0  0.22362  0.39107  0.02894  1.0000
  H   H389      1.0  0.17585  0.39069  0.05700  1.0000
  H   H390      1.0  0.19539  0.38479  0.08184  1.0000
  H   H391      1.0  0.25089  0.38764  0.03888  1.0000
  H   H392      1.0  0.23160  0.39274  0.01422  1.0000
  C   C245      1.0  0.09229  0.36394  0.04978  1.0000
  C   C246      1.0  0.07636  0.35321  0.05576  1.0000
  H   H393      1.0  0.06058  0.36151  0.05708  1.0000
  C   C247      1.0  0.03234  0.47235  0.15190  1.0000
  C   C248      1.0  0.23694  0.35032  0.00504  1.0000
  C   C249      1.0  0.20291  0.40809  0.11591  1.0000
  H   H394      1.0  0.21215  0.44624  0.07699  1.0000
  H   H395      1.0  0.01129  0.49460  0.21563  1.0000
  H   H396      1.0  0.24017  0.43573  0.09478  1.0000
  H   H397      1.0  0.20533  0.35075  0.03540  1.0000
  H   H398      1.0  0.14551  0.42631  0.07459  1.0000
  Fe  Fe49      1.0  0.07488  0.45155  0.16762  1.0000
  H   H399      1.0  0.01603  0.43676  0.19672  1.0000
  C   C250      1.0  0.00688  0.51037  0.14100  1.0000
  H   H400      1.0  0.10793  0.37600  0.00902  1.0000
  H   H401      1.0  0.09471  0.45186  0.22894  1.0000
  H   H402      1.0  0.31409  0.51139  0.09495  1.0000
  S   S96       1.0  0.04815  0.44845  0.15828  1.0000
  C   C251      1.0  0.23344  0.42226  0.10328  1.0000
  H   H403      1.0  0.12927  0.47299  0.11848  1.0000
  H   H404      1.0  0.12509  0.36135  0.04344  1.0000
  H   H405      1.0  0.07287  0.35582  0.01168  1.0000
  C   C252      1.0  0.11271  0.35311  0.04805  1.0000
  H   H406      1.0  0.06184  0.40621  0.11798  1.0000
  N   N25       1.0  0.21101  0.42656  0.10482  1.0000
  S   S97       1.0  0.11893  0.46436  0.05999  1.0000
  Fe  Fe50      1.0  0.12136  0.44449  0.15828  1.0000
  H   H407      1.0  0.24143  0.40924  0.09620  1.0000
  S   S98       1.0  0.12260  0.45279  0.18477  1.0000
  H   H408      1.0  0.05007  0.42859  0.12769  1.0000
  H   H409      1.0  0.22911  0.34155  0.04319  1.0000
  C   C253      1.0  0.03901  0.51821  0.20270  1.0000
  N   N26       1.0  0.07728  0.43142  0.10575  1.0000
  C   C254      1.0  0.07194  0.45409  0.10138  1.0000
  C   C255      1.0  0.05835  0.42327  0.11437  1.0000
  C   C256      1.0  0.09112  0.42424  0.11919  1.0000
  C   C257      1.0  0.08769  0.42411  0.08810  1.0000
  H   H410      1.0  0.06415  0.46009  0.11443  1.0000
  N   N27       1.0  0.08979  0.37633  0.98989  1.0000
  C   C258      1.0  0.13240  0.46264  0.10916  1.0000
  H   H411      1.0  0.04762  0.42836  0.10455  1.0000
  S   S99       1.0  0.09365  0.41164  0.22634  1.0000
  C   C259      1.0  0.12581  0.46949  0.09206  1.0000
  H   H412      1.0  0.08363  0.42915  0.13281  1.0000
  H   H413      1.0  0.10528  0.43059  0.11333  1.0000
  H   H414      1.0  0.09155  0.40707  0.09073  1.0000
  H   H415      1.0  0.10230  0.42954  0.08151  1.0000
  H   H416      1.0  0.07801  0.42978  0.07733  1.0000
  S   S100      1.0  0.09929  0.42370  0.17305  1.0000
  S   S101      1.0  0.09674  0.47164  0.15033  1.0000
  C   C260      1.0  0.04430  0.41138  0.21531  1.0000
  C   C261      1.0  0.03351  0.48951  0.15763  1.0000
  C   C262      1.0  0.29563  0.34006  0.99239  1.0000
  H   H417      1.0  0.20596  0.40338  0.13044  1.0000
  H   H418      1.0  0.09595  0.40723  0.12249  1.0000
  C   C263      1.0  0.00899  0.41483  0.23280  1.0000
  C   C264      1.0  0.01851  0.47419  0.14077  1.0000
  H   H419      1.0  0.23727  0.41804  0.11748  1.0000
  H   H420      1.0  0.20299  0.43970  0.12933  1.0000
  H   H421      1.0  0.21433  0.41973  0.07781  1.0000
  H   H422      1.0  0.08588  0.46074  0.09478  1.0000
  H   H423      1.0  0.00367  0.62153  0.17931  1.0000
  C   C265      1.0  0.13010  0.45628  0.07976  1.0000
  C   C266      1.0  0.14183  0.43646  0.08418  1.0000
  C   C267      1.0  0.20664  0.43215  0.08565  1.0000
  H   H424      1.0  0.18988  0.43492  0.08630  1.0000
  H   H425      1.0  0.04424  0.48808  0.16623  1.0000
  C   C268      1.0  0.14302  0.44247  0.11416  1.0000
  C   C269      1.0  0.02511  0.60916  0.21766  1.0000
  H   H426      1.0  0.05866  0.63025  0.22935  1.0000
  Fe  Fe51      1.0  0.09622  0.47855  0.17792  1.0000
  C   C270      1.0  0.21419  0.32747  0.00996  1.0000
  H   H427      1.0  0.11034  0.35151  0.00405  1.0000
  H   H428      1.0  0.04464  0.44130  0.23063  1.0000
  C   C271      1.0  0.32896  0.40204  0.09716  1.0000
  Fe  Fe52      1.0  0.00455  0.58754  0.15973  1.0000
  H   H429      1.0  0.10590  0.48416  0.21131  1.0000
  C   C272      1.0  0.06830  0.64046  0.23002  1.0000
  H   H430      1.0  0.24851  0.35432  0.01044  1.0000
  C   C273      1.0  0.01953  0.44265  0.20760  1.0000
  C   C274      1.0  0.02218  0.49215  0.22490  1.0000
  N   N28       1.0  0.05552  0.65860  0.23729  1.0000
  H   H431      1.0  0.01758  0.46096  0.13633  1.0000
  C   C275      1.0  0.10026  0.49938  0.21413  1.0000
  C   C276      1.0  0.10850  0.36826  0.99768  1.0000
  H   H432      1.0  0.05823  0.49524  0.23007  1.0000
  C   C277      1.0  0.10086  0.50287  0.23148  1.0000
  H   H433      1.0  0.30811  0.50905  0.12019  1.0000
  C   C278      1.0  0.09360  0.52255  0.23526  1.0000
  Fe  Fe53      1.0  0.31554  0.35026  0.06637  1.0000
  H   H434      1.0  0.22443  0.36410  0.00320  1.0000
  C   C279      1.0  0.07161  0.37247  0.00512  1.0000
  H   H435      1.0  0.05205  0.50622  0.19767  1.0000
  N   N29       1.0  0.02597  0.42576  0.22314  1.0000
  Fe  Fe54      1.0  0.09808  0.43438  0.19881  1.0000
  S   S102      1.0  0.07181  0.46095  0.19450  1.0000
  H   H436      1.0  0.05728  0.41926  0.20770  1.0000
  S   S103      1.0  0.28876  0.33589  0.08379  1.0000
  H   H437      1.0  0.03747  0.55420  0.14632  1.0000
  H   H438      1.0  0.08671  0.40693  0.99325  1.0000
  C   C280      1.0  0.02058  0.50854  0.15233  1.0000
  H   H439      1.0  0.04072  0.55102  0.12269  1.0000
  H   H440      1.0  0.07761  0.64490  0.21549  1.0000
  H   H441      1.0  0.09259  0.54825  0.14459  1.0000
  S   S104      1.0  0.03493  0.59194  0.16116  1.0000
  C   C281      1.0  0.04262  0.59495  0.21158  1.0000
  H   H442      1.0  0.04490  0.57398  0.12654  1.0000
  S   S105      1.0  0.09143  0.51170  0.17868  1.0000
  H   H443      1.0  0.09774  0.54491  0.11134  1.0000
  H   H444      1.0  0.06717  0.55234  0.15896  1.0000
  H   H445      1.0  0.06541  0.51822  0.12921  1.0000
  H   H446      1.0  0.99772  0.63003  0.21051  1.0000
  H   H447      1.0  0.07599  0.54613  0.10209  1.0000
  C   C282      1.0  0.08118  0.55202  0.11198  1.0000
  C   C283      1.0  0.04704  0.55703  0.13171  1.0000
  H   H448      1.0  0.08729  0.51720  0.13826  1.0000
  C   C284      1.0  0.07625  0.55544  0.14411  1.0000
  H   H449      1.0  0.07490  0.57236  0.13949  1.0000
  H   H450      1.0  0.02136  0.52177  0.15679  1.0000
  C   C285      1.0  0.07098  0.52492  0.13825  1.0000
  H   H451      1.0  0.06208  0.52089  0.15304  1.0000
  H   H452      1.0  0.07991  0.56886  0.10649  1.0000
  N   N30       1.0  0.06886  0.54736  0.13150  1.0000
  C   C286      1.0  0.08577  0.53537  0.20404  1.0000
  H   H453      1.0  0.03177  0.45146  0.20013  1.0000
  H   H454      1.0  0.00550  0.45360  0.21296  1.0000
  H   H455      1.0  0.03525  0.47959  0.22112  1.0000
  H   H456      1.0  0.31460  0.38790  0.08333  1.0000
  H   H457      1.0  0.08051  0.55407  0.22429  1.0000
  H   H458      1.0  0.02796  0.52188  0.19335  1.0000
  C   C287      1.0  0.04609  0.59039  0.19377  1.0000
  C   C288      1.0  0.01119  0.61888  0.20593  1.0000
  H   H459      1.0  0.08029  0.54796  0.19327  1.0000
  C   C289      1.0  0.09280  0.51567  0.20036  1.0000
  H   H460      1.0  0.24438  0.34722  0.99073  1.0000
  C   C290      1.0  0.21851  0.33754  0.03664  1.0000
  C   C291      1.0  0.01443  0.61393  0.18835  1.0000
  N   N31       1.0  0.02930  0.51110  0.22278  1.0000
  C   C292      1.0  0.08592  0.53880  0.22156  1.0000
  H   H461      1.0  0.05965  0.57956  0.18897  1.0000
  C   C293      1.0  0.03100  0.43416  0.23697  1.0000
  H   H462      1.0  0.05347  0.58744  0.22055  1.0000
  C   C294      1.0  0.01164  0.52717  0.22872  1.0000
  H   H463      1.0  0.04996  0.39876  0.22672  1.0000
  H   H464      1.0  0.32713  0.47969  0.14057  1.0000
  H   H465      1.0  0.04108  0.40442  0.20504  1.0000
  C   C295      1.0  0.11707  0.33149  0.05240  1.0000
  H   H466      1.0  0.00457  0.40845  0.22280  1.0000
  S   S106      1.0  0.99803  0.55650  0.17468  1.0000
  H   H467      1.0  0.00014  0.53093  0.21978  1.0000
  H   H468      1.0  0.32014  0.46208  0.13076  1.0000
  C   C296      1.0  0.04440  0.50678  0.23470  1.0000
  H   H469      1.0  0.01661  0.54160  0.22737  1.0000
  H   H470      1.0  0.30173  0.33141  0.00473  1.0000
  S   S107      1.0  0.32209  0.33293  0.04325  1.0000
  C   C297      1.0  0.32763  0.38634  0.08928  1.0000
  H   H471      1.0  0.32851  0.46498  0.09623  1.0000
  H   H472      1.0  0.20103  0.34064  0.00797  1.0000
  N   N32       1.0  0.22898  0.33253  0.01801  1.0000
  H   H473      1.0  0.18061  0.60013  0.32505  1.0000
  C   C298      1.0  0.05959  0.42749  0.27487  1.0000
  C   C299      1.0  0.07046  0.41595  0.26126  1.0000
  H   H474      1.0  0.99977  0.51097  0.30289  1.0000
  H   H475      1.0  0.04964  0.42075  0.28760  1.0000
  H   H476      1.0  0.06882  0.40033  0.26339  1.0000
  C   C300      1.0  0.07486  0.45625  0.25579  1.0000
  C   C301      1.0  0.07214  0.47288  0.31804  1.0000
  H   H477      1.0  0.05640  0.46959  0.32259  1.0000
  H   H478      1.0  0.04344  0.50393  0.33044  1.0000
  C   C302      1.0  0.06175  0.50243  0.29428  1.0000
  N   N33       1.0  0.07154  0.49508  0.31074  1.0000
  S   S108      1.0  0.04746  0.46253  0.28839  1.0000
  C   C303      1.0  0.06182  0.44762  0.27209  1.0000
  H   H479      1.0  0.08101  0.60065  0.40860  1.0000
  H   H480      1.0  0.08077  0.46408  0.30690  1.0000
  H   H481      1.0  0.05412  0.60836  0.43683  1.0000
  H   H482      1.0  0.07960  0.46666  0.33038  1.0000
  C   C304      1.0  0.08499  0.44504  0.24178  1.0000
  H   H483      1.0  0.07060  0.49458  0.28253  1.0000
  C   C305      1.0  0.00353  0.54651  0.32440  1.0000
  H   H484      1.0  0.22177  0.63541  0.47762  1.0000
  H   H485      1.0  0.06080  0.51913  0.28857  1.0000
  S   S109      1.0  0.07632  0.58783  0.24861  1.0000
  H   H486      1.0  0.08022  0.63834  0.43610  1.0000
  H   H487      1.0  0.04593  0.49952  0.29812  1.0000
  Fe  Fe55      1.0  0.01468  0.46039  0.29435  1.0000
  C   C306      1.0  0.05953  0.50631  0.32572  1.0000
  H   H488      1.0  0.22567  0.64755  0.43385  1.0000
  H   H489      1.0  0.06646  0.50125  0.33838  1.0000
  H   H490      1.0  0.05861  0.52315  0.32059  1.0000
  H   H491      1.0  0.00362  0.52215  0.24367  1.0000
  C   C307      1.0  0.15436  0.64558  0.30374  1.0000
  H   H492      1.0  0.13816  0.65235  0.30254  1.0000
  C   C308      1.0  0.21005  0.64757  0.47103  1.0000
  H   H493      1.0  0.00326  0.57537  0.24292  1.0000
  C   C309      1.0  0.23379  0.65416  0.44088  1.0000
  H   H494      1.0  0.18852  0.61588  0.30205  1.0000
  N   N34       1.0  0.06934  0.63043  0.41536  1.0000
  Fe  Fe56      1.0  0.07473  0.59465  0.27658  1.0000
  S   S110      1.0  0.04043  0.60244  0.28440  1.0000
  S   S111      1.0  0.09254  0.61790  0.27581  1.0000
  Fe  Fe57      1.0  0.07507  0.55574  0.26509  1.0000
  S   S112      1.0  0.04069  0.56086  0.27125  1.0000
  Fe  Fe58      1.0  0.04201  0.59363  0.25758  1.0000
  H   H495      1.0  0.24620  0.64183  0.44623  1.0000
  Fe  Fe59      1.0  0.04227  0.56909  0.29752  1.0000
  C   C310      1.0  0.08540  0.62818  0.42576  1.0000
  S   S113      1.0  0.07665  0.56183  0.29250  1.0000
  H   H496      1.0  0.09279  0.51535  0.29917  1.0000
  H   H497      1.0  0.09107  0.62116  0.39111  1.0000
  S   S114      1.0  0.09423  0.52636  0.25723  1.0000
  H   H498      1.0  0.32729  0.60653  0.37323  1.0000
  H   H499      1.0  0.14867  0.63344  0.34176  1.0000
  N   N35       1.0  0.15658  0.62433  0.31517  1.0000
  H   H500      1.0  0.03839  0.62617  0.42144  1.0000
  H   H501      1.0  0.05353  0.64284  0.26649  1.0000
  H   H502      1.0  0.15168  0.59527  0.31429  1.0000
  H   H503      1.0  0.13347  0.61708  0.30543  1.0000
  H   H504      1.0  0.07681  0.47171  0.25382  1.0000
  H   H505      1.0  0.31204  0.65343  0.39889  1.0000
  H   H506      1.0  0.20162  0.64006  0.46514  1.0000
  H   H507      1.0  0.10196  0.49084  0.29315  1.0000
  H   H508      1.0  0.03302  0.64212  0.25644  1.0000
  H   H509      1.0  0.15922  0.65569  0.31020  1.0000
  S   S115      1.0  0.01999  0.61445  0.24015  1.0000
  C   C311      1.0  0.08301  0.63717  0.33158  1.0000
  C   C312      1.0  0.09368  0.64775  0.31469  1.0000
  C   C313      1.0  0.09638  0.64186  0.29758  1.0000
  C   C314      1.0  0.08833  0.62544  0.29728  1.0000
  C   C315      1.0  0.07734  0.61510  0.31410  1.0000
  C   C316      1.0  0.07472  0.62094  0.33122  1.0000
  C   C317      1.0  0.32593  0.64278  0.40325  1.0000
  H   H510      1.0  0.10470  0.65004  0.28455  1.0000
  H   H511      1.0  0.07102  0.60246  0.31397  1.0000
  H   H512      1.0  0.06634  0.61278  0.34421  1.0000
  C   C318      1.0  0.31868  0.63822  0.35929  1.0000
  C   C319      1.0  0.32484  0.65437  0.34477  1.0000
  C   C320      1.0  0.04338  0.65190  0.25653  1.0000
  C   C321      1.0  0.14373  0.62424  0.33447  1.0000
  H   H513      1.0  0.12726  0.63085  0.33417  1.0000
  S   S116      1.0  0.32050  0.34369  0.38179  1.0000
  C   C322      1.0  0.17833  0.61606  0.31635  1.0000
  H   H514      1.0  0.32154  0.63663  0.41880  1.0000
  H   H515      1.0  0.15900  0.61150  0.29144  1.0000
  H   H516      1.0  0.14473  0.60844  0.34343  1.0000
  H   H517      1.0  0.16395  0.64627  0.28912  1.0000
  S   S117      1.0  0.17468  0.65963  0.34170  1.0000
  C   C323      1.0  0.14993  0.61148  0.30618  1.0000
  H   H518      1.0  0.32803  0.63087  0.27343  1.0000
  H   H519      1.0  0.04459  0.63445  0.43945  1.0000
  C   C324      1.0  0.05078  0.62456  0.42889  1.0000
  C   C325      1.0  0.07705  0.61709  0.40152  1.0000
  S   S118      1.0  0.12041  0.65216  0.37335  1.0000
  C   C326      1.0  0.00901  0.53310  0.31215  1.0000
  H   H520      1.0  0.30338  0.64036  0.36813  1.0000
  H   H521      1.0  0.09958  0.63263  0.41593  1.0000
  H   H522      1.0  0.02414  0.53114  0.30318  1.0000
  S   S119      1.0  0.08019  0.64351  0.35340  1.0000
  H   H523      1.0  0.10075  0.49319  0.31673  1.0000
  S   S120      1.0  0.02133  0.55979  0.32553  1.0000
  H   H524      1.0  0.01413  0.48666  0.23974  1.0000
  C   C327      1.0  0.09270  0.49874  0.30478  1.0000
  H   H525      1.0  0.18382  0.62554  0.32300  1.0000
  H   H526      1.0  0.08975  0.61214  0.43366  1.0000
  H   H527      1.0  0.06548  0.61874  0.39312  1.0000
  H   H528      1.0  0.29369  0.34237  0.48710  1.0000
  H   H529      1.0  0.01333  0.40188  0.24455  1.0000
  H   H530      1.0  0.03787  0.50058  0.24989  1.0000
  C   C328      1.0  0.08276  0.42491  0.24452  1.0000
  H   H531      1.0  0.01793  0.44587  0.24246  1.0000
  H   H532      1.0  0.32978  0.62973  0.39613  1.0000
  H   H533      1.0  0.10697  0.49027  0.24199  1.0000
  C   C329      1.0  0.06415  0.65199  0.40521  1.0000
  H   H534      1.0  0.07790  0.65681  0.39511  1.0000
  H   H535      1.0  0.05238  0.65433  0.39684  1.0000
  H   H536      1.0  0.07918  0.63128  0.23926  1.0000
  H   H537      1.0  0.03464  0.42191  0.24941  1.0000
  S   S121      1.0  0.00258  0.43801  0.28613  1.0000
  H   H538      1.0  0.19883  0.65415  0.48267  1.0000
  H   H539      1.0  0.28444  0.66007  0.47496  1.0000
  H   H540      1.0  0.01694  0.53349  0.71817  1.0000
  H   H541      1.0  0.31411  0.58020  0.57152  1.0000
  H   H542      1.0  0.05239  0.53126  0.72045  1.0000
  H   H543      1.0  0.26655  0.34951  0.63073  1.0000
  C   C330      1.0  0.31492  0.59523  0.56140  1.0000
  H   H544      1.0  0.04530  0.53181  0.63603  1.0000
  Fe  Fe60      1.0  0.32008  0.33709  0.58419  1.0000
  C   C331      1.0  0.01551  0.44394  0.72316  1.0000
  H   H545      1.0  0.05074  0.47632  0.64016  1.0000
  C   C332      1.0  0.03404  0.52004  0.60950  1.0000
  C   C333      1.0  0.31784  0.65822  0.59438  1.0000
  C   C334      1.0  0.03072  0.64071  0.56313  1.0000
  H   H546      1.0  0.04551  0.45771  0.67949  1.0000
  H   H547      1.0  0.24550  0.35637  0.61892  1.0000
  C   C335      1.0  0.01864  0.50798  0.64224  1.0000
  C   C336      1.0  0.05211  0.49902  0.69499  1.0000
  C   C337      1.0  0.03230  0.45347  0.69007  1.0000
  C   C338      1.0  0.06906  0.50771  0.69194  1.0000
  C   C339      1.0  0.21608  0.65076  0.52399  1.0000
  C   C340      1.0  0.04764  0.48613  0.62633  1.0000
  H   H548      1.0  0.04576  0.45053  0.71361  1.0000
  H   H549      1.0  0.32412  0.43709  0.60524  1.0000
  H   H550      1.0  0.27113  0.34695  0.60690  1.0000
  H   H551      1.0  0.29882  0.59905  0.59756  1.0000
  C   C341      1.0  0.03504  0.53020  0.67682  1.0000
  C   C342      1.0  0.03243  0.44953  0.70937  1.0000
  C   C343      1.0  0.02917  0.56900  0.71137  1.0000
  S   S122      1.0  0.01263  0.54480  0.66970  1.0000
  C   C344      1.0  0.30516  0.32836  0.48917  1.0000
  H   H552      1.0  0.04834  0.51982  0.59823  1.0000
  H   H553      1.0  0.05209  0.48367  0.70342  1.0000
  H   H554      1.0  0.07199  0.63593  0.55130  1.0000
  H   H555      1.0  0.02713  0.53633  0.61028  1.0000
  H   H556      1.0  0.22688  0.33269  0.64522  1.0000
  S   S123      1.0  0.08791  0.49545  0.70504  1.0000
  H   H557      1.0  0.05819  0.61101  0.57920  1.0000
  H   H558      1.0  0.08289  0.53382  0.67756  1.0000
  S   S124      1.0  0.31431  0.35787  0.60447  1.0000
  H   H559      1.0  0.03485  0.56133  0.69919  1.0000
  H   H560      1.0  0.02114  0.49950  0.65661  1.0000
  H   H561      1.0  0.02599  0.65439  0.55217  1.0000
  S   S125      1.0  0.29503  0.33229  0.57310  1.0000
  H   H562      1.0  0.11731  0.64316  0.55302  1.0000
  S   S126      1.0  0.18735  0.63129  0.52159  1.0000
  H   H563      1.0  0.00818  0.50071  0.63861  1.0000
  S   S127      1.0  0.26176  0.63582  0.55268  1.0000
  C   C345      1.0  0.05263  0.53838  0.67238  1.0000
  S   S128      1.0  0.01524  0.45734  0.66023  1.0000
  C   C346      1.0  0.20850  0.63272  0.52941  1.0000
  H   H564      1.0  0.02180  0.50359  0.69033  1.0000
  C   C347      1.0  0.08297  0.62643  0.59302  1.0000
  C   C348      1.0  0.24182  0.63463  0.54296  1.0000
  C   C349      1.0  0.23448  0.61649  0.54806  1.0000
  C   C350      1.0  0.21798  0.61548  0.54116  1.0000
  H   H565      1.0  0.24141  0.60323  0.55750  1.0000
  H   H566      1.0  0.21228  0.60144  0.54526  1.0000
  C   C351      1.0  0.29982  0.61349  0.58658  1.0000
  C   C352      1.0  0.10349  0.64358  0.56410  1.0000
  S   S129      1.0  0.07912  0.60376  0.61002  1.0000
  Fe  Fe61      1.0  0.00466  0.62005  0.64520  1.0000
  C   C353      1.0  0.04596  0.53992  0.73196  1.0000
  H   H567      1.0  0.03765  0.64585  0.57226  1.0000
  N   N36       1.0  0.31751  0.61041  0.57057  1.0000
  N   N37       1.0  0.04529  0.62418  0.55449  1.0000
  C   C354      1.0  0.03536  0.61770  0.54269  1.0000
  H   H568      1.0  0.07489  0.61994  0.53539  1.0000
  H   H569      1.0  0.05376  0.64466  0.60356  1.0000
  H   H570      1.0  0.06700  0.51644  0.62328  1.0000
  C   C355      1.0  0.05131  0.60651  0.56961  1.0000
  H   H571      1.0  0.30428  0.63599  0.55088  1.0000
  H   H572      1.0  0.32788  0.59261  0.54914  1.0000
  H   H573      1.0  0.31302  0.63341  0.61870  1.0000
  H   H574      1.0  0.01656  0.63550  0.57217  1.0000
  H   H575      1.0  0.17473  0.65509  0.59329  1.0000
  H   H576      1.0  0.05986  0.64575  0.53159  1.0000
  Fe  Fe62      1.0  0.07259  0.47738  0.73252  1.0000
  C   C356      1.0  0.23291  0.65161  0.53054  1.0000
  H   H577      1.0  0.03071  0.63065  0.53110  1.0000
  Fe  Fe63      1.0  0.00719  0.60051  0.61312  1.0000
  H   H578      1.0  0.06244  0.48511  0.61571  1.0000
  H   H579      1.0  0.03786  0.60004  0.57857  1.0000
  C   C357      1.0  0.06378  0.63177  0.54260  1.0000
  H   H580      1.0  0.01045  0.52394  0.64318  1.0000
  H   H581      1.0  0.06284  0.59399  0.56371  1.0000
  Fe  Fe64      1.0  0.31927  0.32832  0.54670  1.0000
  H   H582      1.0  0.11337  0.61278  0.57954  1.0000
  C   C358      1.0  0.03504  0.51027  0.68756  1.0000
  C   C359      1.0  0.10122  0.62637  0.57908  1.0000
  Fe  Fe65      1.0  0.01754  0.57451  0.64981  1.0000
  S   S130      1.0  0.03186  0.59758  0.65451  1.0000
  Fe  Fe66      1.0  0.04601  0.60207  0.62330  1.0000
  C   C360      1.0  0.01128  0.54197  0.72984  1.0000
  C   C361      1.0  0.06967  0.52714  0.68008  1.0000
  S   S131      1.0  0.03450  0.57637  0.61962  1.0000
  H   H583      1.0  0.03728  0.47916  0.62213  1.0000
  H   H584      1.0  0.01463  0.58001  0.70922  1.0000
  S   S132      1.0  0.01977  0.62652  0.61436  1.0000
  C   C362      1.0  0.06743  0.64410  0.59242  1.0000
  C   C363      1.0  0.01515  0.45198  0.68449  1.0000
  C   C364      1.0  0.32418  0.64158  0.60855  1.0000
  C   C365      1.0  0.05228  0.51596  0.63394  1.0000
  H   H585      1.0  0.05287  0.55362  0.66367  1.0000
  H   H586      1.0  0.05603  0.50654  0.64766  1.0000
  H   H587      1.0  0.04580  0.60503  0.53618  1.0000
  N   N38       1.0  0.03818  0.50754  0.62798  1.0000
  H   H588      1.0  0.23325  0.32895  0.61204  1.0000
  H   H589      1.0  0.21143  0.65749  0.58726  1.0000
  H   H590      1.0  0.02124  0.61205  0.55130  1.0000
  S   S133      1.0  0.31046  0.34165  0.51839  1.0000
  H   H591      1.0  0.02298  0.51434  0.60491  1.0000
  H   H592      1.0  0.04053  0.57810  0.71057  1.0000
  N   N39       1.0  0.02612  0.55395  0.72962  1.0000
  C   C366      1.0  0.31847  0.63006  0.55660  1.0000
  H   H593      1.0  0.30096  0.62516  0.59358  1.0000
  H   H594      1.0  0.30048  0.60054  0.55597  1.0000
  H   H595      1.0  0.32317  0.37245  0.63323  1.0000
  H   H596      1.0  0.28506  0.61889  0.58176  1.0000
  H   H597      1.0  0.05763  0.54838  0.73173  1.0000
  C   C367      1.0  0.26001  0.34510  0.62080  1.0000
  H   H598      1.0  0.32017  0.64204  0.56298  1.0000
  H   H599      1.0  0.99982  0.48837  0.71794  1.0000
  C   C368      1.0  0.99847  0.44212  0.71760  1.0000
  C   C369      1.0  0.99821  0.44629  0.69827  1.0000
  H   H600      1.0  0.32958  0.47053  0.60717  1.0000
  H   H601      1.0  0.32993  0.46441  0.57604  1.0000
  H   H602      1.0  0.00470  0.48175  0.78098  1.0000
  H   H603      1.0  0.15680  0.37781  0.83638  1.0000
  C   C370      1.0  0.29480  0.36119  0.98653  1.0000
  H   H604      1.0  0.13860  0.35150  0.90363  1.0000
  S   S134      1.0  0.07857  0.47879  0.75986  1.0000
  Fe  Fe67      1.0  0.04452  0.48430  0.76996  1.0000
  Fe  Fe68      1.0  0.07697  0.44549  0.76858  1.0000
  H   H605      1.0  0.32284  0.45905  0.79865  1.0000
  S   S135      1.0  0.02698  0.50958  0.78479  1.0000
  H   H606      1.0  0.30806  0.34594  0.92892  1.0000
  H   H607      1.0  0.19353  0.44117  0.92842  1.0000
  H   H608      1.0  0.18176  0.36795  0.91173  1.0000
  H   H609      1.0  0.02890  0.50338  0.82282  1.0000
  C   C371      1.0  0.09236  0.45247  0.97422  1.0000
  C   C372      1.0  0.18624  0.35430  0.90530  1.0000
  H   H610      1.0  0.15599  0.35071  0.93668  1.0000
  S   S136      1.0  0.04309  0.45122  0.78115  1.0000
  S   S137      1.0  0.09992  0.42450  0.78518  1.0000
  Fe  Fe69      1.0  0.04004  0.45219  0.75191  1.0000
  H   H611      1.0  0.09326  0.41285  0.85339  1.0000
  H   H612      1.0  0.31486  0.45675  0.76174  1.0000
  H   H613      1.0  0.13144  0.38522  0.84994  1.0000
  Fe  Fe70      1.0  0.11436  0.40674  0.89132  1.0000
  S   S138      1.0  0.10857  0.39756  0.92302  1.0000
  S   S139      1.0  0.14465  0.40917  0.87132  1.0000
  Fe  Fe71      1.0  0.07250  0.40225  0.89015  1.0000
  S   S140      1.0  0.06281  0.39256  0.92175  1.0000
  S   S141      1.0  0.05326  0.40310  0.87031  1.0000
  Fe  Fe72      1.0  0.07746  0.41772  0.92178  1.0000
  S   S142      1.0  0.06221  0.43697  0.94320  1.0000
  Fe  Fe73      1.0  0.09454  0.37338  0.92015  1.0000
  S   S143      1.0  0.10293  0.34156  0.93726  1.0000
  S   S144      1.0  0.08442  0.42928  0.89015  1.0000
  S   S145      1.0  0.10299  0.38079  0.88851  1.0000
  Fe  Fe74      1.0  0.26623  0.34553  0.92455  1.0000
  C   C373      1.0  0.31061  0.43087  0.85355  1.0000
  H   H614      1.0  0.00288  0.57532  0.74422  1.0000
  Fe  Fe75      1.0  0.24131  0.38346  0.90351  1.0000
  S   S146      1.0  0.25485  0.37498  0.87531  1.0000
  S   S147      1.0  0.21485  0.40927  0.91005  1.0000
  Fe  Fe76      1.0  0.24973  0.34357  0.89124  1.0000
  Fe  Fe77      1.0  0.28479  0.36545  0.88455  1.0000
  S   S148      1.0  0.01504  0.44023  0.74732  1.0000
  S   S149      1.0  0.23466  0.35268  0.91900  1.0000
  S   S150      1.0  0.27179  0.37728  0.91124  1.0000
  H   H615      1.0  0.10967  0.34593  0.84176  1.0000
  C   C374      1.0  0.07673  0.44886  0.96781  1.0000
  H   H616      1.0  0.32626  0.35713  0.94726  1.0000
  S   S151      1.0  0.03839  0.48596  0.74198  1.0000
  H   H617      1.0  0.03608  0.44693  0.83077  1.0000
  C   C375      1.0  0.09126  0.36606  0.97461  1.0000
  H   H618      1.0  0.07757  0.37208  0.96811  1.0000
  C   C376      1.0  0.30850  0.45434  0.79917  1.0000
  C   C377      1.0  0.32585  0.41907  0.79973  1.0000
  H   H619      1.0  0.19212  0.35965  0.88981  1.0000
  C   C378      1.0  0.11578  0.44900  0.94417  1.0000
  N   N40       1.0  0.04397  0.47310  0.83489  1.0000
  C   C379      1.0  0.28135  0.34107  0.96585  1.0000
  C   C380      1.0  0.11353  0.36086  0.84072  1.0000
  H   H620      1.0  0.04429  0.52842  0.74565  1.0000
  C   C381      1.0  0.28694  0.37227  0.97053  1.0000
  C   C382      1.0  0.27990  0.36229  0.96043  1.0000
  H   H621      1.0  0.19934  0.34365  0.91104  1.0000
  H   H622      1.0  0.28600  0.38867  0.96615  1.0000
  H   H623      1.0  0.27312  0.37112  0.94863  1.0000
  H   H624      1.0  0.17196  0.45041  0.97670  1.0000
  C   C383      1.0  0.18930  0.44820  0.94094  1.0000
  C   C384      1.0  0.32406  0.44317  0.76984  1.0000
  C   C385      1.0  0.30617  0.41122  0.86106  1.0000
  H   H625      1.0  0.29902  0.44421  0.85660  1.0000
  H   H626      1.0  0.29120  0.40944  0.86984  1.0000
  C   C386      1.0  0.16378  0.40997  0.88213  1.0000
  C   C387      1.0  0.15881  0.41565  0.89959  1.0000
  C   C388      1.0  0.17450  0.41586  0.90802  1.0000
  C   C389      1.0  0.19514  0.40994  0.89919  1.0000
  C   C390      1.0  0.19999  0.40420  0.88182  1.0000
  C   C391      1.0  0.18436  0.40440  0.87322  1.0000
  H   H627      1.0  0.14291  0.42032  0.90638  1.0000
  H   H628      1.0  0.17060  0.42046  0.92140  1.0000
  H   H629      1.0  0.21580  0.40005  0.87472  1.0000
  H   H630      1.0  0.18828  0.40010  0.85968  1.0000
  C   C392      1.0  0.03420  0.49459  0.83602  1.0000
  H   H631      1.0  0.18136  0.33066  0.88474  1.0000
  H   H632      1.0  0.09164  0.34343  0.90246  1.0000
  C   C393      1.0  0.08086  0.44452  0.94988  1.0000
  C   C394      1.0  0.10034  0.44470  0.93800  1.0000
  C   C395      1.0  0.21676  0.42423  0.95457  1.0000
  H   H633      1.0  0.10348  0.44166  0.92402  1.0000
  C   C396      1.0  0.06721  0.40700  0.84684  1.0000
  C   C397      1.0  0.05839  0.40646  0.83239  1.0000
  C   C398      1.0  0.06862  0.41142  0.81339  1.0000
  C   C399      1.0  0.08771  0.41686  0.80885  1.0000
  C   C400      1.0  0.09673  0.41702  0.82331  1.0000
  C   C401      1.0  0.08652  0.41205  0.84232  1.0000
  H   H634      1.0  0.04347  0.40253  0.83586  1.0000
  C   C402      1.0  0.15210  0.35858  0.90077  1.0000
  H   H635      1.0  0.11124  0.42180  0.81976  1.0000
  H   H636      1.0  0.16368  0.35030  0.81821  1.0000
  H   H637      1.0  0.13085  0.44911  0.93498  1.0000
  H   H638      1.0  0.22102  0.41285  0.96731  1.0000
  H   H639      1.0  0.14395  0.33666  0.82095  1.0000
  H   H640      1.0  0.05807  0.44588  0.85246  1.0000
  H   H641      1.0  0.18743  0.40824  0.95054  1.0000
  C   C403      1.0  0.01806  0.56486  0.74534  1.0000
  H   H642      1.0  0.12253  0.37077  0.98654  1.0000
  H   H643      1.0  0.02057  0.49545  0.84800  1.0000
  H   H644      1.0  0.29835  0.46808  0.79233  1.0000
  H   H645      1.0  0.10468  0.36631  0.85383  1.0000
  H   H646      1.0  0.31785  0.41395  0.81470  1.0000
  H   H647      1.0  0.02383  0.47122  0.81843  1.0000
  C   C404      1.0  0.00092  0.51187  0.78593  1.0000
  H   H648      1.0  0.04509  0.50264  0.83806  1.0000
  H   H649      1.0  0.30091  0.45012  0.81442  1.0000
  H   H650      1.0  0.06176  0.41097  0.80224  1.0000
  S   S152      1.0  0.07397  0.44346  0.74014  1.0000
  H   H651      1.0  0.30680  0.38299  0.92499  1.0000
  H   H652      1.0  0.17250  0.45491  0.94314  1.0000
  S   S153      1.0  0.28096  0.33305  0.89824  1.0000
  S   S154      1.0  0.31606  0.36915  0.86625  1.0000
  H   H653      1.0  0.14166  0.36290  0.80802  1.0000
  H   H654      1.0  0.22582  0.43636  0.95093  1.0000
  H   H655      1.0  0.10494  0.36843  0.96298  1.0000
  H   H656      1.0  0.15972  0.34185  0.85329  1.0000
  H   H657      1.0  0.19721  0.45540  0.97150  1.0000
  C   C405      1.0  0.32078  0.38138  0.91343  1.0000
  S   S155      1.0  0.23107  0.33108  0.87840  1.0000
  H   H658      1.0  0.07383  0.47970  0.82080  1.0000
  C   C406      1.0  0.16150  0.33742  0.92972  1.0000
  H   H659      1.0  0.09253  0.34920  0.97991  1.0000
  C   C407      1.0  0.29352  0.43188  0.78997  1.0000
  C   C408      1.0  0.05047  0.46205  0.85283  1.0000
  H   H660      1.0  0.05774  0.48108  0.80519  1.0000
  H   H661      1.0  0.32912  0.39344  0.91246  1.0000
  H   H662      1.0  0.01594  0.55390  0.75934  1.0000
  H   H663      1.0  0.18627  0.40479  0.97542  1.0000
  H   H664      1.0  0.14692  0.37256  0.90673  1.0000
  H   H665      1.0  0.15711  0.36381  0.88515  1.0000
  H   H666      1.0  0.01533  0.46295  0.84366  1.0000
  S   S156      1.0  0.13162  0.45614  0.97065  1.0000
  H   H667      1.0  0.19748  0.46104  0.93721  1.0000
  C   C409      1.0  0.14679  0.35186  0.82058  1.0000
  C   C410      1.0  0.32236  0.34520  0.91767  1.0000
  H   H668      1.0  0.03717  0.46168  0.86517  1.0000
  H   H669      1.0  0.13477  0.34823  0.86819  1.0000
  C   C411      1.0  0.14024  0.37891  0.83726  1.0000
  N   N41       1.0  0.19445  0.43297  0.95799  1.0000
  N   N42       1.0  0.13587  0.35883  0.83830  1.0000
  C   C412      1.0  0.02912  0.46314  0.83182  1.0000
  N   N43       1.0  0.31297  0.43711  0.78967  1.0000
  C   C413      1.0  0.11185  0.45257  0.96238  1.0000
  C   C414      1.0  0.18310  0.41634  0.96240  1.0000
  H   H670      1.0  0.06160  0.46919  0.85568  1.0000
  H   H671      1.0  0.13607  0.39042  0.82458  1.0000
  C   C415      1.0  0.32107  0.39397  0.85711  1.0000
  H   H672      1.0  0.16621  0.42244  0.96485  1.0000
  H   H673      1.0  0.19157  0.43197  0.98743  1.0000
  H   H674      1.0  0.06957  0.45665  0.81745  1.0000
  C   C416      1.0  0.14297  0.34365  0.85455  1.0000
  C   C417      1.0  0.18858  0.44311  0.97413  1.0000
  H   H675      1.0  0.10767  0.37207  0.82860  1.0000
  C   C418      1.0  0.06208  0.47264  0.81891  1.0000
  H   H676      1.0  0.29638  0.41886  0.78297  1.0000
  H   H677      1.0  0.06165  0.44876  0.97698  1.0000
  H   H678      1.0  0.22173  0.41623  0.94262  1.0000
  H   H679      1.0  0.00865  0.53052  0.74350  1.0000
  H   H680      1.0  0.02866  0.57435  0.74546  1.0000
  H   H681      1.0  0.31781  0.34755  0.90402  1.0000
  N   N44       1.0  0.16889  0.34408  0.90904  1.0000
  H   H682      1.0  0.28482  0.42729  0.80479  1.0000
  H   H683      1.0  0.31569  0.38483  0.89986  1.0000
  H   H684      1.0  0.28341  0.44513  0.78248  1.0000
  H   H685      1.0  0.10100  0.40227  0.97044  1.0000
  C   C419      1.0  0.10315  0.32970  0.90535  1.0000
  C   C420      1.0  0.28915  0.32999  0.98192  1.0000
  H   H686      1.0  0.14846  0.32956  0.93301  1.0000
  H   H687      1.0  0.07362  0.40529  0.97632  1.0000
  S   S157      1.0  0.27305  0.32811  0.95315  1.0000
  C   C421      1.0  0.08772  0.39864  0.98215  1.0000
  H   H688      1.0  0.14024  0.32822  0.85554  1.0000
  H   H689      1.0  0.32797  0.43052  0.76218  1.0000
  C   C422      1.0  0.32987  0.43336  0.84196  1.0000
  H   H690      1.0  0.08925  0.45542  0.98823  1.0000
  H   H691      1.0  0.32985  0.40583  0.79281  1.0000
  H   H692      1.0  0.01134  0.90840  0.09537  1.0000
  N   N45       1.0  0.32427  0.83462  0.05882  1.0000
  S   S158      1.0  0.00184  0.95910  0.14003  1.0000
  C   C423      1.0  0.20128  0.84792  0.12309  1.0000
  Fe  Fe78      1.0  0.20249  0.87883  0.06339  1.0000
  S   S159      1.0  0.21257  0.90791  0.06030  1.0000
  Fe  Fe79      1.0  0.24087  0.86263  0.03532  1.0000
  S   S160      1.0  0.25385  0.89040  0.03049  1.0000
  S   S161      1.0  0.26106  0.83937  0.01868  1.0000
  Fe  Fe80      1.0  0.24348  0.88753  0.06182  1.0000
  S   S162      1.0  0.26199  0.88408  0.08310  1.0000
  Fe  Fe81      1.0  0.22161  0.90766  0.02928  1.0000
  S   S163      1.0  0.23289  0.85844  0.06684  1.0000
  S   S164      1.0  0.20915  0.87996  0.03214  1.0000
  Fe  Fe82      1.0  0.07782  0.95091  0.10760  1.0000
  S   S165      1.0  0.09372  0.93980  0.08068  1.0000
  H   H693      1.0  0.15466  0.89160  0.05611  1.0000
  S   S166      1.0  0.06366  0.93099  0.13453  1.0000
  H   H694      1.0  0.03467  0.93215  0.10914  1.0000
  H   H695      1.0  0.16410  0.97082  0.05881  1.0000
  H   H696      1.0  0.05518  0.94671  0.06874  1.0000
  C   C424      1.0  0.15260  0.89125  0.08528  1.0000
  C   C425      1.0  0.14086  0.89906  0.10114  1.0000
  C   C426      1.0  0.12272  0.91397  0.09985  1.0000
  C   C427      1.0  0.11604  0.92074  0.08280  1.0000
  C   C428      1.0  0.12750  0.91253  0.06708  1.0000
  C   C429      1.0  0.14587  0.89795  0.06826  1.0000
  H   H697      1.0  0.14587  0.89374  0.11440  1.0000
  H   H698      1.0  0.11389  0.92015  0.11208  1.0000
  H   H699      1.0  0.12221  0.91745  0.05396  1.0000
  C   C430      1.0  0.08813  0.94570  0.20622  1.0000
  H   H700      1.0  0.18441  0.85418  0.12535  1.0000
  S   S167      1.0  0.30692  0.76531  0.07293  1.0000
  C   C431      1.0  0.04290  0.92025  0.10079  1.0000
  H   H701      1.0  0.24900  0.82019  0.05820  1.0000
  C   C432      1.0  0.31337  0.91953  0.06556  1.0000
  C   C433      1.0  0.31391  0.90173  0.07993  1.0000
  C   C434      1.0  0.29810  0.89090  0.08509  1.0000
  C   C435      1.0  0.28196  0.89751  0.07557  1.0000
  C   C436      1.0  0.28176  0.91484  0.06066  1.0000
  C   C437      1.0  0.29737  0.92602  0.05581  1.0000
  C   C438      1.0  0.15895  0.96648  0.01646  1.0000
  H   H702      1.0  0.29830  0.87749  0.09663  1.0000
  H   H703      1.0  0.26926  0.92001  0.05331  1.0000
  H   H704      1.0  0.29692  0.93978  0.04467  1.0000
  C   C439      1.0  0.13394  0.96465  0.04621  1.0000
  H   H705      1.0  0.17555  0.96440  0.00936  1.0000
  H   H706      1.0  0.20388  0.83278  0.13307  1.0000
  H   H707      1.0  0.15227  0.95646  0.01153  1.0000
  H   H708      1.0  0.06503  0.90977  0.06825  1.0000
  C   C440      1.0  0.08811  0.97307  0.17811  1.0000
  C   C441      1.0  0.08552  0.98057  0.20856  1.0000
  N   N46       1.0  0.21226  0.86222  0.12567  1.0000
  C   C442      1.0  0.20491  0.86552  0.14522  1.0000
  C   C443      1.0  0.29373  0.78470  0.05731  1.0000
  C   C444      1.0  0.23456  0.85343  0.12220  1.0000
  C   C445      1.0  0.20826  0.88205  0.11212  1.0000
  H   H709      1.0  0.21291  0.87625  0.14760  1.0000
  H   H710      1.0  0.20761  0.85087  0.15586  1.0000
  H   H711      1.0  0.18812  0.87222  0.14821  1.0000
  C   C446      1.0  0.29242  0.80655  0.02604  1.0000
  H   H712      1.0  0.12611  0.98093  0.04204  1.0000
  H   H713      1.0  0.23825  0.83856  0.13227  1.0000
  H   H714      1.0  0.24340  0.86404  0.12355  1.0000
  H   H715      1.0  0.24051  0.85063  0.10758  1.0000
  H   H716      1.0  0.21361  0.88005  0.09730  1.0000
  H   H717      1.0  0.21648  0.89320  0.11345  1.0000
  H   H718      1.0  0.19156  0.88907  0.11412  1.0000
  S   S168      1.0  0.17534  0.87277  0.08709  1.0000
  C   C447      1.0  0.30269  0.84595  0.06201  1.0000
  Fe  Fe83      1.0  0.03586  0.95669  0.13465  1.0000
  H   H719      1.0  0.20641  0.84519  0.10843  1.0000
  C   C448      1.0  0.32565  0.81386  0.07121  1.0000
  H   H720      1.0  0.23350  0.89853  0.98959  1.0000
  S   S169      1.0  0.08910  0.93466  0.17374  1.0000
  H   H721      1.0  0.05962  0.91986  0.09814  1.0000
  H   H722      1.0  0.08868  0.92967  0.21295  1.0000
  S   S170      1.0  0.09114  0.96763  0.12150  1.0000
  H   H723      1.0  0.29247  0.83811  0.05860  1.0000
  C   C449      1.0  0.04838  0.90941  0.07165  1.0000
  H   H724      1.0  0.15926  0.92933  0.03884  1.0000
  S   S171      1.0  0.04585  0.97300  0.15125  1.0000
  H   H725      1.0  0.13124  0.96056  0.06199  1.0000
  H   H726      1.0  0.18256  0.93665  0.03755  1.0000
  H   H727      1.0  0.04361  0.91227  0.05801  1.0000
  H   H728      1.0  0.02968  0.95739  0.08011  1.0000
  S   S172      1.0  0.04898  0.97489  0.10646  1.0000
  C   C450      1.0  0.08647  0.95980  0.21710  1.0000
  N   N47       1.0  0.03601  0.92473  0.08287  1.0000
  H   H729      1.0  0.32114  0.81443  0.08647  1.0000
  H   H730      1.0  0.18278  0.91412  0.01394  1.0000
  C   C451      1.0  0.03879  0.94547  0.07200  1.0000
  C   C452      1.0  0.27441  0.79577  0.06454  1.0000
  H   H731      1.0  0.15905  0.99096  0.03864  1.0000
  C   C453      1.0  0.26416  0.81222  0.05260  1.0000
  C   C454      1.0  0.08843  0.95237  0.18682  1.0000
  C   C455      1.0  0.04145  0.67035  0.22456  1.0000
  Fe  Fe84      1.0  0.06064  0.98974  0.12309  1.0000
  H   H732      1.0  0.16345  0.93487  0.05930  1.0000
  N   N48       1.0  0.15611  0.96131  0.03734  1.0000
  C   C456      1.0  0.00364  0.91932  0.13910  1.0000
  H   H733      1.0  0.01788  0.91533  0.14388  1.0000
  H   H734      1.0  0.30103  0.86180  0.05309  1.0000
  H   H735      1.0  0.26736  0.79158  0.07943  1.0000
  H   H736      1.0  0.32185  0.82477  0.03492  1.0000
  H   H737      1.0  0.32619  0.89661  0.08751  1.0000
  C   C457      1.0  0.30264  0.78994  0.03797  1.0000
  C   C458      1.0  0.18696  0.91975  0.99884  1.0000
  H   H738      1.0  0.24117  0.87160  0.99067  1.0000
  H   H739      1.0  0.29953  0.81081  0.01120  1.0000
  C   C459      1.0  0.27326  0.81787  0.03340  1.0000
  H   H740      1.0  0.31737  0.78121  0.03219  1.0000
  S   S173      1.0  0.21600  0.93538  0.00580  1.0000
  H   H741      1.0  0.08880  0.97822  0.16304  1.0000
  Fe  Fe85      1.0  0.07504  0.94939  0.14847  1.0000
  H   H742      1.0  0.18268  0.97214  0.03669  1.0000
  H   H743      1.0  0.08611  0.95449  0.23209  1.0000
  H   H744      1.0  0.05007  0.67563  0.20988  1.0000
  H   H745      1.0  0.29668  0.84732  0.07705  1.0000
  H   H746      1.0  0.04017  0.90513  0.10984  1.0000
  H   H747      1.0  0.00829  0.92713  0.07391  1.0000
  H   H748      1.0  0.04672  0.89358  0.07954  1.0000
  C   C460      1.0  0.01407  0.92382  0.08709  1.0000
  H   H749      1.0  0.31544  0.80538  0.06873  1.0000
  H   H750      1.0  0.03388  0.94939  0.05830  1.0000
  H   H751      1.0  0.00346  0.88811  0.13946  1.0000
  H   H752      1.0  0.12607  0.95502  0.04208  1.0000
  C   C461      1.0  0.16590  0.97442  0.04313  1.0000
  C   C462      1.0  0.16576  0.93959  0.04357  1.0000
  H   H753      1.0  0.00433  0.93516  0.09560  1.0000
  H   H754      1.0  0.03145  0.68411  0.22963  1.0000
  H   H755      1.0  0.27576  0.87546  0.99206  1.0000
  H   H756      1.0  0.07849  0.67681  0.22386  1.0000
  H   H757      1.0  0.16517  0.90644  0.99299  1.0000
  H   H758      1.0  0.15158  0.98268  0.01120  1.0000
  H   H759      1.0  0.32933  0.94063  0.99940  1.0000
  C   C463      1.0  0.20227  0.93127  0.99113  1.0000
  C   C464      1.0  0.08718  0.98705  0.18892  1.0000
  H   H760      1.0  0.03122  0.66077  0.22371  1.0000
  C   C465      1.0  0.06896  0.67156  0.23810  1.0000
  S   S174      1.0  0.26953  0.66671  0.39143  1.0000
  S   S175      1.0  0.12979  0.69803  0.36492  1.0000
  H   H761      1.0  0.19711  0.73424  0.37048  1.0000
  C   C466      1.0  0.09995  0.75565  0.34879  1.0000
  Fe  Fe86      1.0  0.28424  0.68775  0.36584  1.0000
  H   H762      1.0  0.22051  0.67972  0.47650  1.0000
  S   S176      1.0  0.08311  0.69289  0.36769  1.0000
  C   C467      1.0  0.12974  0.76136  0.43223  1.0000
  Fe  Fe87      1.0  0.26271  0.72579  0.38122  1.0000
  H   H763      1.0  0.14413  0.72524  0.38351  1.0000
  Fe  Fe88      1.0  0.10717  0.70826  0.34627  1.0000
  S   S177      1.0  0.10361  0.74144  0.33172  1.0000
  N   N49       1.0  0.16794  0.73905  0.36317  1.0000
  S   S178      1.0  0.12007  0.68244  0.33093  1.0000
  S   S179      1.0  0.25464  0.71044  0.36243  1.0000
  C   C468      1.0  0.10054  0.75075  0.45540  1.0000
  C   C469      1.0  0.09012  0.74859  0.36751  1.0000
  C   C470      1.0  0.14618  0.73978  0.37298  1.0000
  H   H764      1.0  0.17542  0.74616  0.38625  1.0000
  H   H765      1.0  0.05986  0.68541  0.24355  1.0000
  H   H766      1.0  0.14008  0.75250  0.38067  1.0000
  S   S180      1.0  0.29333  0.70469  0.38268  1.0000
  C   C471      1.0  0.18060  0.73456  0.37735  1.0000
  H   H767      1.0  0.13637  0.74212  0.36278  1.0000
  H   H768      1.0  0.17971  0.71931  0.38710  1.0000
  C   C472      1.0  0.17004  0.75903  0.35005  1.0000
  H   H769      1.0  0.08422  0.73472  0.37134  1.0000
  H   H770      1.0  0.16104  0.76257  0.33893  1.0000
  C   C473      1.0  0.17488  0.72272  0.35230  1.0000
  S   S181      1.0  0.15059  0.70644  0.45606  1.0000
  Fe  Fe89      1.0  0.27602  0.68568  0.40801  1.0000
  C   C474      1.0  0.27347  0.71054  0.47658  1.0000
  N   N50       1.0  0.09818  0.97562  0.33424  1.0000
  Fe  Fe90      1.0  0.24089  0.69094  0.38977  1.0000
  C   C475      1.0  0.11240  0.68429  0.42785  1.0000
  C   C476      1.0  0.12958  0.69232  0.41711  1.0000
  C   C477      1.0  0.14124  0.69903  0.42590  1.0000
  C   C478      1.0  0.13602  0.69737  0.44555  1.0000
  C   C479      1.0  0.11899  0.68913  0.45638  1.0000
  H   H771      1.0  0.13402  0.69314  0.40208  1.0000
  H   H772      1.0  0.15458  0.70514  0.41752  1.0000
  H   H773      1.0  0.11478  0.68793  0.47155  1.0000
  S   S182      1.0  0.20979  0.68323  0.39976  1.0000
  H   H774      1.0  0.24744  0.79602  0.40992  1.0000
  H   H775      1.0  0.11720  0.95831  0.35405  1.0000
  H   H776      1.0  0.07956  0.75434  0.39569  1.0000
  H   H777      1.0  0.22310  0.78519  0.47972  1.0000
  S   S183      1.0  0.24631  0.70842  0.40827  1.0000
  H   H778      1.0  0.07556  0.98914  0.35588  1.0000
  H   H779      1.0  0.27672  0.71337  0.42985  1.0000
  H   H780      1.0  0.09220  0.75292  0.44403  1.0000
  C   C480      1.0  0.28116  0.68522  0.45089  1.0000
  C   C481      1.0  0.28129  0.67657  0.47002  1.0000
  H   H781      1.0  0.20968  0.69160  0.43694  1.0000
  C   C482      1.0  0.27681  0.70657  0.44463  1.0000
  H   H782      1.0  0.13668  0.77186  0.46153  1.0000
  H   H783      1.0  0.21442  0.66812  0.33847  1.0000
  H   H784      1.0  0.18689  0.82344  0.40095  1.0000
  N   N51       1.0  0.21675  0.81222  0.40733  1.0000
  C   C483      1.0  0.20117  0.81195  0.39741  1.0000
  C   C484      1.0  0.27308  0.71922  0.45746  1.0000
  H   H785      1.0  0.16438  0.77185  0.35761  1.0000
  H   H786      1.0  0.08894  0.95989  0.31801  1.0000
  H   H787      1.0  0.27017  0.73571  0.45251  1.0000
  H   H788      1.0  0.13519  0.74531  0.46766  1.0000
  H   H789      1.0  0.18636  0.75932  0.34277  1.0000
  C   C485      1.0  0.20149  0.67479  0.38382  1.0000
  Fe  Fe91      1.0  0.14096  0.67103  0.35131  1.0000
  C   C486      1.0  0.08751  0.75970  0.38130  1.0000
  H   H790      1.0  0.12194  0.76482  0.42023  1.0000
  C   C487      1.0  0.06443  0.86644  0.35420  1.0000
  H   H791      1.0  0.11559  0.77886  0.32955  1.0000
  H   H792      1.0  0.19139  0.72138  0.34505  1.0000
  H   H793      1.0  0.19679  0.79673  0.40159  1.0000
  C   C488      1.0  0.06811  0.83052  0.35539  1.0000
  C   C489      1.0  0.20156  0.78093  0.36738  1.0000
  Fe  Fe92      1.0  0.02127  0.97987  0.27431  1.0000
  H   H794      1.0  0.22820  0.83664  0.38576  1.0000
  H   H795      1.0  0.08235  0.82669  0.36088  1.0000
  Fe  Fe93      1.0  0.10702  0.68031  0.38525  1.0000
  H   H796      1.0  0.20682  0.81541  0.38173  1.0000
  S   S184      1.0  0.03067  0.96942  0.30228  1.0000
  C   C490      1.0  0.24040  0.78950  0.34970  1.0000
  S   S185      1.0  0.18235  0.81191  0.34218  1.0000
  Fe  Fe94      1.0  0.15514  0.82084  0.36472  1.0000
  C   C491      1.0  0.10714  0.68268  0.44752  1.0000
  S   S186      1.0  0.04851  0.96006  0.25941  1.0000
  Fe  Fe95      1.0  0.05956  0.95198  0.28662  1.0000
  S   S187      1.0  0.07516  0.91921  0.29673  1.0000
  N   N52       1.0  0.06527  0.85141  0.34323  1.0000
  H   H797      1.0  0.18660  0.77785  0.37447  1.0000
  H   H798      1.0  0.05151  0.86603  0.36686  1.0000
  C   C492      1.0  0.21888  0.76880  0.37425  1.0000
  H   H799      1.0  0.07880  0.86335  0.35939  1.0000
  S   S188      1.0  0.15457  0.84342  0.38132  1.0000
  C   C493      1.0  0.11577  0.98105  0.31892  1.0000
  H   H800      1.0  0.12786  0.98369  0.32463  1.0000
  C   C494      1.0  0.27723  0.68920  0.48288  1.0000
  H   H801      1.0  0.04606  0.84510  0.32831  1.0000
  C   C495      1.0  0.09818  0.89800  0.35170  1.0000
  C   C496      1.0  0.08182  0.91495  0.34967  1.0000
  C   C497      1.0  0.07513  0.92223  0.33251  1.0000
  C   C498      1.0  0.08488  0.91263  0.31734  1.0000
  C   C499      1.0  0.10166  0.89617  0.31920  1.0000
  C   C500      1.0  0.10831  0.88889  0.33632  1.0000
  H   H802      1.0  0.07383  0.92191  0.36163  1.0000
  H   H803      1.0  0.06191  0.93467  0.33126  1.0000
  H   H804      1.0  0.10939  0.88887  0.30740  1.0000
  H   H805      1.0  0.12126  0.87618  0.33760  1.0000
  H   H806      1.0  0.08049  0.86798  0.31672  1.0000
  H   H807      1.0  0.23148  0.75774  0.48273  1.0000
  C   C501      1.0  0.20374  0.79690  0.35129  1.0000
  H   H808      1.0  0.06241  0.88236  0.34542  1.0000
  H   H809      1.0  0.05519  0.82892  0.36799  1.0000
  C   C502      1.0  0.10770  0.77356  0.34398  1.0000
  C   C503      1.0  0.10579  0.78425  0.35796  1.0000
  C   C504      1.0  0.22323  0.80100  0.34235  1.0000
  S   S189      1.0  0.12309  0.83381  0.36006  1.0000
  H   H810      1.0  0.24224  0.79978  0.38700  1.0000
  H   H811      1.0  0.22502  0.81334  0.32992  1.0000
  H   H812      1.0  0.07967  0.66295  0.24771  1.0000
  C   C505      1.0  0.23830  0.77323  0.36548  1.0000
  H   H813      1.0  0.03243  0.85539  0.34887  1.0000
  H   H814      1.0  0.04336  0.87182  0.32749  1.0000
  S   S190      1.0  0.10496  0.88781  0.37382  1.0000
  C   C506      1.0  0.08261  0.85263  0.32656  1.0000
  H   H815      1.0  0.17312  0.70753  0.36173  1.0000
  H   H816      1.0  0.06929  0.81863  0.34754  1.0000
  H   H817      1.0  0.09238  0.95204  0.35940  1.0000
  C   C507      1.0  0.04590  0.85612  0.33671  1.0000
  H   H818      1.0  0.08423  0.84096  0.31834  1.0000
  C   C508      1.0  0.17435  0.66430  0.37656  1.0000
  H   H819      1.0  0.25540  0.79303  0.34296  1.0000
  Fe  Fe96      1.0  0.12150  0.85455  0.37893  1.0000
  H   H820      1.0  0.11516  0.76348  0.47881  1.0000
  H   H821      1.0  0.09743  0.85009  0.33081  1.0000
  H   H822      1.0  0.11218  0.79779  0.35424  1.0000
  C   C509      1.0  0.18587  0.66387  0.35817  1.0000
  H   H823      1.0  0.10889  0.73445  0.45808  1.0000
  S   S191      1.0  0.25971  0.75985  0.37515  1.0000
  C   C510      1.0  0.20318  0.67956  0.44846  1.0000
  H   H824      1.0  0.21717  0.75641  0.38663  1.0000
  C   C511      1.0  0.23539  0.79659  0.40250  1.0000
  H   H825      1.0  0.16583  0.72560  0.34132  1.0000
  C   C512      1.0  0.22195  0.83273  0.40134  1.0000
  C   C513      1.0  0.20839  0.80768  0.42802  1.0000
  S   S192      1.0  0.15554  0.80532  0.43288  1.0000
  C   C514      1.0  0.14579  0.84757  0.47293  1.0000
  C   C515      1.0  0.14267  0.85579  0.45444  1.0000
  C   C516      1.0  0.14522  0.84287  0.44216  1.0000
  C   C517      1.0  0.15121  0.82167  0.44829  1.0000
  C   C518      1.0  0.15449  0.81338  0.46670  1.0000
  C   C519      1.0  0.15163  0.82630  0.47907  1.0000
  H   H826      1.0  0.13816  0.87223  0.44965  1.0000
  H   H827      1.0  0.06903  0.96826  0.33707  1.0000
  H   H828      1.0  0.15903  0.79697  0.47148  1.0000
  H   H829      1.0  0.09174  0.78963  0.45977  1.0000
  H   H830      1.0  0.13825  0.74516  0.43381  1.0000
  C   C520      1.0  0.12593  0.76123  0.46516  1.0000
  S   S193      1.0  0.07692  0.97744  0.27829  1.0000
  C   C521      1.0  0.09535  0.77750  0.37656  1.0000
  S   S194      1.0  0.09168  0.79118  0.39406  1.0000
  C   C522      1.0  0.10319  0.78635  0.44675  1.0000
  H   H831      1.0  0.19452  0.81947  0.43212  1.0000
  H   H832      1.0  0.23370  0.83352  0.40853  1.0000
  Fe  Fe97      1.0  0.14295  0.82004  0.40661  1.0000
  H   H833      1.0  0.21984  0.80732  0.43603  1.0000
  S   S195      1.0  0.10980  0.83314  0.40603  1.0000
  C   C523      1.0  0.21331  0.67394  0.36556  1.0000
  N   N53       1.0  0.11484  0.76492  0.44991  1.0000
  H   H834      1.0  0.17310  0.67016  0.40355  1.0000
  H   H835      1.0  0.14270  0.84936  0.42794  1.0000
  H   H836      1.0  0.23195  0.78097  0.40633  1.0000
  Fe  Fe98      1.0  0.11393  0.81169  0.38726  1.0000
  S   S196      1.0  0.14600  0.79681  0.38999  1.0000
  H   H837      1.0  0.24132  0.66576  0.42972  1.0000
  H   H838      1.0  0.20361  0.79262  0.43287  1.0000
  H   H839      1.0  0.09388  0.67647  0.45593  1.0000
  H   H840      1.0  0.11199  0.94344  0.34041  1.0000
  H   H841      1.0  0.11358  0.79739  0.44265  1.0000
  H   H842      1.0  0.20816  0.84489  0.40475  1.0000
  H   H843      1.0  0.09480  0.78974  0.43517  1.0000
  H   H844      1.0  0.14134  0.77109  0.42822  1.0000
  S   S197      1.0  0.30835  0.67849  0.34088  1.0000
  S   S198      1.0  0.09727  0.67622  0.41702  1.0000
  S   S199      1.0  0.28618  0.66910  0.43508  1.0000
  C   C524      1.0  0.23077  0.67275  0.46465  1.0000
  H   H845      1.0  0.22829  0.67786  0.36125  1.0000
  H   H846      1.0  0.12296  0.96869  0.31088  1.0000
  H   H847      1.0  0.08894  0.75309  0.46861  1.0000
  C   C525      1.0  0.10526  0.95656  0.34761  1.0000
  H   H848      1.0  0.32393  0.68128  0.40541  1.0000
  C   C526      1.0  0.08257  0.97239  0.32596  1.0000
  H   H849      1.0  0.05841  0.66265  0.41511  1.0000
  S   S200      1.0  0.14273  0.86430  0.48777  1.0000
  H   H850      1.0  0.23786  0.68501  0.45391  1.0000
  H   H851      1.0  0.19399  0.67312  0.44234  1.0000
  C   C527      1.0  0.18217  0.66969  0.38937  1.0000
  H   H852      1.0  0.19231  0.68731  0.45951  1.0000
  C   C528      1.0  0.20551  0.66835  0.35273  1.0000
  H   H853      1.0  0.03363  0.66518  0.26253  1.0000
  Fe  Fe99      1.0  0.09817  0.66585  0.35423  1.0000
  H   H854      1.0  0.07681  0.98648  0.31592  1.0000
  N   N54       1.0  0.21944  0.66351  0.45627  1.0000
  Fe  Fe100     1.0  0.06394  0.98671  0.25213  1.0000
  Fe  Fe101     1.0  0.14659  0.69531  0.48765  1.0000
  H   H855      1.0  0.15929  0.66061  0.38095  1.0000
  H   H856      1.0  0.24343  0.66113  0.47037  1.0000
  C   C529      1.0  0.08910  0.99252  0.34440  1.0000
  H   H857      1.0  0.09967  0.66058  0.31480  1.0000
  Fe  Fe102     1.0  0.12028  0.68303  0.52639  1.0000
  S   S201      1.0  0.12675  0.71361  0.50889  1.0000
  H   H858      1.0  0.20355  0.68471  0.54980  1.0000
  Fe  Fe103     1.0  0.15412  0.70488  0.52210  1.0000
  C   C530      1.0  0.04972  0.94687  0.73546  1.0000
  N   N55       1.0  0.21086  0.76784  0.50710  1.0000
  S   S202      1.0  0.14607  0.67579  0.54132  1.0000
  Fe  Fe104     1.0  0.26643  0.66770  0.54850  1.0000
  S   S203      1.0  0.24416  0.69638  0.53934  1.0000
  Fe  Fe105     1.0  0.29544  0.69053  0.55367  1.0000
  S   S204      1.0  0.27603  0.72141  0.54400  1.0000
  H   H859      1.0  0.24183  0.77130  0.49372  1.0000
  Fe  Fe106     1.0  0.24969  0.70735  0.56238  1.0000
  Fe  Fe107     1.0  0.27216  0.70790  0.52165  1.0000
  H   H860      1.0  0.19520  0.75262  0.49575  1.0000
  S   S205      1.0  0.26918  0.67735  0.57361  1.0000
  S   S206      1.0  0.29443  0.67836  0.52924  1.0000
  S   S207      1.0  0.22258  0.72267  0.58159  1.0000
  C   C531      1.0  0.08534  0.94804  0.73209  1.0000
  C   C532      1.0  0.19106  0.67751  0.55992  1.0000
  S   S208      1.0  0.08824  0.68091  0.54277  1.0000
  H   H861      1.0  0.28414  0.70883  0.58205  1.0000
  H   H862      1.0  0.03191  0.88258  0.73470  1.0000
  H   H863      1.0  0.00759  0.91510  0.72751  1.0000
  H   H864      1.0  0.03715  0.83614  0.60776  1.0000
  H   H865      1.0  0.12591  0.97447  0.59139  1.0000
  C   C533      1.0  0.08666  0.84185  0.59365  1.0000
  H   H866      1.0  0.26134  0.73355  0.62323  1.0000
  H   H867      1.0  0.16561  0.71070  0.57283  1.0000
  C   C534      1.0  0.14983  0.74332  0.54323  1.0000
  C   C535      1.0  0.27826  0.73200  0.61796  1.0000
  C   C536      1.0  0.12884  0.74645  0.54385  1.0000
  H   H868      1.0  0.19980  0.80008  0.50681  1.0000
  S   S209      1.0  0.16792  0.72480  0.53206  1.0000
  H   H869      1.0  0.06981  0.98848  0.67662  1.0000
  H   H870      1.0  0.20564  0.74585  0.53355  1.0000
  H   H871      1.0  0.12332  0.73678  0.53813  1.0000
  N   N56       1.0  0.18698  0.68210  0.57882  1.0000
  H   H872      1.0  0.19198  0.71278  0.56646  1.0000
  H   H873      1.0  0.08047  0.97322  0.60787  1.0000
  H   H874      1.0  0.21953  0.78758  0.51986  1.0000
  H   H875      1.0  0.28237  0.74583  0.61951  1.0000
  H   H876      1.0  0.28581  0.71844  0.62747  1.0000
  H   H877      1.0  0.25733  0.75017  0.59024  1.0000
  H   H878      1.0  0.27838  0.76237  0.58668  1.0000
  H   H879      1.0  0.21845  0.68195  0.57715  1.0000
  C   C537      1.0  0.20585  0.67429  0.58638  1.0000
  H   H880      1.0  0.99739  0.92549  0.65345  1.0000
  H   H881      1.0  0.31239  0.74079  0.59290  1.0000
  N   N57       1.0  0.28461  0.72978  0.59806  1.0000
  S   S210      1.0  0.17471  0.68962  0.49911  1.0000
  H   H882      1.0  0.09295  0.95597  0.63751  1.0000
  H   H883      1.0  0.11081  0.98086  0.61340  1.0000
  C   C538      1.0  0.30715  0.72750  0.59161  1.0000
  H   H884      1.0  0.27894  0.74700  0.57079  1.0000
  C   C539      1.0  0.27438  0.74814  0.58593  1.0000
  H   H885      1.0  0.11433  0.92227  0.60302  1.0000
  C   C540      1.0  0.27864  0.71142  0.59669  1.0000
  Fe  Fe108     1.0  0.12540  0.82157  0.55460  1.0000
  S   S211      1.0  0.13882  0.83196  0.57347  1.0000
  Fe  Fe109     1.0  0.14200  0.85096  0.51883  1.0000
  S   S212      1.0  0.15663  0.86416  0.53462  1.0000
  H   H886      1.0  0.23161  0.74937  0.52493  1.0000
  Fe  Fe110     1.0  0.16657  0.83140  0.54935  1.0000
  S   S213      1.0  0.19953  0.81867  0.55154  1.0000
  Fe  Fe111     1.0  0.12753  0.86368  0.55712  1.0000
  S   S214      1.0  0.10853  0.89198  0.56781  1.0000
  S   S215      1.0  0.15410  0.81828  0.53182  1.0000
  S   S216      1.0  0.11209  0.85309  0.54003  1.0000
  H   H887      1.0  0.09519  0.85305  0.58298  1.0000
  H   H888      1.0  0.11583  0.93628  0.63701  1.0000
  C   C541      1.0  0.18057  0.70453  0.57723  1.0000
  H   H889      1.0  0.06018  0.81669  0.60466  1.0000
  C   C542      1.0  0.15675  0.75564  0.55105  1.0000
  H   H890      1.0  0.06930  0.83287  0.57025  1.0000
  H   H891      1.0  0.18380  0.75151  0.58623  1.0000
  H   H892      1.0  0.09379  0.82645  0.59038  1.0000
  C   C543      1.0  0.22600  0.78164  0.55623  1.0000
  C   C544      1.0  0.20557  0.79211  0.56042  1.0000
  C   C545      1.0  0.19034  0.78120  0.57112  1.0000
  H   H893      1.0  0.23780  0.79007  0.54795  1.0000
  H   H894      1.0  0.17459  0.78929  0.57456  1.0000
  H   H895      1.0  0.05720  0.67458  0.57668  1.0000
  C   C546      1.0  0.23112  0.76029  0.56232  1.0000
  C   C547      1.0  0.19560  0.75985  0.57775  1.0000
  C   C548      1.0  0.05595  0.86815  0.59758  1.0000
  H   H896      1.0  0.09526  0.96695  0.58572  1.0000
  H   H897      1.0  0.13653  0.92826  0.60630  1.0000
  H   H898      1.0  0.15402  0.81986  0.49328  1.0000
  C   C549      1.0  0.14300  0.77187  0.55833  1.0000
  H   H899      1.0  0.28551  0.69732  0.60614  1.0000
  C   C550      1.0  0.05386  0.83234  0.60760  1.0000
  H   H900      1.0  0.17279  0.75299  0.55118  1.0000
  C   C551      1.0  0.20583  0.78547  0.51620  1.0000
  H   H901      1.0  0.26163  0.71292  0.60050  1.0000
  H   H902      1.0  0.07594  0.91964  0.58603  1.0000
  S   S217      1.0  0.10594  0.79785  0.56481  1.0000
  C   C552      1.0  0.11498  0.76261  0.55142  1.0000
  C   C553      1.0  0.12220  0.77566  0.55818  1.0000
  H   H903      1.0  0.14852  0.78166  0.56390  1.0000
  H   H904      1.0  0.04573  0.85166  0.57355  1.0000
  H   H905      1.0  0.06973  0.85969  0.56319  1.0000
  C   C554      1.0  0.06219  0.84796  0.57425  1.0000
  H   H906      1.0  0.09885  0.76549  0.55135  1.0000
  H   H907      1.0  0.24685  0.75244  0.55886  1.0000
  H   H908      1.0  0.11928  0.98576  0.71885  1.0000
  H   H909      1.0  0.31235  0.72633  0.57646  1.0000
  C   C555      1.0  0.21601  0.74936  0.57324  1.0000
  H   H910      1.0  0.17887  0.70876  0.59090  1.0000
  C   C556      1.0  0.10249  0.94356  0.63019  1.0000
  N   N58       1.0  0.06463  0.84759  0.59329  1.0000
  H   H911      1.0  0.22179  0.73517  0.51399  1.0000
  Fe  Fe112     1.0  0.01345  0.95575  0.66371  1.0000
  S   S218      1.0  0.02446  0.92658  0.68348  1.0000
  Fe  Fe113     1.0  0.05296  0.97066  0.65551  1.0000
  S   S219      1.0  0.06765  0.94283  0.67453  1.0000
  C   C557      1.0  0.12058  0.96795  0.60674  1.0000
  Fe  Fe114     1.0  0.05415  0.92536  0.66151  1.0000
  S   S220      1.0  0.07362  0.89555  0.65425  1.0000
  Fe  Fe115     1.0  0.03696  0.94645  0.69477  1.0000
  S   S221      1.0  0.02968  0.94517  0.72613  1.0000
  S   S222      1.0  0.04195  0.95303  0.64073  1.0000
  H   H912      1.0  0.08920  0.84146  0.60774  1.0000
  H   H913      1.0  0.08176  0.94886  0.60322  1.0000
  H   H914      1.0  0.19551  0.66071  0.56059  1.0000
  C   C558      1.0  0.08252  0.89394  0.63030  1.0000
  H   H915      1.0  0.06354  0.88000  0.58672  1.0000
  H   H916      1.0  0.16665  0.67540  0.60604  1.0000
  H   H917      1.0  0.13431  0.96194  0.61315  1.0000
  H   H918      1.0  0.09321  0.93174  0.63304  1.0000
  C   C559      1.0  0.06947  0.94721  0.72420  1.0000
  C   C560      1.0  0.21775  0.74874  0.52050  1.0000
  H   H919      1.0  0.10065  0.94804  0.72338  1.0000
  H   H920      1.0  0.07264  0.94661  0.70949  1.0000
  C   C561      1.0  0.09848  0.87768  0.62532  1.0000
  C   C562      1.0  0.19241  0.76642  0.50167  1.0000
  C   C563      1.0  0.09086  0.96059  0.60122  1.0000
  H   H921      1.0  0.12720  0.94040  0.58493  1.0000
  C   C564      1.0  0.07422  0.90884  0.61609  1.0000
  H   H922      1.0  0.06154  0.92105  0.61981  1.0000
  H   H923      1.0  0.17929  0.76523  0.51410  1.0000
  C   C565      1.0  0.09852  0.89192  0.59198  1.0000
  H   H924      1.0  0.11910  0.86433  0.60242  1.0000
  C   C566      1.0  0.08230  0.90792  0.59699  1.0000
  C   C567      1.0  0.10649  0.87665  0.60619  1.0000
  H   H925      1.0  0.03921  0.87285  0.59787  1.0000
  H   H926      1.0  0.10492  0.86606  0.63629  1.0000
  S   S223      1.0  0.02347  0.97572  0.67679  1.0000
  H   H927      1.0  0.19387  0.78338  0.52956  1.0000
  H   H928      1.0  0.05817  0.86863  0.61158  1.0000
  H   H929      1.0  0.31540  0.71329  0.59991  1.0000
  C   C568      1.0  0.12240  0.93499  0.60056  1.0000
  H   H930      1.0  0.05550  0.83162  0.62211  1.0000
  H   H931      1.0  0.17732  0.68362  0.55365  1.0000
  N   N59       1.0  0.10911  0.95175  0.60965  1.0000
  H   H932      1.0  0.15603  0.67743  0.58615  1.0000
  C   C569      1.0  0.22750  0.77072  0.49002  1.0000
  H   H933      1.0  0.23907  0.66532  0.52578  1.0000
  C   C570      1.0  0.17039  0.67204  0.59168  1.0000
  S   S224      1.0  0.26946  0.72644  0.49244  1.0000
  S   S225      1.0  0.13798  0.66538  0.50396  1.0000
  S   S226      1.0  0.32483  0.68859  0.56229  1.0000
  H   H934      1.0  0.20330  0.67724  0.60075  1.0000
  H   H935      1.0  0.18729  0.78022  0.49098  1.0000
  H   H936      1.0  0.27711  0.68236  0.49764  1.0000
  H   H937      1.0  0.30185  0.66289  0.59374  1.0000
  H   H938      1.0  0.20917  0.66399  0.51458  1.0000
  C   C571      1.0  0.06954  0.66117  0.57734  1.0000
  C   C572      1.0  0.08740  0.66081  0.56299  1.0000
  Fe  Fe116     1.0  0.16462  0.66113  0.51720  1.0000
  H   H939      1.0  0.26023  0.87255  0.94938  1.0000
  C   C573      1.0  0.31048  0.79634  0.93589  1.0000
  S   S227      1.0  0.10130  0.95019  0.76087  1.0000
  Fe  Fe117     1.0  0.08830  0.96228  0.78741  1.0000
  H   H940      1.0  0.02633  0.86458  0.75682  1.0000
  H   H941      1.0  0.99962  0.97152  0.74863  1.0000
  C   C574      1.0  0.06157  0.94893  0.76235  1.0000
  H   H942      1.0  0.03066  0.94712  0.76345  1.0000
  H   H943      1.0  0.05849  0.94944  0.77712  1.0000
  S   S228      1.0  0.32565  0.73803  0.94370  1.0000
  H   H944      1.0  0.11969  0.98368  0.75210  1.0000
  H   H945      1.0  0.32006  0.81208  0.96043  1.0000
  C   C575      1.0  0.18319  0.87166  0.86552  1.0000
  C   C576      1.0  0.25826  0.90964  0.95496  1.0000
  H   H946      1.0  0.24797  0.91036  0.94564  1.0000
  C   C577      1.0  0.99764  0.99251  0.77449  1.0000
  C   C578      1.0  0.28740  0.78164  0.96374  1.0000
  H   H947      1.0  0.27728  0.78069  0.95491  1.0000
  C   C579      1.0  0.01466  0.90265  0.76299  1.0000
  H   H948      1.0  0.02375  0.91292  0.80398  1.0000
  S   S229      1.0  0.31279  0.79991  0.86020  1.0000
  C   C580      1.0  0.17695  0.91543  0.98697  1.0000
  H   H949      1.0  0.11748  0.98600  0.83652  1.0000
  Fe  Fe118     1.0  0.23552  0.91492  0.90285  1.0000
  S   S230      1.0  0.26331  0.92605  0.90215  1.0000
  Fe  Fe119     1.0  0.20320  0.91238  0.88372  1.0000
  S   S231      1.0  0.19038  0.88915  0.90853  1.0000
  S   S232      1.0  0.19372  0.92177  0.85553  1.0000
  Fe  Fe120     1.0  0.22340  0.87436  0.90915  1.0000
  S   S233      1.0  0.23571  0.84016  0.91610  1.0000
  S   S234      1.0  0.20395  0.93379  0.90113  1.0000
  S   S235      1.0  0.23604  0.89593  0.88299  1.0000
  H   H950      1.0  0.27778  0.78312  0.97803  1.0000
  H   H951      1.0  0.28532  0.87449  0.95018  1.0000
  H   H952      1.0  0.17861  0.88166  0.85232  1.0000
  C   C581      1.0  0.20933  0.84576  0.87930  1.0000
  Fe  Fe121     1.0  0.08799  0.96331  0.82761  1.0000
  S   S236      1.0  0.09898  0.95079  0.85506  1.0000
  H   H953      1.0  0.20238  0.93880  0.94431  1.0000
  H   H954      1.0  0.29040  0.83169  0.94651  1.0000
  H   H955      1.0  0.30083  0.79558  0.92659  1.0000
  C   C582      1.0  0.01925  0.87648  0.74579  1.0000
  C   C583      1.0  0.26980  0.87291  0.95895  1.0000
  C   C584      1.0  0.16734  0.92906  0.85559  1.0000
  C   C585      1.0  0.16105  0.93544  0.83828  1.0000
  C   C586      1.0  0.14008  0.94171  0.83791  1.0000
  C   C587      1.0  0.12531  0.94149  0.85488  1.0000
  C   C588      1.0  0.13162  0.93471  0.87219  1.0000
  C   C589      1.0  0.15258  0.92861  0.87256  1.0000
  H   H956      1.0  0.17245  0.93571  0.82510  1.0000
  H   H957      1.0  0.13536  0.94678  0.82451  1.0000
  H   H958      1.0  0.12024  0.93447  0.88538  1.0000
  H   H959      1.0  0.15729  0.92368  0.88597  1.0000
  C   C590      1.0  0.29130  0.81101  0.87570  1.0000
  C   C591      1.0  0.28453  0.80001  0.89401  1.0000
  C   C592      1.0  0.26744  0.80913  0.90627  1.0000
  C   C593      1.0  0.25734  0.82943  0.90045  1.0000
  C   C594      1.0  0.26430  0.84053  0.88221  1.0000
  C   C595      1.0  0.28115  0.83128  0.86981  1.0000
  H   H960      1.0  0.29222  0.78432  0.89861  1.0000
  H   H961      1.0  0.26196  0.80037  0.92027  1.0000
  H   H962      1.0  0.25656  0.85609  0.87752  1.0000
  H   H963      1.0  0.28636  0.83986  0.85566  1.0000
  C   C596      1.0  0.31295  0.86972  0.91609  1.0000
  C   C597      1.0  0.31638  0.88926  0.91413  1.0000
  C   C598      1.0  0.30137  0.90671  0.90925  1.0000
  C   C599      1.0  0.28298  0.90456  0.90637  1.0000
  C   C600      1.0  0.27991  0.88500  0.90786  1.0000
  C   C601      1.0  0.29484  0.86763  0.91268  1.0000
  C   C602      1.0  0.28276  0.81839  0.95287  1.0000
  H   H964      1.0  0.30384  0.92185  0.90799  1.0000
  H   H965      1.0  0.26592  0.88313  0.90553  1.0000
  H   H966      1.0  0.29205  0.85260  0.91410  1.0000
  H   H967      1.0  0.27250  0.81884  0.94356  1.0000
  S   S237      1.0  0.01402  0.97940  0.81991  1.0000
  H   H968      1.0  0.21043  0.85573  0.88815  1.0000
  C   C603      1.0  0.24020  0.88692  0.98077  1.0000
  C   C604      1.0  0.01274  0.92594  0.80851  1.0000
  H   H969      1.0  0.21995  0.88121  0.85897  1.0000
  H   H970      1.0  0.27327  0.91221  0.94552  1.0000
  N   N60       1.0  0.26055  0.88988  0.96892  1.0000
  Fe  Fe122     1.0  0.19356  0.90932  0.92594  1.0000
  H   H971      1.0  0.12968  0.99304  0.87942  1.0000
  C   C605      1.0  0.08141  0.94892  0.75117  1.0000
  H   H972      1.0  0.19132  0.83445  0.85753  1.0000
  H   H973      1.0  0.32696  0.83877  0.85103  1.0000
  H   H974      1.0  0.00425  0.91629  0.76800  1.0000
  H   H975      1.0  0.03594  0.94132  0.80842  1.0000
  N   N61       1.0  0.20357  0.85805  0.86135  1.0000
  C   C606      1.0  0.00562  0.95881  0.81711  1.0000
  S   S238      1.0  0.32120  0.74217  0.89200  1.0000
  S   S239      1.0  0.10674  0.97585  0.79928  1.0000
  C   C607      1.0  0.27403  0.88999  0.98108  1.0000
  H   H976      1.0  0.21508  0.88034  0.83718  1.0000
  H   H977      1.0  0.22456  0.83517  0.87677  1.0000
  S   S240      1.0  0.22510  0.89224  0.92905  1.0000
  H   H978      1.0  0.30294  0.80097  0.98124  1.0000
  H   H979      1.0  0.19844  0.85302  0.83623  1.0000
  C   C608      1.0  0.18271  0.92199  0.96728  1.0000
  H   H980      1.0  0.28966  0.89174  0.97261  1.0000
  H   H981      1.0  0.32166  0.83931  0.89178  1.0000
  Fe  Fe123     1.0  0.04832  0.97620  0.81345  1.0000
  C   C609      1.0  0.04581  0.94768  0.75457  1.0000
  H   H982      1.0  0.23465  0.86089  0.84735  1.0000
  S   S241      1.0  0.07198  0.94685  0.81587  1.0000
  S   S242      1.0  0.17093  0.91532  0.95258  1.0000
  C   C610      1.0  0.21903  0.87059  0.85070  1.0000
  N   N62       1.0  0.00425  0.89304  0.75403  1.0000
  H   H983      1.0  0.31854  0.80922  0.92874  1.0000
  H   H984      1.0  0.17102  0.86279  0.87330  1.0000
  H   H985      1.0  0.21902  0.94779  0.96543  1.0000
  H   H986      1.0  0.27151  0.85784  0.96920  1.0000
  H   H987      1.0  0.27286  0.82061  0.96689  1.0000
  C   C611      1.0  0.01969  0.94203  0.81107  1.0000
  C   C612      1.0  0.19799  0.93356  0.95952  1.0000
  N   N63       1.0  0.29808  0.79889  0.95483  1.0000
  H   H988      1.0  0.21796  0.83377  0.84642  1.0000
  H   H989      1.0  0.32634  0.81648  0.88350  1.0000
  C   C613      1.0  0.20739  0.93863  0.97148  1.0000
  H   H990      1.0  0.02834  0.90787  0.75295  1.0000
  H   H991      1.0  0.18316  0.88210  0.87441  1.0000
  H   H992      1.0  0.15149  0.97721  0.84393  1.0000
  H   H993      1.0  0.19786  0.83635  0.88798  1.0000
  C   C614      1.0  0.20278  0.84420  0.84986  1.0000
  H   H994      1.0  0.32239  0.78196  0.93687  1.0000
  C   C615      1.0  0.12035  0.99282  0.86958  1.0000
  H   H995      1.0  0.25161  0.92277  0.96209  1.0000
  H   H996      1.0  0.01992  0.89185  0.77556  1.0000
  H   H997      1.0  0.22912  0.88822  0.97197  1.0000
  C   C616      1.0  0.31172  0.79924  0.96677  1.0000
  H   H998      1.0  0.32356  0.78478  0.96841  1.0000
  H   H999      1.0  0.26769  0.90290  0.98853  1.0000
  H   H1000     1.0  0.32190  0.73222  0.98372  1.0000
  H   H1001     1.0  0.12069  0.97650  0.87030  1.0000
  H   H1002     1.0  0.32350  0.86104  0.86024  1.0000
  H   H1003     1.0  0.29850  0.76670  0.96558  1.0000
  S   S243      1.0  0.06281  0.99164  0.82747  1.0000
  S   S244      1.0  0.06348  0.99037  0.78423  1.0000
  H   H1004     1.0  0.00697  0.97664  0.77732  1.0000
  H   H1005     1.0  0.01186  0.86883  0.73902  1.0000
  H   H1006     1.0  0.65131  0.29108  0.00405  1.0000
  H   H1007     1.0  0.35270  0.29343  0.05534  1.0000
  Fe  Fe124     1.0  0.48328  0.10741  0.16301  1.0000
  S   S245      1.0  0.48158  0.07568  0.16296  1.0000
  Fe  Fe125     1.0  0.64274  0.32253  0.02657  1.0000
  C   C617      1.0  0.42965  0.02460  0.15636  1.0000
  C   C618      1.0  0.46519  0.02098  0.13951  1.0000
  S   S246      1.0  0.44061  0.08151  0.13452  1.0000
  H   H1008     1.0  0.43486  0.00420  0.11844  1.0000
  C   C619      1.0  0.42703  0.04594  0.15060  1.0000
  C   C620      1.0  0.44373  0.05485  0.14007  1.0000
  H   H1009     1.0  0.37312  0.25701  0.08234  1.0000
  H   H1010     1.0  0.41216  0.05556  0.15465  1.0000
  S   S247      1.0  0.46681  0.12222  0.13931  1.0000
  H   H1011     1.0  0.64315  0.22007  0.09231  1.0000
  Fe  Fe126     1.0  0.46841  0.09022  0.13723  1.0000
  C   C621      1.0  0.42029  0.08113  0.18068  1.0000
  H   H1012     1.0  0.60943  0.26873  0.98989  1.0000
  H   H1013     1.0  0.54256  0.12217  0.00196  1.0000
  H   H1014     1.0  0.41369  0.00137  0.13818  1.0000
  H   H1015     1.0  0.47580  0.04927  0.12642  1.0000
  C   C622      1.0  0.46288  0.04238  0.13466  1.0000
  H   H1016     1.0  0.42254  0.09655  0.18030  1.0000
  H   H1017     1.0  0.35851  0.31302  0.06319  1.0000
  H   H1018     1.0  0.40981  0.08340  0.17106  1.0000
  H   H1019     1.0  0.37992  0.08275  0.20013  1.0000
  H   H1020     1.0  0.40343  0.04158  0.21431  1.0000
  S   S248      1.0  0.36823  0.02608  0.21130  1.0000
  C   C623      1.0  0.45176  0.11757  0.20319  1.0000
  C   C624      1.0  0.44698  0.11058  0.22284  1.0000
  H   H1021     1.0  0.46415  0.00301  0.18437  1.0000
  C   C625      1.0  0.56041  0.29435  0.00273  1.0000
  H   H1022     1.0  0.46987  0.00882  0.20401  1.0000
  H   H1023     1.0  0.42881  0.08325  0.21239  1.0000
  H   H1024     1.0  0.54975  0.30755  0.99587  1.0000
  H   H1025     1.0  0.35740  0.06095  0.22802  1.0000
  H   H1026     1.0  0.39247  0.09895  0.20581  1.0000
  N   N64       1.0  0.41199  0.07050  0.20012  1.0000
  C   C626      1.0  0.54681  0.13433  0.00625  1.0000
  H   H1027     1.0  0.38621  0.07677  0.22301  1.0000
  C   C627      1.0  0.44865  0.01209  0.15064  1.0000
  H   H1028     1.0  0.55334  0.28066  0.00678  1.0000
  N   N65       1.0  0.49618  0.99566  0.18492  1.0000
  N   N66       1.0  0.35317  0.28622  0.08497  1.0000
  H   H1029     1.0  0.60107  0.27120  0.07488  1.0000
  C   C628      1.0  0.42635  0.06812  0.21229  1.0000
  H   H1030     1.0  0.65713  0.31582  0.13939  1.0000
  S   S249      1.0  0.47762  0.11495  0.19140  1.0000
  H   H1031     1.0  0.43545  0.07231  0.17456  1.0000
  H   H1032     1.0  0.45910  0.10348  0.23033  1.0000
  C   C629      1.0  0.39178  0.08270  0.20759  1.0000
  H   H1033     1.0  0.49845  0.10116  0.22645  1.0000
  C   C630      1.0  0.40961  0.05004  0.19984  1.0000
  H   H1034     1.0  0.50593  0.99960  0.20833  1.0000
  C   C631      1.0  0.42654  0.11196  0.23274  1.0000
  S   S250      1.0  0.60770  0.31506  0.07719  1.0000
  H   H1035     1.0  0.40311  0.13460  0.19569  1.0000
  H   H1036     1.0  0.63564  0.30404  0.12467  1.0000
  H   H1037     1.0  0.47989  0.01139  0.13487  1.0000
  N   N67       1.0  0.58092  0.29073  0.99006  1.0000
  H   H1038     1.0  0.34812  0.26033  0.07776  1.0000
  C   C632      1.0  0.66015  0.21805  0.08807  1.0000
  H   H1039     1.0  0.42443  0.04053  0.19391  1.0000
  C   C633      1.0  0.59436  0.27274  0.99957  1.0000
  C   C634      1.0  0.41915  0.00084  0.12294  1.0000
  H   H1040     1.0  0.59229  0.31193  0.99870  1.0000
  S   S251      1.0  0.52526  0.02896  0.23864  1.0000
  C   C635      1.0  0.57100  0.15802  0.08594  1.0000
  C   C636      1.0  0.58055  0.23698  0.05441  1.0000
  Fe  Fe127     1.0  0.59940  0.20355  0.00555  1.0000
  S   S252      1.0  0.61667  0.17314  0.99898  1.0000
  Fe  Fe128     1.0  0.60581  0.19136  0.04573  1.0000
  S   S253      1.0  0.62342  0.15998  0.04269  1.0000
  S   S254      1.0  0.60169  0.20134  0.07262  1.0000
  Fe  Fe129     1.0  0.63898  0.17605  0.01423  1.0000
  H   H1041     1.0  0.51599  0.01440  0.16466  1.0000
  Fe  Fe130     1.0  0.59934  0.16025  0.02787  1.0000
  S   S255      1.0  0.58604  0.13229  0.03417  1.0000
  S   S256      1.0  0.62312  0.20762  0.01846  1.0000
  S   S257      1.0  0.58025  0.19054  0.03334  1.0000
  Fe  Fe131     1.0  0.51210  0.07546  0.14274  1.0000
  H   H1042     1.0  0.57505  0.22751  0.04845  1.0000
  S   S258      1.0  0.53641  0.04751  0.14967  1.0000
  H   H1043     1.0  0.58737  0.25895  0.00427  1.0000
  C   C637      1.0  0.56234  0.13494  0.05040  1.0000
  C   C638      1.0  0.54890  0.15403  0.04944  1.0000
  C   C639      1.0  0.53082  0.15674  0.06332  1.0000
  C   C640      1.0  0.52604  0.14033  0.07823  1.0000
  C   C641      1.0  0.53908  0.12098  0.07892  1.0000
  C   C642      1.0  0.55719  0.11825  0.06488  1.0000
  H   H1044     1.0  0.55236  0.16679  0.03804  1.0000
  H   H1045     1.0  0.52067  0.17168  0.06271  1.0000
  H   H1046     1.0  0.56750  0.10339  0.06563  1.0000
  H   H1047     1.0  0.53541  0.10823  0.09043  1.0000
  S   S259      1.0  0.50448  0.14504  0.09639  1.0000
  H   H1048     1.0  0.56938  0.16193  0.00280  1.0000
  S   S260      1.0  0.49880  0.08689  0.11665  1.0000
  H   H1049     1.0  0.53217  0.16365  0.10609  1.0000
  N   N68       1.0  0.55088  0.15160  0.99002  1.0000
  S   S261      1.0  0.65745  0.27735  0.08905  1.0000
  C   C643      1.0  0.36544  0.02799  0.23472  1.0000
  H   H1050     1.0  0.53777  0.15016  0.12878  1.0000
  H   H1051     1.0  0.57187  0.14343  0.08199  1.0000
  H   H1052     1.0  0.49735  0.02720  0.18177  1.0000
  H   H1053     1.0  0.55193  0.01126  0.17609  1.0000
  H   H1054     1.0  0.56131  0.29783  0.01605  1.0000
  H   H1055     1.0  0.57936  0.12448  0.11308  1.0000
  C   C644      1.0  0.41070  0.12054  0.22298  1.0000
  H   H1056     1.0  0.57935  0.17943  0.10698  1.0000
  H   H1057     1.0  0.54331  0.13676  0.11015  1.0000
  C   C645      1.0  0.63238  0.31995  0.11604  1.0000
  H   H1058     1.0  0.59463  0.14241  0.11152  1.0000
  H   H1059     1.0  0.42032  0.06073  0.22724  1.0000
  H   H1060     1.0  0.55356  0.18877  0.10368  1.0000
  H   H1061     1.0  0.57417  0.13763  0.13191  1.0000
  H   H1062     1.0  0.55820  0.17515  0.12672  1.0000
  C   C646      1.0  0.54351  0.15151  0.11322  1.0000
  H   H1063     1.0  0.58644  0.16196  0.08046  1.0000
  H   H1064     1.0  0.56058  0.12706  0.01247  1.0000
  H   H1065     1.0  0.51838  0.07291  0.17695  1.0000
  C   C647      1.0  0.57877  0.13945  0.11624  1.0000
  H   H1066     1.0  0.56018  0.17022  0.07826  1.0000
  C   C648      1.0  0.55546  0.16773  0.99665  1.0000
  C   C649      1.0  0.58287  0.27070  0.05597  1.0000
  H   H1067     1.0  0.64455  0.20020  0.06931  1.0000
  C   C650      1.0  0.56380  0.17572  0.11126  1.0000
  N   N69       1.0  0.56427  0.15618  0.10667  1.0000
  H   H1068     1.0  0.60929  0.23332  0.08575  1.0000
  C   C651      1.0  0.35655  0.26386  0.08676  1.0000
  C   C652      1.0  0.66156  0.19833  0.06570  1.0000
  H   H1069     1.0  0.43958  0.13176  0.17812  1.0000
  H   H1070     1.0  0.51888  0.16573  0.99208  1.0000
  H   H1071     1.0  0.59733  0.27565  0.01233  1.0000
  H   H1072     1.0  0.40897  0.01351  0.11497  1.0000
  Fe  Fe132     1.0  0.60387  0.30908  0.05064  1.0000
  Fe  Fe133     1.0  0.49821  0.11815  0.12026  1.0000
  C   C653      1.0  0.53523  0.04254  0.17414  1.0000
  S   S262      1.0  0.51470  0.10648  0.14420  1.0000
  C   C654      1.0  0.59309  0.22795  0.06749  1.0000
  H   H1073     1.0  0.41684  0.01794  0.16510  1.0000
  Fe  Fe134     1.0  0.38604  0.99532  0.20594  1.0000
  C   C655      1.0  0.57499  0.25835  0.04905  1.0000
  C   C656      1.0  0.52973  0.03388  0.21381  1.0000
  C   C657      1.0  0.52205  0.05350  0.20397  1.0000
  C   C658      1.0  0.43595  0.12620  0.19333  1.0000
  H   H1074     1.0  0.51379  0.06547  0.21151  1.0000
  C   C659      1.0  0.54058  0.01862  0.20375  1.0000
  C   C660      1.0  0.54355  0.02303  0.18387  1.0000
  C   C661      1.0  0.52463  0.05775  0.18426  1.0000
  H   H1075     1.0  0.35104  0.25591  0.10165  1.0000
  H   H1076     1.0  0.56508  0.26522  0.03913  1.0000
  C   C662      1.0  0.59987  0.24028  0.07541  1.0000
  Fe  Fe135     1.0  0.64072  0.30002  0.06766  1.0000
  C   C663      1.0  0.36084  0.29610  0.06504  1.0000
  C   C664      1.0  0.33098  0.29460  0.09074  1.0000
  H   H1077     1.0  0.54682  0.00350  0.21124  1.0000
  H   H1078     1.0  0.52454  0.07083  0.23853  1.0000
  C   C665      1.0  0.41537  0.12792  0.20327  1.0000
  S   S263      1.0  0.63608  0.29172  0.04259  1.0000
  S   S264      1.0  0.57856  0.29722  0.04686  1.0000
  C   C666      1.0  0.59519  0.26168  0.06929  1.0000
  C   C667      1.0  0.47431  0.99767  0.19471  1.0000
  H   H1079     1.0  0.53411  0.13948  0.01783  1.0000
  H   H1080     1.0  0.54249  0.17345  0.00772  1.0000
  H   H1081     1.0  0.39867  0.05127  0.19093  1.0000
  C   C668      1.0  0.65088  0.29821  0.98946  1.0000
  S   S265      1.0  0.38529  0.12003  0.23513  1.0000
  H   H1082     1.0  0.44167  0.05886  0.20711  1.0000
  H   H1083     1.0  0.37756  0.29022  0.06018  1.0000
  C   C669      1.0  0.65918  0.23496  0.05553  1.0000
  H   H1084     1.0  0.38107  0.28429  0.09338  1.0000
  H   H1085     1.0  0.35869  0.28340  0.11247  1.0000
  C   C670      1.0  0.49991  0.01575  0.17306  1.0000
  C   C671      1.0  0.36425  0.29039  0.09729  1.0000
  H   H1086     1.0  0.48974  0.02223  0.16278  1.0000
  H   H1087     1.0  0.36201  0.30721  0.09612  1.0000
  H   H1088     1.0  0.64212  0.23771  0.05858  1.0000
  H   H1089     1.0  0.62949  0.31865  0.10265  1.0000
  H   H1090     1.0  0.66331  0.24866  0.05736  1.0000
  H   H1091     1.0  0.37527  0.21377  0.48012  1.0000
  H   H1092     1.0  0.41701  0.00484  0.24526  1.0000
  Fe  Fe136     1.0  0.36903  0.10068  0.30676  1.0000
  S   S266      1.0  0.39651  0.11057  0.28593  1.0000
  H   H1093     1.0  0.38752  0.19466  0.45426  1.0000
  Fe  Fe137     1.0  0.37456  0.06279  0.29171  1.0000
  S   S267      1.0  0.40271  0.06924  0.26973  1.0000
  Fe  Fe138     1.0  0.41158  0.07735  0.29282  1.0000
  S   S268      1.0  0.44423  0.06858  0.29613  1.0000
  Fe  Fe139     1.0  0.38499  0.10170  0.26488  1.0000
  H   H1094     1.0  0.49165  0.07599  0.28601  1.0000
  S   S269      1.0  0.38498  0.06794  0.31548  1.0000
  S   S270      1.0  0.35592  0.09466  0.28505  1.0000
  H   H1095     1.0  0.35270  0.07842  0.35191  1.0000
  H   H1096     1.0  0.34942  0.08555  0.38356  1.0000
  C   C672      1.0  0.45238  0.04204  0.30354  1.0000
  C   C673      1.0  0.47325  0.03387  0.30288  1.0000
  C   C674      1.0  0.36023  0.04933  0.25712  1.0000
  H   H1097     1.0  0.35705  0.06439  0.26012  1.0000
  H   H1098     1.0  0.34071  0.23597  0.45899  1.0000
  C   C675      1.0  0.37921  0.10385  0.34884  1.0000
  C   C676      1.0  0.36147  0.11863  0.34588  1.0000
  H   H1099     1.0  0.55557  0.00861  0.42758  1.0000
  H   H1100     1.0  0.38720  0.09451  0.33861  1.0000
  H   H1101     1.0  0.42230  0.03512  0.31040  1.0000
  H   H1102     1.0  0.37309  0.24583  0.42303  1.0000
  H   H1103     1.0  0.42309  0.10610  0.24789  1.0000
  C   C677      1.0  0.36725  0.01236  0.26751  1.0000
  H   H1104     1.0  0.48398  0.04386  0.29906  1.0000
  H   H1105     1.0  0.40474  0.21168  0.44168  1.0000
  S   S271      1.0  0.36418  0.03401  0.29401  1.0000
  H   H1106     1.0  0.47348  0.09774  0.27726  1.0000
  S   S272      1.0  0.34323  0.28985  0.41243  1.0000
  H   H1107     1.0  0.41639  0.00971  0.29335  1.0000
  H   H1108     1.0  0.33506  0.06562  0.34875  1.0000
  H   H1109     1.0  0.33830  0.14284  0.35641  1.0000
  C   C678      1.0  0.38112  0.12420  0.48051  1.0000
  Fe  Fe140     1.0  0.35044  0.10888  0.42363  1.0000
  C   C679      1.0  0.51865  0.07408  0.25299  1.0000
  H   H1110     1.0  0.36543  0.24102  0.47481  1.0000
  H   H1111     1.0  0.49661  0.00657  0.30587  1.0000
  H   H1112     1.0  0.52875  0.08308  0.25489  1.0000
  Fe  Fe141     1.0  0.33194  0.26594  0.40545  1.0000
  C   C680      1.0  0.34063  0.07312  0.38979  1.0000
  C   C681      1.0  0.36343  0.03180  0.27148  1.0000
  C   C682      1.0  0.35868  0.12786  0.37548  1.0000
  C   C683      1.0  0.37519  0.11181  0.37934  1.0000
  H   H1113     1.0  0.49896  0.10040  0.27617  1.0000
  C   C684      1.0  0.49003  0.09006  0.27457  1.0000
  C   C685      1.0  0.43852  0.02888  0.30939  1.0000
  H   H1114     1.0  0.39899  0.08810  0.36845  1.0000
  C   C686      1.0  0.38601  0.10035  0.36565  1.0000
  H   H1115     1.0  0.35111  0.13753  0.38550  1.0000
  H   H1116     1.0  0.55127  0.01792  0.40389  1.0000
  H   H1117     1.0  0.35041  0.20868  0.46399  1.0000
  C   C687      1.0  0.36882  0.01045  0.24902  1.0000
  C   C688      1.0  0.35263  0.22330  0.45366  1.0000
  C   C689      1.0  0.35166  0.13108  0.35891  1.0000
  C   C690      1.0  0.48413  0.07193  0.25404  1.0000
  C   C691      1.0  0.37674  0.22814  0.46917  1.0000
  H   H1118     1.0  0.36741  0.10701  0.46933  1.0000
  H   H1119     1.0  0.39424  0.12474  0.46870  1.0000
  S   S273      1.0  0.34194  0.13099  0.44270  1.0000
  C   C692      1.0  0.33106  0.18331  0.41450  1.0000
  C   C693      1.0  0.44552  0.00885  0.26150  1.0000
  S   S274      1.0  0.38016  0.10409  0.40220  1.0000
  N   N70       1.0  0.49696  0.08509  0.25562  1.0000
  C   C694      1.0  0.34376  0.19769  0.40732  1.0000
  C   C695      1.0  0.33513  0.21867  0.40477  1.0000
  H   H1120     1.0  0.48604  0.05690  0.26432  1.0000
  C   C696      1.0  0.41238  0.00561  0.28176  1.0000
  H   H1121     1.0  0.36461  0.25946  0.44187  1.0000
  N   N71       1.0  0.37350  0.22677  0.45094  1.0000
  H   H1122     1.0  0.46752  0.07920  0.25702  1.0000
  H   H1123     1.0  0.43847  0.02402  0.25360  1.0000
  H   H1124     1.0  0.45904  0.00195  0.25158  1.0000
  H   H1125     1.0  0.33789  0.16722  0.41604  1.0000
  H   H1126     1.0  0.35902  0.31618  0.36937  1.0000
  C   C697      1.0  0.38879  0.20956  0.44397  1.0000
  C   C698      1.0  0.37579  0.24615  0.43689  1.0000
  C   C699      1.0  0.48049  0.01265  0.30659  1.0000
  H   H1127     1.0  0.36028  0.19254  0.40398  1.0000
  H   H1128     1.0  0.34963  0.22251  0.44006  1.0000
  H   H1129     1.0  0.35185  0.05860  0.39343  1.0000
  C   C700      1.0  0.36586  0.11430  0.48079  1.0000
  S   S275      1.0  0.35108  0.23657  0.39786  1.0000
  S   S276      1.0  0.34981  0.12018  0.32739  1.0000
  H   H1130     1.0  0.38666  0.20816  0.43023  1.0000
  H   H1131     1.0  0.53051  0.01152  0.42338  1.0000
  C   C701      1.0  0.54726  0.00686  0.41754  1.0000
  H   H1132     1.0  0.39231  0.23089  0.46764  1.0000
  H   H1133     1.0  0.39142  0.24920  0.43426  1.0000
  H   H1134     1.0  0.54571  0.99409  0.38715  1.0000
  H   H1135     1.0  0.37230  0.99540  0.24594  1.0000
  C   C702      1.0  0.44578  0.00753  0.31375  1.0000
  H   H1136     1.0  0.35422  0.05167  0.36227  1.0000
  C   C703      1.0  0.34334  0.06658  0.35915  1.0000
  H   H1137     1.0  0.52054  0.05899  0.26324  1.0000
  H   H1138     1.0  0.36939  0.99874  0.27863  1.0000
  S   S277      1.0  0.33980  0.08295  0.44664  1.0000
  H   H1139     1.0  0.40476  0.02013  0.27342  1.0000
  H   H1140     1.0  0.50580  0.11379  0.24070  1.0000
  H   H1141     1.0  0.39065  0.32297  0.34540  1.0000
  H   H1142     1.0  0.43511  0.99734  0.31828  1.0000
  H   H1143     1.0  0.45134  0.01170  0.27278  1.0000
  C   C704      1.0  0.49506  0.10430  0.24090  1.0000
  H   H1144     1.0  0.47929  0.11390  0.24340  1.0000
  N   N72       1.0  0.43059  0.99526  0.26968  1.0000
  H   H1145     1.0  0.40085  0.99576  0.28849  1.0000
  C   C705      1.0  0.46690  0.99943  0.31136  1.0000
  Fe  Fe142     1.0  0.52808  0.99577  0.25352  1.0000
  C   C706      1.0  0.36063  0.04740  0.23892  1.0000
  H   H1146     1.0  0.48827  0.06855  0.23968  1.0000
  C   C707      1.0  0.50435  0.05384  0.73114  1.0000
  Fe  Fe143     1.0  0.36904  0.17669  0.55334  1.0000
  S   S278      1.0  0.37059  0.19011  0.52240  1.0000
  Fe  Fe144     1.0  0.41477  0.16086  0.54826  1.0000
  S   S279      1.0  0.42075  0.17384  0.51692  1.0000
  Fe  Fe145     1.0  0.39734  0.20141  0.52387  1.0000
  Fe  Fe146     1.0  0.39368  0.16145  0.51800  1.0000
  S   S280      1.0  0.43407  0.09041  0.73102  1.0000
  S   S281      1.0  0.38911  0.14651  0.54891  1.0000
  H   H1147     1.0  0.34914  0.24544  0.51939  1.0000
  C   C708      1.0  0.54086  0.04016  0.72390  1.0000
  C   C709      1.0  0.44948  0.08146  0.52054  1.0000
  C   C710      1.0  0.36247  0.13262  0.51067  1.0000
  H   H1148     1.0  0.38647  0.30842  0.63541  1.0000
  H   H1149     1.0  0.36109  0.13975  0.52219  1.0000
  H   H1150     1.0  0.36414  0.18709  0.59906  1.0000
  S   S282      1.0  0.39413  0.19000  0.55534  1.0000
  C   C711      1.0  0.51652  0.05209  0.65455  1.0000
  C   C712      1.0  0.43923  0.14355  0.58416  1.0000
  H   H1151     1.0  0.35355  0.23052  0.54205  1.0000
  H   H1152     1.0  0.45416  0.11894  0.52027  1.0000
  N   N73       1.0  0.43358  0.09808  0.52787  1.0000
  H   H1153     1.0  0.55354  0.02893  0.71717  1.0000
  C   C713      1.0  0.34879  0.11366  0.49588  1.0000
  C   C714      1.0  0.57521  0.12043  0.67493  1.0000
  C   C715      1.0  0.61256  0.02539  0.57226  1.0000
  N   N74       1.0  0.39812  0.31064  0.60546  1.0000
  H   H1154     1.0  0.42610  0.17577  0.57678  1.0000
  H   H1155     1.0  0.34517  0.25781  0.53849  1.0000
  H   H1156     1.0  0.61953  0.03835  0.57166  1.0000
  C   C716      1.0  0.43126  0.16321  0.58775  1.0000
  H   H1157     1.0  0.56249  0.11216  0.64765  1.0000
  H   H1158     1.0  0.44566  0.06617  0.52767  1.0000
  S   S283      1.0  0.43897  0.13855  0.56256  1.0000
  H   H1159     1.0  0.57799  0.03414  0.59828  1.0000
  H   H1160     1.0  0.59880  0.03190  0.56593  1.0000
  H   H1161     1.0  0.41378  0.22490  0.54079  1.0000
  H   H1162     1.0  0.39177  0.28470  0.62792  1.0000
  H   H1163     1.0  0.42756  0.13077  0.52317  1.0000
  H   H1164     1.0  0.60299  0.05580  0.69479  1.0000
  S   S284      1.0  0.39750  0.23357  0.50739  1.0000
  Fe  Fe147     1.0  0.45058  0.12927  0.66157  1.0000
  S   S285      1.0  0.44171  0.09866  0.67476  1.0000
  S   S286      1.0  0.43286  0.15477  0.64268  1.0000
  Fe  Fe148     1.0  0.44902  0.10236  0.70081  1.0000
  H   H1165     1.0  0.40866  0.08310  0.53181  1.0000
  S   S287      1.0  0.45499  0.13410  0.68853  1.0000
  H   H1166     1.0  0.55360  0.07864  0.64805  1.0000
  C   C717      1.0  0.43015  0.16670  0.60555  1.0000
  H   H1167     1.0  0.39589  0.15133  0.63217  1.0000
  H   H1168     1.0  0.48083  0.12982  0.71511  1.0000
  C   C718      1.0  0.44661  0.12752  0.59826  1.0000
  H   H1169     1.0  0.33923  0.16449  0.61456  1.0000
  C   C719      1.0  0.49442  0.12383  0.72093  1.0000
  C   C720      1.0  0.43691  0.15055  0.61984  1.0000
  C   C721      1.0  0.44538  0.13099  0.61612  1.0000
  H   H1170     1.0  0.37748  0.13009  0.61207  1.0000
  H   H1171     1.0  0.45058  0.11844  0.62713  1.0000
  H   H1172     1.0  0.50518  0.04202  0.69978  1.0000
  C   C722      1.0  0.45600  0.03302  0.72233  1.0000
  C   C723      1.0  0.44916  0.05427  0.71944  1.0000
  H   H1173     1.0  0.46240  0.02614  0.71024  1.0000
  H   H1174     1.0  0.45024  0.06338  0.70517  1.0000
  N   N75       1.0  0.36929  0.15917  0.62012  1.0000
  C   C724      1.0  0.37905  0.14629  0.60601  1.0000
  H   H1175     1.0  0.33935  0.16830  0.63716  1.0000
  S   S288      1.0  0.48386  0.11631  0.65087  1.0000
  Fe  Fe149     1.0  0.47551  0.08599  0.66642  1.0000
  H   H1176     1.0  0.38812  0.18146  0.60604  1.0000
  C   C725      1.0  0.37167  0.18053  0.61136  1.0000
  C   C726      1.0  0.34721  0.15864  0.62659  1.0000
  H   H1177     1.0  0.42391  0.18191  0.60832  1.0000
  H   H1178     1.0  0.52328  0.05822  0.69417  1.0000
  H   H1179     1.0  0.58341  0.00243  0.58682  1.0000
  N   N76       1.0  0.60717  0.01358  0.59192  1.0000
  Fe  Fe150     1.0  0.48760  0.11842  0.67893  1.0000
  H   H1180     1.0  0.37248  0.16070  0.64740  1.0000
  H   H1181     1.0  0.37780  0.13514  0.64351  1.0000
  C   C727      1.0  0.59226  0.02720  0.60377  1.0000
  H   H1182     1.0  0.42012  0.10734  0.55440  1.0000
  C   C728      1.0  0.37923  0.15123  0.63653  1.0000
  S   S289      1.0  0.48980  0.05552  0.65843  1.0000
  S   S290      1.0  0.48195  0.08727  0.69342  1.0000
  H   H1183     1.0  0.44034  0.12104  0.50239  1.0000
  H   H1184     1.0  0.63312  0.01744  0.60014  1.0000
  H   H1185     1.0  0.42801  0.08011  0.55644  1.0000
  H   H1186     1.0  0.45286  0.11230  0.59553  1.0000
  C   C729      1.0  0.52951  0.10870  0.73609  1.0000
  H   H1187     1.0  0.58763  0.01870  0.61862  1.0000
  H   H1188     1.0  0.39575  0.14625  0.60092  1.0000
  H   H1189     1.0  0.45102  0.08340  0.50503  1.0000
  C   C730      1.0  0.34327  0.24397  0.53494  1.0000
  H   H1190     1.0  0.57566  0.07137  0.67443  1.0000
  C   C731      1.0  0.43926  0.11801  0.51794  1.0000
  H   H1191     1.0  0.40124  0.11037  0.52965  1.0000
  H   H1192     1.0  0.40791  0.24511  0.56502  1.0000
  H   H1193     1.0  0.44675  0.09571  0.55142  1.0000
  H   H1194     1.0  0.60728  0.09032  0.68188  1.0000
  H   H1195     1.0  0.59880  0.03994  0.60445  1.0000
  H   H1196     1.0  0.62386  0.01553  0.56297  1.0000
  C   C732      1.0  0.38485  0.26900  0.52029  1.0000
  C   C733      1.0  0.38133  0.28035  0.53408  1.0000
  C   C734      1.0  0.38946  0.27166  0.55031  1.0000
  H   H1197     1.0  0.37835  0.27567  0.50787  1.0000
  H   H1198     1.0  0.37226  0.29582  0.53219  1.0000
  C   C735      1.0  0.40465  0.24031  0.53894  1.0000
  S   S291      1.0  0.38312  0.28494  0.56848  1.0000
  H   H1199     1.0  0.58369  0.13256  0.66607  1.0000
  C   C736      1.0  0.40154  0.25183  0.55253  1.0000
  C   C737      1.0  0.39601  0.24878  0.52300  1.0000
  H   H1200     1.0  0.34007  0.30338  0.51636  1.0000
  C   C738      1.0  0.39720  0.29918  0.62532  1.0000
  C   C739      1.0  0.41357  0.09785  0.52451  1.0000
  H   H1201     1.0  0.41288  0.30573  0.57741  1.0000
  H   H1202     1.0  0.37202  0.15197  0.59337  1.0000
  Fe  Fe151     1.0  0.35106  0.30278  0.56870  1.0000
  C   C740      1.0  0.52892  0.03259  0.65423  1.0000
  N   N77       1.0  0.58229  0.10153  0.66745  1.0000
  H   H1203     1.0  0.53228  0.03138  0.69448  1.0000
  H   H1204     1.0  0.41415  0.10024  0.50910  1.0000
  H   H1205     1.0  0.58760  0.11801  0.63836  1.0000
  C   C741      1.0  0.33470  0.29219  0.49450  1.0000
  H   H1206     1.0  0.50666  0.06979  0.72446  1.0000
  H   H1207     1.0  0.46476  0.08124  0.52284  1.0000
  H   H1208     1.0  0.36477  0.19067  0.62165  1.0000
  H   H1209     1.0  0.61377  0.10476  0.65806  1.0000
  C   C742      1.0  0.57908  0.10620  0.64794  1.0000
  S   S292      1.0  0.34026  0.18184  0.57538  1.0000
  C   C743      1.0  0.51368  0.11918  0.70896  1.0000
  S   S293      1.0  0.58576  0.04245  0.64755  1.0000
  C   C744      1.0  0.60436  0.09355  0.66735  1.0000
  S   S294      1.0  0.59536  0.07447  0.72615  1.0000
  H   H1210     1.0  0.55856  0.12686  0.67530  1.0000
  C   C745      1.0  0.41245  0.29786  0.59256  1.0000
  C   C746      1.0  0.57051  0.08592  0.67957  1.0000
  H   H1211     1.0  0.63763  0.99496  0.59089  1.0000
  H   H1212     1.0  0.58437  0.09223  0.64187  1.0000
  C   C747      1.0  0.34722  0.12253  0.51100  1.0000
  C   C748      1.0  0.62594  0.00509  0.59963  1.0000
  H   H1213     1.0  0.61015  0.07901  0.66220  1.0000
  H   H1214     1.0  0.33406  0.12191  0.52275  1.0000
  N   N78       1.0  0.52062  0.03860  0.72207  1.0000
  H   H1215     1.0  0.51617  0.08364  0.65292  1.0000
  H   H1216     1.0  0.34483  0.14276  0.63324  1.0000
  S   S295      1.0  0.51628  0.12256  0.68444  1.0000
  H   H1217     1.0  0.61570  0.02029  0.69108  1.0000
  C   C749      1.0  0.52034  0.04269  0.70177  1.0000
  Fe  Fe152     1.0  0.59733  0.00941  0.66008  1.0000
  C   C750      1.0  0.61978  0.00828  0.71972  1.0000
  H   H1218     1.0  0.57747  0.11743  0.68965  1.0000
  H   H1219     1.0  0.55380  0.09135  0.67976  1.0000
  H   H1220     1.0  0.42836  0.29408  0.59485  1.0000
  H   H1221     1.0  0.41257  0.29502  0.62893  1.0000
  C   C751      1.0  0.53113  0.11157  0.71665  1.0000
  C   C752      1.0  0.59795  0.99663  0.59199  1.0000
  H   H1222     1.0  0.54598  0.10777  0.70771  1.0000
  C   C753      1.0  0.55919  0.04617  0.64996  1.0000
  C   C754      1.0  0.55015  0.02958  0.65232  1.0000
  C   C755      1.0  0.52553  0.06859  0.65255  1.0000
  C   C756      1.0  0.54684  0.06572  0.64990  1.0000
  H   H1223     1.0  0.55940  0.01441  0.65254  1.0000
  H   H1224     1.0  0.49276  0.00462  0.65798  1.0000
  H   H1225     1.0  0.52216  0.01977  0.65567  1.0000
  C   C757      1.0  0.60479  0.04890  0.72407  1.0000
  C   C758      1.0  0.60696  0.04403  0.70669  1.0000
  C   C759      1.0  0.61418  0.02379  0.70458  1.0000
  H   H1226     1.0  0.57232  0.08222  0.69449  1.0000
  H   H1227     1.0  0.54405  0.05575  0.71698  1.0000
  H   H1228     1.0  0.37156  0.30170  0.60335  1.0000
  H   H1229     1.0  0.36614  0.32552  0.61072  1.0000
  C   C760      1.0  0.33100  0.30627  0.50594  1.0000
  C   C761      1.0  0.37742  0.31579  0.60135  1.0000
  H   H1230     1.0  0.34115  0.15314  0.55373  1.0000
  S   S296      1.0  0.39869  0.14591  0.49428  1.0000
  C   C762      1.0  0.61805  0.01309  0.73710  1.0000
  C   C763      1.0  0.43205  0.09508  0.54843  1.0000
  C   C764      1.0  0.37933  0.13354  0.49531  1.0000
  H   H1231     1.0  0.37753  0.32423  0.58639  1.0000
  C   C765      1.0  0.44073  0.06361  0.73490  1.0000
  H   H1232     1.0  0.40768  0.28312  0.59464  1.0000
  H   H1233     1.0  0.48884  0.05321  0.72991  1.0000
  H   H1234     1.0  0.62257  0.99573  0.61431  1.0000
  H   H1235     1.0  0.46180  0.01156  0.68337  1.0000
  C   C766      1.0  0.49828  0.99936  0.69308  1.0000
  S   S297      1.0  0.58462  0.99756  0.69066  1.0000
  H   H1236     1.0  0.49478  0.01585  0.68596  1.0000
  H   H1237     1.0  0.34639  0.27837  0.49641  1.0000
  C   C767      1.0  0.46570  0.99509  0.69055  1.0000
  S   S298      1.0  0.63007  0.99588  0.66190  1.0000
  H   H1238     1.0  0.42103  0.32646  0.60537  1.0000
  H   H1239     1.0  0.52866  0.00581  0.72481  1.0000
  H   H1240     1.0  0.50156  0.01622  0.73063  1.0000
  C   C768      1.0  0.51691  0.01775  0.73145  1.0000
  H   H1241     1.0  0.49303  0.99830  0.70861  1.0000
  H   H1242     1.0  0.51528  0.99397  0.69000  1.0000
  H   H1243     1.0  0.45921  0.99389  0.70604  1.0000
  S   S299      1.0  0.58489  0.22912  0.98458  1.0000
  H   H1244     1.0  0.46631  0.11074  0.78527  1.0000
  H   H1245     1.0  0.57978  0.99796  0.74486  1.0000
  C   C769      1.0  0.44605  0.03019  0.75624  1.0000
  H   H1246     1.0  0.65633  0.20697  0.87154  1.0000
  H   H1247     1.0  0.43165  0.05846  0.76535  1.0000
  H   H1248     1.0  0.44473  0.02093  0.77049  1.0000
  H   H1249     1.0  0.46514  0.06656  0.76661  1.0000
  H   H1250     1.0  0.64026  0.23754  0.96730  1.0000
  H   H1251     1.0  0.42937  0.07684  0.81144  1.0000
  N   N79       1.0  0.45282  0.08553  0.78705  1.0000
  H   H1252     1.0  0.48180  0.06448  0.78195  1.0000
  C   C770      1.0  0.59214  0.24935  0.87654  1.0000
  H   H1253     1.0  0.63419  0.23266  0.92119  1.0000
  C   C771      1.0  0.44321  0.06979  0.80190  1.0000
  H   H1254     1.0  0.47839  0.08673  0.76315  1.0000
  C   C772      1.0  0.47032  0.07535  0.77411  1.0000
  H   H1255     1.0  0.43845  0.05944  0.79567  1.0000
  H   H1256     1.0  0.45403  0.05987  0.81091  1.0000
  S   S300      1.0  0.47286  0.01686  0.81961  1.0000
  C   C773      1.0  0.49764  0.01886  0.81946  1.0000
  H   H1257     1.0  0.54317  0.10270  0.74170  1.0000
  S   S301      1.0  0.64472  0.27351  0.89853  1.0000
  H   H1258     1.0  0.49008  0.05183  0.81395  1.0000
  H   H1259     1.0  0.44774  0.10467  0.80677  1.0000
  H   H1260     1.0  0.47293  0.08849  0.80305  1.0000
  C   C774      1.0  0.43757  0.09914  0.77620  1.0000
  H   H1261     1.0  0.44463  0.11040  0.76411  1.0000
  C   C775      1.0  0.46023  0.09787  0.79597  1.0000
  H   H1262     1.0  0.51719  0.01403  0.74675  1.0000
  H   H1263     1.0  0.59932  0.06899  0.86060  1.0000
  S   S302      1.0  0.55320  0.06544  0.77023  1.0000
  S   S303      1.0  0.56840  0.10897  0.76227  1.0000
  H   H1264     1.0  0.57790  0.25200  0.88691  1.0000
  S   S304      1.0  0.50883  0.11046  0.77241  1.0000
  S   S305      1.0  0.59524  0.06553  0.78215  1.0000
  Fe  Fe153     1.0  0.54041  0.09600  0.77783  1.0000
  C   C776      1.0  0.43875  0.05149  0.75333  1.0000
  C   C777      1.0  0.58998  0.30899  0.98564  1.0000
  H   H1265     1.0  0.54575  0.00437  0.76946  1.0000
  H   H1266     1.0  0.57158  0.15663  0.96281  1.0000
  H   H1267     1.0  0.62761  0.24929  0.93752  1.0000
  H   H1268     1.0  0.54832  0.24086  0.96970  1.0000
  H   H1269     1.0  0.62266  0.00114  0.74876  1.0000
  H   H1270     1.0  0.60873  0.03710  0.75281  1.0000
  Fe  Fe154     1.0  0.57921  0.09603  0.78960  1.0000
  S   S306      1.0  0.56259  0.02566  0.81548  1.0000
  H   H1271     1.0  0.56537  0.31815  0.82836  1.0000
  Fe  Fe155     1.0  0.59784  0.14128  0.89075  1.0000
  S   S307      1.0  0.58251  0.17439  0.88327  1.0000
  S   S308      1.0  0.58445  0.11840  0.88408  1.0000
  Fe  Fe156     1.0  0.62662  0.15044  0.91017  1.0000
  S   S309      1.0  0.61376  0.18418  0.90392  1.0000
  H   H1272     1.0  0.62263  0.05066  0.85478  1.0000
  Fe  Fe157     1.0  0.58322  0.17528  0.91257  1.0000
  S   S310      1.0  0.55630  0.19205  0.93077  1.0000
  Fe  Fe158     1.0  0.61439  0.18013  0.87531  1.0000
  S   S311      1.0  0.59580  0.14171  0.92107  1.0000
  S   S312      1.0  0.63007  0.14689  0.88046  1.0000
  H   H1273     1.0  0.56919  0.05208  0.83606  1.0000
  C   C778      1.0  0.57861  0.06105  0.83908  1.0000
  H   H1274     1.0  0.60214  0.19659  0.79533  1.0000
  C   C779      1.0  0.50202  0.03828  0.81599  1.0000
  H   H1275     1.0  0.60518  0.30703  0.97565  1.0000
  C   C780      1.0  0.61689  0.22736  0.85695  1.0000
  H   H1276     1.0  0.64377  0.27223  0.98419  1.0000
  H   H1277     1.0  0.58291  0.13841  0.98124  1.0000
  C   C781      1.0  0.65054  0.31608  0.95126  1.0000
  S   S313      1.0  0.54962  0.08622  0.80594  1.0000
  C   C782      1.0  0.56465  0.20292  0.94498  1.0000
  C   C783      1.0  0.58383  0.19453  0.94965  1.0000
  C   C784      1.0  0.58989  0.20240  0.96203  1.0000
  H   H1278     1.0  0.56797  0.21128  0.82757  1.0000
  H   H1279     1.0  0.59377  0.18158  0.94415  1.0000
  C   C785      1.0  0.59386  0.11386  0.82261  1.0000
  H   H1280     1.0  0.62368  0.02621  0.83516  1.0000
  C   C786      1.0  0.58814  0.11719  0.86030  1.0000
  C   C787      1.0  0.60647  0.12015  0.84733  1.0000
  C   C788      1.0  0.60936  0.11835  0.82857  1.0000
  H   H1281     1.0  0.61858  0.12339  0.85189  1.0000
  H   H1282     1.0  0.62372  0.12030  0.81864  1.0000
  Fe  Fe159     1.0  0.58175  0.07762  0.75628  1.0000
  C   C789      1.0  0.53744  0.02287  0.81793  1.0000
  C   C790      1.0  0.65494  0.31788  0.98178  1.0000
  H   H1283     1.0  0.53695  0.22605  0.94872  1.0000
  C   C791      1.0  0.60433  0.26411  0.86975  1.0000
  Fe  Fe160     1.0  0.56503  0.05662  0.79673  1.0000
  H   H1284     1.0  0.58309  0.07243  0.82582  1.0000
  H   H1285     1.0  0.56319  0.10820  0.83094  1.0000
  C   C792      1.0  0.52194  0.04030  0.81483  1.0000
  C   C793      1.0  0.55822  0.22789  0.96418  1.0000
  H   H1286     1.0  0.58930  0.21933  0.87614  1.0000
  H   H1287     1.0  0.56853  0.06968  0.84988  1.0000
  H   H1288     1.0  0.58132  0.02291  0.86042  1.0000
  C   C794      1.0  0.60983  0.03677  0.83066  1.0000
  H   H1289     1.0  0.58054  0.04030  0.87457  1.0000
  H   H1290     1.0  0.56599  0.13153  0.97073  1.0000
  H   H1291     1.0  0.60113  0.02753  0.82699  1.0000
  C   C795      1.0  0.62882  0.24238  0.84969  1.0000
  C   C796      1.0  0.59039  0.03255  0.86304  1.0000
  H   H1292     1.0  0.57560  0.19501  0.80006  1.0000
  H   H1293     1.0  0.59422  0.28369  0.96257  1.0000
  H   H1294     1.0  0.58241  0.20031  0.84577  1.0000
  S   S314      1.0  0.46412  0.99443  0.74398  1.0000
  H   H1295     1.0  0.60459  0.19575  0.96566  1.0000
  C   C797      1.0  0.55179  0.21952  0.95234  1.0000
  C   C798      1.0  0.57269  0.11254  0.85440  1.0000
  H   H1296     1.0  0.60381  0.02208  0.86842  1.0000
  H   H1297     1.0  0.43082  0.09033  0.77003  1.0000
  H   H1298     1.0  0.61574  0.15796  0.82290  1.0000
  C   C799      1.0  0.59073  0.18696  0.80361  1.0000
  C   C800      1.0  0.61000  0.17236  0.82820  1.0000
  C   C801      1.0  0.57541  0.11118  0.83552  1.0000
  S   S315      1.0  0.59817  0.11190  0.79895  1.0000
  H   H1299     1.0  0.55845  0.11029  0.86440  1.0000
  S   S316      1.0  0.62533  0.20377  0.85001  1.0000
  C   C802      1.0  0.51045  0.11388  0.74804  1.0000
  C   C803      1.0  0.58064  0.99393  0.78097  1.0000
  H   H1300     1.0  0.60515  0.32387  0.85027  1.0000
  N   N80       1.0  0.58959  0.18303  0.82420  1.0000
  N   N81       1.0  0.59693  0.04763  0.84563  1.0000
  H   H1301     1.0  0.63218  0.27202  0.85103  1.0000
  C   C804      1.0  0.59860  0.23084  0.87043  1.0000
  S   S317      1.0  0.63829  0.28360  0.94618  1.0000
  H   H1302     1.0  0.59209  0.31655  0.81696  1.0000
  H   H1303     1.0  0.57815  0.15556  0.82955  1.0000
  H   H1304     1.0  0.61396  0.07172  0.83668  1.0000
  C   C805      1.0  0.60875  0.06025  0.84962  1.0000
  H   H1305     1.0  0.61515  0.04778  0.81738  1.0000
  H   H1306     1.0  0.47805  0.12574  0.74952  1.0000
  H   H1307     1.0  0.59455  0.21278  0.82294  1.0000
  H   H1308     1.0  0.62160  0.18213  0.82139  1.0000
  C   C806      1.0  0.65315  0.19946  0.94310  1.0000
  C   C807      1.0  0.53262  0.16017  0.98156  1.0000
  H   H1309     1.0  0.57387  0.16574  0.85006  1.0000
  H   H1310     1.0  0.52519  0.05541  0.81173  1.0000
  H   H1311     1.0  0.55865  0.17802  0.83259  1.0000
  C   C808      1.0  0.51314  0.00135  0.82249  1.0000
  C   C809      1.0  0.57440  0.17007  0.83455  1.0000
  H   H1312     1.0  0.60952  0.16828  0.84369  1.0000
  H   H1313     1.0  0.56893  0.32574  0.86556  1.0000
  H   H1314     1.0  0.59540  0.17235  0.79856  1.0000
  C   C810      1.0  0.58330  0.20272  0.83034  1.0000
  C   C811      1.0  0.62277  0.26058  0.85640  1.0000
  H   H1315     1.0  0.64287  0.23979  0.83915  1.0000
  C   C812      1.0  0.64612  0.29655  0.95913  1.0000
  C   C813      1.0  0.64669  0.28751  0.97813  1.0000
  C   C814      1.0  0.63119  0.23296  0.93643  1.0000
  Fe  Fe161     1.0  0.62206  0.29648  0.88326  1.0000
  S   S318      1.0  0.59608  0.28704  0.87779  1.0000
  H   H1316     1.0  0.42465  0.10789  0.78528  1.0000
  S   S319      1.0  0.64966  0.14113  0.92868  1.0000
  S   S320      1.0  0.61602  0.31914  0.90141  1.0000
  C   C815      1.0  0.57896  0.28683  0.97233  1.0000
  H   H1317     1.0  0.56921  0.30018  0.96458  1.0000
  H   H1318     1.0  0.58482  0.30450  0.84151  1.0000
  C   C816      1.0  0.57718  0.21917  0.96921  1.0000
  H   H1319     1.0  0.61700  0.22698  0.94366  1.0000
  Fe  Fe162     1.0  0.64109  0.29726  0.91489  1.0000
  N   N82       1.0  0.64876  0.22096  0.94504  1.0000
  H   H1320     1.0  0.65643  0.21249  0.97247  1.0000
  S   S321      1.0  0.64594  0.31036  0.86042  1.0000
  C   C817      1.0  0.56863  0.14420  0.97560  1.0000
  H   H1321     1.0  0.63966  0.19221  0.95017  1.0000
  C   C818      1.0  0.61018  0.03338  0.73939  1.0000
  H   H1322     1.0  0.65016  0.32313  0.93656  1.0000
  H   H1323     1.0  0.58000  0.32298  0.97892  1.0000
  C   C819      1.0  0.53293  0.00336  0.82215  1.0000
  H   H1324     1.0  0.62979  0.21503  0.97304  1.0000
  H   H1325     1.0  0.65708  0.19842  0.92797  1.0000
  H   H1326     1.0  0.55821  0.18114  0.98487  1.0000
  C   C820      1.0  0.58065  0.31832  0.83039  1.0000
  H   H1327     1.0  0.57683  0.01037  0.77374  1.0000
  H   H1328     1.0  0.53517  0.17339  0.96938  1.0000
  C   C821      1.0  0.64364  0.22152  0.96536  1.0000
  H   H1329     1.0  0.52891  0.14854  0.97608  1.0000
  H   H1330     1.0  0.57198  0.27325  0.97523  1.0000
  C   C822      1.0  0.45462  0.02094  0.74072  1.0000
  C   C823      1.0  0.49284  0.12149  0.74044  1.0000
  H   H1331     1.0  0.50406  0.05112  0.74649  1.0000
  C   C824      1.0  0.65513  0.32667  0.96256  1.0000
  H   H1332     1.0  0.54162  0.03730  0.73903  1.0000
  H   H1333     1.0  0.43746  0.41535  0.17822  1.0000
  H   H1334     1.0  0.63988  0.36495  0.02226  1.0000
  Fe  Fe163     1.0  0.37293  0.41998  0.12769  1.0000
  S   S322      1.0  0.40167  0.39712  0.13391  1.0000
  H   H1335     1.0  0.62861  0.52894  0.20791  1.0000
  Fe  Fe164     1.0  0.38111  0.45228  0.14330  1.0000
  S   S323      1.0  0.41034  0.43284  0.15075  1.0000
  H   H1336     1.0  0.44660  0.47775  0.13456  1.0000
  Fe  Fe165     1.0  0.41690  0.42422  0.12278  1.0000
  Fe  Fe166     1.0  0.39358  0.40712  0.16156  1.0000
  S   S324      1.0  0.38921  0.44629  0.11407  1.0000
  S   S325      1.0  0.36344  0.42725  0.15669  1.0000
  H   H1337     1.0  0.47998  0.51368  0.23738  1.0000
  C   C825      1.0  0.36005  0.36688  0.09689  1.0000
  C   C826      1.0  0.36139  0.38259  0.10476  1.0000
  H   H1338     1.0  0.61000  0.55228  0.20379  1.0000
  H   H1339     1.0  0.37218  0.35330  0.09679  1.0000
  H   H1340     1.0  0.37445  0.38105  0.11068  1.0000
  H   H1341     1.0  0.44002  0.38899  0.16038  1.0000
  H   H1342     1.0  0.46914  0.36289  0.18683  1.0000
  C   C827      1.0  0.46089  0.43694  0.11374  1.0000
  C   C828      1.0  0.48165  0.43122  0.11471  1.0000
  C   C829      1.0  0.47678  0.45857  0.13088  1.0000
  C   C830      1.0  0.46103  0.37878  0.18813  1.0000
  C   C831      1.0  0.45422  0.41448  0.17233  1.0000
  C   C832      1.0  0.44850  0.45401  0.12047  1.0000
  C   C833      1.0  0.45640  0.46479  0.12905  1.0000
  S   S326      1.0  0.44962  0.42152  0.10635  1.0000
  N   N83       1.0  0.46484  0.39357  0.16980  1.0000
  H   H1343     1.0  0.49133  0.41804  0.10940  1.0000
  H   H1344     1.0  0.41913  0.52003  0.17140  1.0000
  H   H1345     1.0  0.62402  0.54787  0.22178  1.0000
  H   H1346     1.0  0.46039  0.41935  0.18220  1.0000
  H   H1347     1.0  0.39690  0.51434  0.18929  1.0000
  H   H1348     1.0  0.35475  0.46384  0.09531  1.0000
  C   C834      1.0  0.48962  0.44203  0.12339  1.0000
  H   H1349     1.0  0.43268  0.45875  0.11923  1.0000
  C   C835      1.0  0.41398  0.51129  0.18607  1.0000
  H   H1350     1.0  0.62129  0.50246  0.23774  1.0000
  H   H1351     1.0  0.45063  0.49420  0.16740  1.0000
  H   H1352     1.0  0.44436  0.37865  0.19335  1.0000
  H   H1353     1.0  0.64088  0.54869  0.09732  1.0000
  C   C836      1.0  0.45689  0.38824  0.15581  1.0000
  S   S327      1.0  0.36711  0.48334  0.15029  1.0000
  S   S328      1.0  0.48518  0.47120  0.14355  1.0000
  H   H1354     1.0  0.40313  0.48404  0.12021  1.0000
  H   H1355     1.0  0.46435  0.37249  0.15365  1.0000
  H   H1356     1.0  0.45966  0.39894  0.14176  1.0000
  H   H1357     1.0  0.45605  0.42590  0.15858  1.0000
  H   H1358     1.0  0.41862  0.51791  0.19580  1.0000
  C   C837      1.0  0.61652  0.54027  0.21505  1.0000
  H   H1359     1.0  0.51565  0.55275  0.19710  1.0000
  C   C838      1.0  0.48716  0.39277  0.16295  1.0000
  H   H1360     1.0  0.49370  0.39679  0.17311  1.0000
  H   H1361     1.0  0.65755  0.35934  0.09695  1.0000
  C   C839      1.0  0.44559  0.48612  0.18238  1.0000
  H   H1362     1.0  0.46627  0.38266  0.19921  1.0000
  C   C840      1.0  0.38924  0.42260  0.20138  1.0000
  S   S329      1.0  0.40081  0.38678  0.18895  1.0000
  H   H1363     1.0  0.42203  0.46415  0.17662  1.0000
  C   C841      1.0  0.41678  0.47827  0.20790  1.0000
  N   N84       1.0  0.42297  0.48911  0.18800  1.0000
  H   H1364     1.0  0.60606  0.63499  0.20308  1.0000
  H   H1365     1.0  0.64095  0.35110  0.08722  1.0000
  C   C842      1.0  0.64254  0.54931  0.11144  1.0000
  C   C843      1.0  0.38775  0.43468  0.21406  1.0000
  C   C844      1.0  0.34887  0.49820  0.10791  1.0000
  H   H1366     1.0  0.38233  0.42923  0.18921  1.0000
  H   H1367     1.0  0.42003  0.48864  0.16044  1.0000
  C   C845      1.0  0.39903  0.40193  0.20479  1.0000
  H   H1368     1.0  0.37973  0.45056  0.21153  1.0000
  H   H1369     1.0  0.42198  0.48413  0.21778  1.0000
  C   C846      1.0  0.41556  0.48084  0.17555  1.0000
  H   H1370     1.0  0.39851  0.48295  0.17921  1.0000
  H   H1371     1.0  0.49053  0.40373  0.14914  1.0000
  H   H1372     1.0  0.49569  0.37724  0.16080  1.0000
  C   C847      1.0  0.41341  0.52509  0.12977  1.0000
  H   H1373     1.0  0.52893  0.51195  0.11444  1.0000
  H   H1374     1.0  0.39394  0.54195  0.15058  1.0000
  S   S330      1.0  0.44878  0.59369  0.16662  1.0000
  Fe  Fe167     1.0  0.43429  0.55995  0.14074  1.0000
  S   S331      1.0  0.44848  0.58712  0.12493  1.0000
  S   S332      1.0  0.43327  0.53868  0.12327  1.0000
  Fe  Fe168     1.0  0.46918  0.57557  0.14551  1.0000
  Fe  Fe169     1.0  0.42652  0.60288  0.14727  1.0000
  S   S333      1.0  0.40869  0.63570  0.14267  1.0000
  S   S334      1.0  0.45639  0.54740  0.15999  1.0000
  S   S335      1.0  0.41039  0.57649  0.16154  1.0000
  H   H1375     1.0  0.49818  0.53138  0.13180  1.0000
  C   C848      1.0  0.48858  0.52765  0.12406  1.0000
  H   H1376     1.0  0.41534  0.37748  0.22340  1.0000
  N   N85       1.0  0.60036  0.53049  0.22902  1.0000
  H   H1377     1.0  0.57861  0.51318  0.22941  1.0000
  H   H1378     1.0  0.56431  0.62247  0.23541  1.0000
  H   H1379     1.0  0.36802  0.51989  0.16109  1.0000
  C   C849      1.0  0.51881  0.50767  0.10755  1.0000
  H   H1380     1.0  0.41868  0.62298  0.10686  1.0000
  S   S336      1.0  0.34678  0.42048  0.11461  1.0000
  C   C850      1.0  0.60900  0.64588  0.22635  1.0000
  H   H1381     1.0  0.51608  0.54851  0.10021  1.0000
  N   N86       1.0  0.63194  0.39291  0.00237  1.0000
  H   H1382     1.0  0.40999  0.64125  0.07578  1.0000
  C   C851      1.0  0.39599  0.52929  0.14400  1.0000
  H   H1383     1.0  0.54520  0.64290  0.22611  1.0000
  H   H1384     1.0  0.42893  0.50596  0.10970  1.0000
  H   H1385     1.0  0.65713  0.57940  0.08377  1.0000
  C   C852      1.0  0.65322  0.33140  0.13038  1.0000
  Fe  Fe170     1.0  0.43408  0.56638  0.17939  1.0000
  C   C853      1.0  0.41563  0.50908  0.12091  1.0000
  C   C854      1.0  0.38130  0.51688  0.14985  1.0000
  C   C855      1.0  0.40384  0.64841  0.08782  1.0000
  C   C856      1.0  0.40883  0.63805  0.10539  1.0000
  C   C857      1.0  0.40133  0.64740  0.12090  1.0000
  C   C858      1.0  0.38418  0.50019  0.14161  1.0000
  H   H1386     1.0  0.64337  0.53355  0.12058  1.0000
  C   C859      1.0  0.61142  0.39896  0.01432  1.0000
  C   C860      1.0  0.50660  0.54314  0.09344  1.0000
  H   H1387     1.0  0.48893  0.60700  0.14962  1.0000
  H   H1388     1.0  0.51576  0.54101  0.07919  1.0000
  C   C861      1.0  0.64580  0.37902  0.01450  1.0000
  H   H1389     1.0  0.60049  0.40949  0.00572  1.0000
  H   H1390     1.0  0.52814  0.50447  0.09367  1.0000
  H   H1391     1.0  0.49298  0.55576  0.09146  1.0000
  C   C862      1.0  0.40114  0.49656  0.12691  1.0000
  H   H1392     1.0  0.45176  0.49222  0.19141  1.0000
  H   H1393     1.0  0.45304  0.46962  0.18339  1.0000
  H   H1394     1.0  0.42189  0.59524  0.20291  1.0000
  C   C863      1.0  0.42483  0.56798  0.22511  1.0000
  C   C864      1.0  0.60736  0.63093  0.21772  1.0000
  C   C865      1.0  0.42231  0.58913  0.21769  1.0000
  H   H1395     1.0  0.41829  0.61888  0.22355  1.0000
  H   H1396     1.0  0.39977  0.48017  0.21253  1.0000
  S   S337      1.0  0.42876  0.55081  0.21040  1.0000
  H   H1397     1.0  0.42327  0.46148  0.20993  1.0000
  H   H1398     1.0  0.35076  0.50931  0.09401  1.0000
  Fe  Fe171     1.0  0.61732  0.34381  0.05839  1.0000
  S   S338      1.0  0.61077  0.37609  0.06261  1.0000
  C   C866      1.0  0.40638  0.40565  0.23337  1.0000
  H   H1399     1.0  0.61791  0.32849  0.12372  1.0000
  S   S339      1.0  0.57146  0.44534  0.15905  1.0000
  Fe  Fe172     1.0  0.51757  0.45935  0.14706  1.0000
  S   S340      1.0  0.52668  0.43200  0.16924  1.0000
  H   H1400     1.0  0.59090  0.48014  0.15221  1.0000
  Fe  Fe173     1.0  0.55664  0.42704  0.14796  1.0000
  S   S341      1.0  0.56979  0.39435  0.14438  1.0000
  S   S342      1.0  0.52891  0.48042  0.15751  1.0000
  S   S343      1.0  0.54620  0.45317  0.12489  1.0000
  C   C867      1.0  0.39614  0.42620  0.23015  1.0000
  S   S344      1.0  0.60215  0.59238  0.21903  1.0000
  H   H1401     1.0  0.48241  0.51405  0.13309  1.0000
  C   C868      1.0  0.58021  0.38974  0.12138  1.0000
  C   C869      1.0  0.58573  0.40542  0.10596  1.0000
  C   C870      1.0  0.59485  0.40109  0.08794  1.0000
  C   C871      1.0  0.59827  0.38115  0.08518  1.0000
  C   C872      1.0  0.59241  0.36553  0.10051  1.0000
  C   C873      1.0  0.58361  0.36978  0.11861  1.0000
  H   H1402     1.0  0.58329  0.42081  0.10800  1.0000
  H   H1403     1.0  0.59934  0.41326  0.07614  1.0000
  H   H1404     1.0  0.59473  0.35018  0.09848  1.0000
  H   H1405     1.0  0.57922  0.35765  0.13048  1.0000
  H   H1406     1.0  0.34468  0.50697  0.11930  1.0000
  C   C874      1.0  0.64040  0.41138  0.99218  1.0000
  C   C875      1.0  0.40766  0.39345  0.22078  1.0000
  C   C876      1.0  0.52029  0.55091  0.18219  1.0000
  C   C877      1.0  0.66237  0.55759  0.12909  1.0000
  C   C878      1.0  0.64461  0.35128  0.10070  1.0000
  H   H1407     1.0  0.63056  0.64210  0.10883  1.0000
  S   S345      1.0  0.61009  0.33923  0.03276  1.0000
  H   H1408     1.0  0.52962  0.49882  0.19138  1.0000
  Fe  Fe174     1.0  0.55863  0.47192  0.13755  1.0000
  H   H1409     1.0  0.50548  0.43728  0.12467  1.0000
  H   H1410     1.0  0.64464  0.58907  0.10481  1.0000
  N   N87       1.0  0.64966  0.33030  0.11221  1.0000
  C   C879      1.0  0.59089  0.52077  0.21931  1.0000
  H   H1411     1.0  0.64197  0.41971  0.00227  1.0000
  Fe  Fe175     1.0  0.54043  0.45269  0.17818  1.0000
  S   S346      1.0  0.65925  0.60976  0.12831  1.0000
  H   H1412     1.0  0.60656  0.49420  0.17042  1.0000
  H   H1413     1.0  0.57172  0.46567  0.19153  1.0000
  H   H1414     1.0  0.61221  0.40680  0.02513  1.0000
  H   H1415     1.0  0.50614  0.51665  0.18797  1.0000
  C   C880      1.0  0.54995  0.45995  0.21810  1.0000
  C   C881      1.0  0.56858  0.46450  0.20666  1.0000
  C   C882      1.0  0.58331  0.46728  0.21489  1.0000
  S   S347      1.0  0.53107  0.45644  0.20843  1.0000
  H   H1416     1.0  0.59781  0.47053  0.20607  1.0000
  H   H1417     1.0  0.51687  0.51517  0.20771  1.0000
  S   S348      1.0  0.63074  0.57911  0.17130  1.0000
  H   H1418     1.0  0.57877  0.53959  0.11555  1.0000
  Fe  Fe176     1.0  0.58179  0.61130  0.15556  1.0000
  S   S349      1.0  0.60655  0.59336  0.13636  1.0000
  S   S350      1.0  0.55095  0.62828  0.14967  1.0000
  Fe  Fe177     1.0  0.60762  0.56854  0.16271  1.0000
  S   S351      1.0  0.61225  0.53441  0.16698  1.0000
  Fe  Fe178     1.0  0.62791  0.60548  0.14626  1.0000
  H   H1419     1.0  0.36419  0.48812  0.10896  1.0000
  S   S352      1.0  0.60299  0.62557  0.16363  1.0000
  H   H1420     1.0  0.56128  0.53824  0.17829  1.0000
  N   N88       1.0  0.50035  0.52400  0.10529  1.0000
  S   S353      1.0  0.58102  0.58525  0.18094  1.0000
  C   C883      1.0  0.60119  0.52501  0.15358  1.0000
  C   C884      1.0  0.60043  0.50419  0.15850  1.0000
  C   C885      1.0  0.59315  0.53786  0.13822  1.0000
  H   H1421     1.0  0.59324  0.55404  0.13459  1.0000
  C   C886      1.0  0.53772  0.61232  0.14521  1.0000
  C   C887      1.0  0.54853  0.59526  0.13756  1.0000
  C   C888      1.0  0.53788  0.58274  0.13384  1.0000
  H   H1422     1.0  0.54643  0.54002  0.15134  1.0000
  H   H1423     1.0  0.56510  0.59201  0.13408  1.0000
  H   H1424     1.0  0.54635  0.56996  0.12739  1.0000
  C   C889      1.0  0.52073  0.51456  0.19249  1.0000
  C   C890      1.0  0.34583  0.40026  0.10493  1.0000
  C   C891      1.0  0.34320  0.36868  0.08910  1.0000
  H   H1425     1.0  0.50603  0.55422  0.17675  1.0000
  C   C892      1.0  0.42012  0.60255  0.22943  1.0000
  C   C893      1.0  0.51637  0.58672  0.13846  1.0000
  H   H1426     1.0  0.64728  0.38636  0.02536  1.0000
  C   C894      1.0  0.59155  0.49620  0.14821  1.0000
  H   H1427     1.0  0.56145  0.51129  0.18612  1.0000
  S   S354      1.0  0.50360  0.56959  0.13525  1.0000
  C   C895      1.0  0.64606  0.64281  0.10085  1.0000
  C   C896      1.0  0.60673  0.61096  0.22832  1.0000
  H   H1428     1.0  0.49551  0.51478  0.08203  1.0000
  H   H1429     1.0  0.45695  0.50794  0.23531  1.0000
  N   N89       1.0  0.66070  0.55753  0.10993  1.0000
  H   H1430     1.0  0.50778  0.62987  0.15518  1.0000
  C   C897      1.0  0.51620  0.61665  0.14932  1.0000
  H   H1431     1.0  0.60462  0.38537  0.02231  1.0000
  C   C898      1.0  0.53767  0.52837  0.16072  1.0000
  H   H1432     1.0  0.34638  0.46085  0.12995  1.0000
  H   H1433     1.0  0.54723  0.51307  0.15899  1.0000
  C   C899      1.0  0.33966  0.47460  0.09481  1.0000
  C   C900      1.0  0.58395  0.50886  0.13257  1.0000
  C   C901      1.0  0.65850  0.57873  0.09833  1.0000
  Fe  Fe179     1.0  0.60406  0.59784  0.18772  1.0000
  H   H1434     1.0  0.52362  0.53055  0.15534  1.0000
  C   C902      1.0  0.58494  0.52967  0.12747  1.0000
  S   S355      1.0  0.57216  0.49915  0.11998  1.0000
  C   C903      1.0  0.48727  0.51763  0.09630  1.0000
  H   H1435     1.0  0.47303  0.52954  0.09471  1.0000
  H   H1436     1.0  0.48223  0.50328  0.10508  1.0000
  H   H1437     1.0  0.54863  0.52809  0.20212  1.0000
  C   C904      1.0  0.55182  0.52683  0.18712  1.0000
  H   H1438     1.0  0.47523  0.54068  0.12262  1.0000
  H   H1439     1.0  0.52903  0.56302  0.17371  1.0000
  C   C905      1.0  0.50552  0.60371  0.14618  1.0000
  N   N90       1.0  0.53261  0.53019  0.18066  1.0000
  H   H1440     1.0  0.51456  0.49309  0.11650  1.0000
  S   S356      1.0  0.65068  0.32920  0.05094  1.0000
  H   H1441     1.0  0.47655  0.47151  0.23561  1.0000
  C   C906      1.0  0.64951  0.65786  0.08405  1.0000
  S   S357      1.0  0.34212  0.34852  0.07939  1.0000
  S   S358      1.0  0.65927  0.33165  0.99626  1.0000
  C   C907      1.0  0.57943  0.46548  0.23454  1.0000
  H   H1442     1.0  0.58420  0.53217  0.20779  1.0000
  H   H1443     1.0  0.63099  0.36081  0.10844  1.0000
  H   H1444     1.0  0.60244  0.50869  0.21267  1.0000
  H   H1445     1.0  0.62382  0.36823  0.99577  1.0000
  H   H1446     1.0  0.62817  0.55898  0.11793  1.0000
  C   C908      1.0  0.58454  0.54617  0.23787  1.0000
  H   H1447     1.0  0.66141  0.37393  0.00601  1.0000
  H   H1448     1.0  0.63930  0.34007  0.13864  1.0000
  H   H1449     1.0  0.34109  0.48498  0.08051  1.0000
  C   C909      1.0  0.54598  0.45856  0.23767  1.0000
  C   C910      1.0  0.66270  0.62884  0.10732  1.0000
  C   C911      1.0  0.33154  0.47163  0.12866  1.0000
  N   N91       1.0  0.33336  0.48616  0.11003  1.0000
  H   H1450     1.0  0.57746  0.55848  0.22708  1.0000
  H   H1451     1.0  0.64858  0.56742  0.13611  1.0000
  H   H1452     1.0  0.53943  0.61798  0.23730  1.0000
  C   C912      1.0  0.54760  0.62944  0.23803  1.0000
  C   C913      1.0  0.47576  0.43503  0.30874  1.0000
  N   N92       1.0  0.34325  0.65331  0.39836  1.0000
  H   H1453     1.0  0.59760  0.50724  0.25458  1.0000
  H   H1454     1.0  0.34391  0.36071  0.27199  1.0000
  C   C914      1.0  0.43309  0.48209  0.31649  1.0000
  C   C915      1.0  0.39007  0.36616  0.27528  1.0000
  H   H1455     1.0  0.46017  0.43300  0.31470  1.0000
  S   S359      1.0  0.38329  0.45688  0.33111  1.0000
  Fe  Fe180     1.0  0.40783  0.39174  0.30738  1.0000
  S   S360      1.0  0.38259  0.41893  0.30130  1.0000
  S   S361      1.0  0.40179  0.35982  0.32060  1.0000
  Fe  Fe181     1.0  0.44144  0.41685  0.29051  1.0000
  S   S362      1.0  0.41866  0.44590  0.28335  1.0000
  S   S363      1.0  0.47522  0.41732  0.28033  1.0000
  Fe  Fe182     1.0  0.39970  0.43505  0.31198  1.0000
  H   H1456     1.0  0.47155  0.49973  0.28109  1.0000
  Fe  Fe183     1.0  0.40404  0.42704  0.27323  1.0000
  C   C916      1.0  0.34593  0.61288  0.30312  1.0000
  S   S364      1.0  0.42363  0.40725  0.32019  1.0000
  S   S365      1.0  0.42811  0.39852  0.27828  1.0000
  H   H1457     1.0  0.42663  0.45292  0.31817  1.0000
  H   H1458     1.0  0.56835  0.64454  0.25478  1.0000
  N   N93       1.0  0.37754  0.40353  0.37341  1.0000
  C   C917      1.0  0.36515  0.40127  0.39303  1.0000
  H   H1459     1.0  0.53622  0.60520  0.27220  1.0000
  H   H1460     1.0  0.53173  0.45478  0.24662  1.0000
  H   H1461     1.0  0.35563  0.59986  0.27040  1.0000
  H   H1462     1.0  0.45453  0.46519  0.27788  1.0000
  C   C918      1.0  0.35997  0.33168  0.36161  1.0000
  H   H1463     1.0  0.37495  0.39359  0.40355  1.0000
  H   H1464     1.0  0.59713  0.63658  0.37748  1.0000
  C   C919      1.0  0.56069  0.46125  0.24587  1.0000
  H   H1465     1.0  0.59425  0.61177  0.37662  1.0000
  H   H1466     1.0  0.35765  0.60203  0.31071  1.0000
  H   H1467     1.0  0.65260  0.37799  0.33174  1.0000
  Fe  Fe184     1.0  0.55142  0.64912  0.31257  1.0000
  H   H1468     1.0  0.36277  0.64633  0.29412  1.0000
  C   C920      1.0  0.36265  0.37177  0.34130  1.0000
  C   C921      1.0  0.37931  0.35562  0.33789  1.0000
  H   H1469     1.0  0.65243  0.62929  0.35330  1.0000
  C   C922      1.0  0.63162  0.60098  0.35502  1.0000
  C   C923      1.0  0.51360  0.51194  0.32878  1.0000
  H   H1470     1.0  0.36351  0.38722  0.33345  1.0000
  H   H1471     1.0  0.47612  0.45045  0.32991  1.0000
  Fe  Fe185     1.0  0.59381  0.65193  0.28804  1.0000
  H   H1472     1.0  0.62780  0.60710  0.34079  1.0000
  H   H1473     1.0  0.58925  0.50145  0.33023  1.0000
  H   H1474     1.0  0.66216  0.41892  0.37245  1.0000
  C   C924      1.0  0.48127  0.48886  0.27205  1.0000
  N   N94       1.0  0.36761  0.37205  0.27686  1.0000
  C   C925      1.0  0.39916  0.47421  0.32736  1.0000
  H   H1475     1.0  0.63101  0.64652  0.36427  1.0000
  H   H1476     1.0  0.35352  0.39186  0.39541  1.0000
  C   C926      1.0  0.42458  0.56038  0.24446  1.0000
  C   C927      1.0  0.48682  0.42800  0.29239  1.0000
  C   C928      1.0  0.60951  0.51477  0.24383  1.0000
  H   H1477     1.0  0.65996  0.40063  0.33240  1.0000
  H   H1478     1.0  0.44939  0.47735  0.31118  1.0000
  C   C929      1.0  0.42023  0.46826  0.32043  1.0000
  C   C930      1.0  0.36389  0.41374  0.35999  1.0000
  C   C931      1.0  0.60265  0.62437  0.36916  1.0000
  H   H1479     1.0  0.37740  0.37284  0.37239  1.0000
  C   C932      1.0  0.48488  0.44479  0.31739  1.0000
  H   H1480     1.0  0.35181  0.40507  0.36190  1.0000
  H   H1481     1.0  0.39945  0.37521  0.37910  1.0000
  C   C933      1.0  0.38836  0.38303  0.36978  1.0000
  H   H1482     1.0  0.39712  0.38398  0.35483  1.0000
  H   H1483     1.0  0.40227  0.41820  0.35618  1.0000
  H   H1484     1.0  0.48223  0.52773  0.29764  1.0000
  N   N95       1.0  0.54043  0.63543  0.25655  1.0000
  H   H1485     1.0  0.40327  0.40905  0.38076  1.0000
  C   C934      1.0  0.39270  0.41614  0.37085  1.0000
  H   H1486     1.0  0.59126  0.55379  0.24529  1.0000
  H   H1487     1.0  0.63110  0.64151  0.34213  1.0000
  H   H1488     1.0  0.50774  0.55252  0.32008  1.0000
  Fe  Fe186     1.0  0.44446  0.58440  0.32376  1.0000
  S   S366      1.0  0.42512  0.56208  0.34242  1.0000
  Fe  Fe187     1.0  0.42048  0.59484  0.29276  1.0000
  S   S367      1.0  0.39963  0.57308  0.30886  1.0000
  S   S368      1.0  0.41783  0.61185  0.26319  1.0000
  Fe  Fe188     1.0  0.39844  0.58603  0.33353  1.0000
  S   S369      1.0  0.36861  0.59207  0.35484  1.0000
  Fe  Fe189     1.0  0.42826  0.55153  0.31602  1.0000
  S   S370      1.0  0.44159  0.51918  0.31253  1.0000
  S   S371      1.0  0.41748  0.60948  0.31695  1.0000
  S   S372      1.0  0.44919  0.57237  0.29784  1.0000
  H   H1489     1.0  0.49152  0.55731  0.30381  1.0000
  C   C935      1.0  0.47823  0.52966  0.33406  1.0000
  C   C936      1.0  0.36162  0.63836  0.40350  1.0000
  C   C937      1.0  0.40385  0.50811  0.32631  1.0000
  H   H1490     1.0  0.39749  0.52356  0.32842  1.0000
  C   C938      1.0  0.45141  0.48040  0.26801  1.0000
  C   C939      1.0  0.35822  0.63229  0.33618  1.0000
  C   C940      1.0  0.35200  0.61610  0.35062  1.0000
  C   C941      1.0  0.34331  0.34782  0.36499  1.0000
  H   H1491     1.0  0.51661  0.51828  0.33959  1.0000
  H   H1492     1.0  0.37356  0.63018  0.32746  1.0000
  C   C942      1.0  0.42492  0.50211  0.31908  1.0000
  C   C943      1.0  0.48723  0.63856  0.31074  1.0000
  H   H1493     1.0  0.48020  0.53687  0.34479  1.0000
  H   H1494     1.0  0.59796  0.63117  0.35540  1.0000
  C   C944      1.0  0.42266  0.57375  0.25616  1.0000
  H   H1495     1.0  0.56112  0.61005  0.26996  1.0000
  H   H1496     1.0  0.42290  0.56764  0.27097  1.0000
  C   C945      1.0  0.34470  0.36786  0.35474  1.0000
  C   C946      1.0  0.47690  0.62225  0.31610  1.0000
  H   H1497     1.0  0.47290  0.51512  0.34155  1.0000
  H   H1498     1.0  0.50916  0.63300  0.26020  1.0000
  H   H1499     1.0  0.46563  0.54008  0.32751  1.0000
  H   H1500     1.0  0.46219  0.62447  0.31261  1.0000
  N   N96       1.0  0.47065  0.48756  0.25798  1.0000
  H   H1501     1.0  0.44074  0.49131  0.27657  1.0000
  H   H1502     1.0  0.64767  0.60261  0.38325  1.0000
  C   C947      1.0  0.55155  0.65082  0.25673  1.0000
  C   C948      1.0  0.50386  0.54576  0.31000  1.0000
  C   C949      1.0  0.48542  0.60326  0.32639  1.0000
  S   S373      1.0  0.47262  0.58270  0.33415  1.0000
  H   H1503     1.0  0.37464  0.49871  0.33596  1.0000
  N   N97       1.0  0.35554  0.62345  0.28407  1.0000
  C   C950      1.0  0.65689  0.42688  0.35956  1.0000
  S   S374      1.0  0.51909  0.65633  0.30815  1.0000
  H   H1504     1.0  0.37503  0.64576  0.39995  1.0000
  H   H1505     1.0  0.48045  0.65335  0.30305  1.0000
  H   H1506     1.0  0.37856  0.64178  0.27170  1.0000
  C   C951      1.0  0.63541  0.63427  0.35606  1.0000
  H   H1507     1.0  0.33518  0.60391  0.30231  1.0000
  H   H1508     1.0  0.35675  0.41646  0.39623  1.0000
  S   S375      1.0  0.56064  0.53399  0.29874  1.0000
  C   C952      1.0  0.58123  0.48202  0.36693  1.0000
  C   C953      1.0  0.54442  0.61713  0.27182  1.0000
  H   H1509     1.0  0.49606  0.49386  0.26514  1.0000
  H   H1510     1.0  0.57210  0.53933  0.24858  1.0000
  H   H1511     1.0  0.64846  0.59480  0.35271  1.0000
  C   C954      1.0  0.46581  0.50805  0.24560  1.0000
  C   C955      1.0  0.60835  0.60584  0.24729  1.0000
  H   H1512     1.0  0.37409  0.61568  0.25787  1.0000
  H   H1513     1.0  0.36912  0.39228  0.24926  1.0000
  N   N98       1.0  0.49734  0.52611  0.31957  1.0000
  H   H1514     1.0  0.34546  0.39785  0.26597  1.0000
  C   C956      1.0  0.50621  0.63584  0.31540  1.0000
  C   C957      1.0  0.39096  0.49405  0.33061  1.0000
  H   H1515     1.0  0.61692  0.52154  0.25135  1.0000
  H   H1516     1.0  0.37851  0.59668  0.27863  1.0000
  H   H1517     1.0  0.36452  0.34117  0.28010  1.0000
  H   H1518     1.0  0.36819  0.40427  0.26788  1.0000
  C   C958      1.0  0.50446  0.60052  0.33095  1.0000
  S   S376      1.0  0.60170  0.48043  0.29171  1.0000
  Fe  Fe190     1.0  0.54793  0.46545  0.30792  1.0000
  S   S377      1.0  0.57674  0.44272  0.29956  1.0000
  S   S378      1.0  0.51533  0.46142  0.31999  1.0000
  Fe  Fe191     1.0  0.59060  0.45584  0.31624  1.0000
  S   S379      1.0  0.60579  0.43551  0.33993  1.0000
  Fe  Fe192     1.0  0.58539  0.46899  0.27578  1.0000
  C   C959      1.0  0.33220  0.61909  0.36212  1.0000
  S   S380      1.0  0.56104  0.47664  0.32637  1.0000
  C   C960      1.0  0.51817  0.64434  0.25964  1.0000
  H   H1519     1.0  0.52818  0.50924  0.31816  1.0000
  H   H1520     1.0  0.62952  0.49074  0.35744  1.0000
  C   C961      1.0  0.63035  0.43668  0.34129  1.0000
  C   C962      1.0  0.64276  0.44804  0.32644  1.0000
  H   H1521     1.0  0.63746  0.45609  0.31357  1.0000
  C   C963      1.0  0.50722  0.43035  0.28495  1.0000
  H   H1522     1.0  0.42589  0.54414  0.25042  1.0000
  C   C964      1.0  0.51635  0.44013  0.29357  1.0000
  H   H1523     1.0  0.53199  0.44208  0.28762  1.0000
  C   C965      1.0  0.61642  0.48298  0.36488  1.0000
  C   C966      1.0  0.63743  0.42615  0.35785  1.0000
  H   H1524     1.0  0.62778  0.41747  0.36944  1.0000
  C   C967      1.0  0.59133  0.51462  0.35968  1.0000
  H   H1525     1.0  0.61346  0.48275  0.38024  1.0000
  C   C968      1.0  0.42053  0.59487  0.24864  1.0000
  S   S381      1.0  0.55537  0.49046  0.28274  1.0000
  H   H1526     1.0  0.55770  0.45952  0.26104  1.0000
  C   C969      1.0  0.50511  0.44753  0.30973  1.0000
  H   H1527     1.0  0.62160  0.46679  0.36331  1.0000
  C   C970      1.0  0.63078  0.60825  0.38489  1.0000
  H   H1528     1.0  0.51590  0.42480  0.27234  1.0000
  H   H1529     1.0  0.36612  0.62571  0.39573  1.0000
  C   C971      1.0  0.37041  0.63427  0.28585  1.0000
  S   S382      1.0  0.39299  0.44161  0.24613  1.0000
  H   H1530     1.0  0.60375  0.52341  0.35268  1.0000
  H   H1531     1.0  0.50817  0.51295  0.29495  1.0000
  H   H1532     1.0  0.58706  0.51516  0.37495  1.0000
  H   H1533     1.0  0.61576  0.50120  0.32878  1.0000
  H   H1534     1.0  0.48784  0.50264  0.31240  1.0000
  C   C972      1.0  0.36631  0.60826  0.27224  1.0000
  S   S383      1.0  0.60961  0.63950  0.31249  1.0000
  H   H1535     1.0  0.35608  0.42957  0.36183  1.0000
  S   S384      1.0  0.57528  0.62768  0.29653  1.0000
  H   H1536     1.0  0.38504  0.43184  0.37315  1.0000
  Fe  Fe193     1.0  0.58893  0.61685  0.32214  1.0000
  S   S385      1.0  0.60209  0.58330  0.33180  1.0000
  H   H1537     1.0  0.54637  0.65590  0.27042  1.0000
  H   H1538     1.0  0.35262  0.65007  0.36945  1.0000
  S   S386      1.0  0.56318  0.63599  0.33933  1.0000
  C   C973      1.0  0.33953  0.63848  0.27502  1.0000
  C   C974      1.0  0.37787  0.33558  0.34802  1.0000
  C   C975      1.0  0.49378  0.51699  0.30546  1.0000
  H   H1539     1.0  0.39457  0.35098  0.28473  1.0000
  H   H1540     1.0  0.48772  0.45720  0.25535  1.0000
  N   N99       1.0  0.59793  0.49328  0.35707  1.0000
  C   C976      1.0  0.51488  0.61675  0.32540  1.0000
  H   H1541     1.0  0.50937  0.49680  0.33590  1.0000
  H   H1542     1.0  0.58566  0.46594  0.36491  1.0000
  H   H1543     1.0  0.52943  0.61462  0.32912  1.0000
  H   H1544     1.0  0.51109  0.58586  0.33894  1.0000
  H   H1545     1.0  0.36116  0.35768  0.30653  1.0000
  H   H1546     1.0  0.62598  0.61995  0.39372  1.0000
  C   C977      1.0  0.61024  0.62065  0.25578  1.0000
  H   H1547     1.0  0.62371  0.58791  0.36201  1.0000
  H   H1548     1.0  0.61184  0.61643  0.27033  1.0000
  C   C978      1.0  0.48401  0.47288  0.24642  1.0000
  Fe  Fe194     1.0  0.57075  0.50004  0.30044  1.0000
  H   H1549     1.0  0.62326  0.59514  0.39296  1.0000
  N   N100      1.0  0.62513  0.61695  0.36628  1.0000
  C   C979      1.0  0.59340  0.54053  0.30887  1.0000
  C   C980      1.0  0.57055  0.57644  0.32070  1.0000
  H   H1550     1.0  0.57730  0.48128  0.38244  1.0000
  H   H1551     1.0  0.36206  0.38425  0.30152  1.0000
  H   H1552     1.0  0.60248  0.52726  0.30343  1.0000
  C   C981      1.0  0.60242  0.55140  0.31653  1.0000
  C   C982      1.0  0.60276  0.49346  0.33665  1.0000
  H   H1553     1.0  0.38242  0.62348  0.29309  1.0000
  H   H1554     1.0  0.57779  0.52305  0.35337  1.0000
  H   H1555     1.0  0.60801  0.59038  0.25552  1.0000
  H   H1556     1.0  0.60714  0.47768  0.33415  1.0000
  H   H1557     1.0  0.53920  0.62113  0.28598  1.0000
  C   C983      1.0  0.59096  0.56939  0.32246  1.0000
  C   C984      1.0  0.57278  0.54734  0.30764  1.0000
  H   H1558     1.0  0.61841  0.54626  0.31735  1.0000
  H   H1559     1.0  0.56164  0.59027  0.32527  1.0000
  H   H1560     1.0  0.37268  0.41524  0.34503  1.0000
  H   H1561     1.0  0.41311  0.39911  0.24562  1.0000
  Fe  Fe195     1.0  0.58300  0.65972  0.32798  1.0000
  H   H1562     1.0  0.54559  0.57096  0.31219  1.0000
  H   H1563     1.0  0.44316  0.47870  0.25794  1.0000
  C   C985      1.0  0.36236  0.39249  0.26448  1.0000
  C   C986      1.0  0.56147  0.56545  0.31333  1.0000
  H   H1564     1.0  0.51767  0.54375  0.29836  1.0000
  H   H1565     1.0  0.56703  0.48945  0.36141  1.0000
  S   S387      1.0  0.59793  0.46873  0.24488  1.0000
  H   H1566     1.0  0.36841  0.35576  0.25604  1.0000
  C   C987      1.0  0.35727  0.37277  0.29674  1.0000
  H   H1567     1.0  0.39848  0.36528  0.26052  1.0000
  H   H1568     1.0  0.48481  0.47373  0.28175  1.0000
  H   H1569     1.0  0.39571  0.37741  0.27958  1.0000
  H   H1570     1.0  0.34026  0.37695  0.29865  1.0000
  H   H1571     1.0  0.35880  0.63128  0.41895  1.0000
  C   C988      1.0  0.36080  0.35674  0.27099  1.0000
  H   H1572     1.0  0.65792  0.36124  0.36404  1.0000
  H   H1573     1.0  0.45635  0.51953  0.25408  1.0000
  C   C989      1.0  0.61003  0.64084  0.24552  1.0000
  H   H1574     1.0  0.34634  0.64674  0.26063  1.0000
  S   S388      1.0  0.60889  0.66009  0.25711  1.0000
  H   H1575     1.0  0.33175  0.38035  0.35719  1.0000
  H   H1576     1.0  0.51247  0.64951  0.27327  1.0000
  H   H1577     1.0  0.33707  0.62398  0.31218  1.0000
  C   C990      1.0  0.34458  0.65134  0.33316  1.0000
  C   C991      1.0  0.66222  0.44879  0.32818  1.0000
  H   H1578     1.0  0.51456  0.65794  0.24818  1.0000
  H   H1579     1.0  0.33113  0.65022  0.28356  1.0000
  H   H1580     1.0  0.49886  0.47751  0.23883  1.0000
  Fe  Fe196     1.0  0.57022  0.65112  0.67116  1.0000
  H   H1581     1.0  0.35736  0.47232  0.70156  1.0000
  H   H1582     1.0  0.43632  0.47134  0.67934  1.0000
  H   H1583     1.0  0.46159  0.41603  0.68716  1.0000
  C   C992      1.0  0.48659  0.63082  0.62253  1.0000
  N   N101      1.0  0.53252  0.49860  0.71708  1.0000
  H   H1584     1.0  0.38268  0.37440  0.57863  1.0000
  H   H1585     1.0  0.61342  0.57567  0.70331  1.0000
  H   H1586     1.0  0.40673  0.44212  0.69668  1.0000
  H   H1587     1.0  0.62136  0.44886  0.63495  1.0000
  H   H1588     1.0  0.49191  0.58088  0.62200  1.0000
  C   C993      1.0  0.37893  0.52315  0.70833  1.0000
  H   H1589     1.0  0.55840  0.42024  0.72517  1.0000
  C   C994      1.0  0.64528  0.41258  0.62890  1.0000
  C   C995      1.0  0.47470  0.45928  0.62259  1.0000
  Fe  Fe197     1.0  0.38595  0.40830  0.66982  1.0000
  S   S389      1.0  0.41009  0.38597  0.65463  1.0000
  S   S390      1.0  0.37238  0.39950  0.70093  1.0000
  Fe  Fe198     1.0  0.42804  0.41094  0.64502  1.0000
  S   S391      1.0  0.46059  0.40393  0.64876  1.0000
  Fe  Fe199     1.0  0.39554  0.40189  0.62964  1.0000
  C   C996      1.0  0.53610  0.48307  0.70582  1.0000
  C   C997      1.0  0.47234  0.42510  0.64140  1.0000
  H   H1590     1.0  0.35475  0.47645  0.59826  1.0000
  C   C998      1.0  0.46441  0.44292  0.62927  1.0000
  S   S392      1.0  0.36962  0.42210  0.64579  1.0000
  H   H1591     1.0  0.65284  0.42590  0.62189  1.0000
  H   H1592     1.0  0.45066  0.44388  0.62461  1.0000
  C   C999      1.0  0.36902  0.42015  0.71145  1.0000
  C   C1000     1.0  0.37449  0.44000  0.59022  1.0000
  C   C1001     1.0  0.34631  0.46372  0.60485  1.0000
  C   C1002     1.0  0.40535  0.32971  0.60264  1.0000
  C   C1003     1.0  0.36154  0.45680  0.70949  1.0000
  C   C1004     1.0  0.36383  0.44026  0.70128  1.0000
  H   H1593     1.0  0.35385  0.38362  0.63489  1.0000
  H   H1594     1.0  0.36134  0.44307  0.68711  1.0000
  C   C1005     1.0  0.35266  0.36720  0.58984  1.0000
  C   C1006     1.0  0.49022  0.42391  0.64733  1.0000
  C   C1007     1.0  0.37038  0.37972  0.60689  1.0000
  H   H1595     1.0  0.45838  0.45282  0.67106  1.0000
  S   S393      1.0  0.39282  0.38690  0.60735  1.0000
  H   H1596     1.0  0.52343  0.48586  0.69840  1.0000
  H   H1597     1.0  0.63758  0.58147  0.71932  1.0000
  H   H1598     1.0  0.64293  0.64476  0.69562  1.0000
  C   C1008     1.0  0.38967  0.54312  0.72417  1.0000
  S   S394      1.0  0.40482  0.43216  0.66178  1.0000
  H   H1599     1.0  0.55056  0.47900  0.73688  1.0000
  C   C1009     1.0  0.44968  0.44398  0.70914  1.0000
  Fe  Fe200     1.0  0.39099  0.44411  0.63630  1.0000
  N   N102      1.0  0.43812  0.44073  0.69673  1.0000
  H   H1600     1.0  0.60673  0.43380  0.63029  1.0000
  H   H1601     1.0  0.33170  0.62839  0.54436  1.0000
  S   S395      1.0  0.41598  0.42501  0.61852  1.0000
  C   C1010     1.0  0.49278  0.45795  0.62821  1.0000
  H   H1602     1.0  0.38944  0.50894  0.71404  1.0000
  H   H1603     1.0  0.43439  0.64481  0.66355  1.0000
  H   H1604     1.0  0.52856  0.53136  0.71233  1.0000
  H   H1605     1.0  0.65744  0.39878  0.63217  1.0000
  C   C1011     1.0  0.46965  0.55717  0.61713  1.0000
  C   C1012     1.0  0.36978  0.37387  0.59065  1.0000
  H   H1606     1.0  0.51883  0.52295  0.69659  1.0000
  H   H1607     1.0  0.51989  0.64586  0.69482  1.0000
  Fe  Fe201     1.0  0.54883  0.50233  0.64526  1.0000
  H   H1608     1.0  0.37900  0.43233  0.60395  1.0000
  H   H1609     1.0  0.62780  0.42209  0.67327  1.0000
  H   H1610     1.0  0.44269  0.40812  0.70797  1.0000
  H   H1611     1.0  0.51103  0.64282  0.62559  1.0000
  H   H1612     1.0  0.55063  0.48325  0.69481  1.0000
  H   H1613     1.0  0.34402  0.55205  0.71150  1.0000
  C   C1013     1.0  0.49877  0.63465  0.63288  1.0000
  C   C1014     1.0  0.33581  0.36657  0.60518  1.0000
  C   C1015     1.0  0.33617  0.37288  0.62130  1.0000
  H   H1614     1.0  0.54767  0.50592  0.73502  1.0000
  H   H1615     1.0  0.41910  0.46788  0.63500  1.0000
  C   C1016     1.0  0.44177  0.45504  0.67806  1.0000
  H   H1616     1.0  0.46875  0.47288  0.61285  1.0000
  S   S396      1.0  0.37937  0.47777  0.62564  1.0000
  H   H1617     1.0  0.44321  0.62579  0.69432  1.0000
  H   H1618     1.0  0.49636  0.41011  0.65675  1.0000
  H   H1619     1.0  0.35036  0.60003  0.56600  1.0000
  H   H1620     1.0  0.34745  0.52190  0.73847  1.0000
  H   H1621     1.0  0.35243  0.36273  0.57723  1.0000
  S   S397      1.0  0.44082  0.63498  0.72942  1.0000
  Fe  Fe202     1.0  0.42596  0.60470  0.63476  1.0000
  S   S398      1.0  0.39471  0.62133  0.64775  1.0000
  S   S399      1.0  0.45357  0.61862  0.61886  1.0000
  Fe  Fe203     1.0  0.41396  0.56348  0.64609  1.0000
  S   S400      1.0  0.38194  0.57599  0.66022  1.0000
  S   S401      1.0  0.42866  0.53026  0.64660  1.0000
  Fe  Fe204     1.0  0.38249  0.60253  0.63495  1.0000
  Fe  Fe205     1.0  0.39614  0.59383  0.67195  1.0000
  S   S402      1.0  0.38469  0.59519  0.70273  1.0000
  S   S403      1.0  0.42828  0.57888  0.66015  1.0000
  C   C1017     1.0  0.34106  0.43144  0.60269  1.0000
  C   C1018     1.0  0.53349  0.62430  0.72587  1.0000
  C   C1019     1.0  0.41487  0.51619  0.64026  1.0000
  C   C1020     1.0  0.39568  0.52519  0.63574  1.0000
  C   C1021     1.0  0.38488  0.51343  0.63103  1.0000
  H   H1622     1.0  0.47518  0.61348  0.67723  1.0000
  C   C1022     1.0  0.42329  0.49552  0.63991  1.0000
  H   H1623     1.0  0.38914  0.54118  0.63589  1.0000
  C   C1023     1.0  0.42591  0.62222  0.72299  1.0000
  C   C1024     1.0  0.43019  0.62050  0.70415  1.0000
  C   C1025     1.0  0.41771  0.61195  0.69799  1.0000
  C   C1026     1.0  0.40084  0.60498  0.71074  1.0000
  H   H1624     1.0  0.61155  0.39648  0.64411  1.0000
  N   N103      1.0  0.51380  0.63918  0.72523  1.0000
  H   H1625     1.0  0.38731  0.53045  0.69420  1.0000
  H   H1626     1.0  0.42098  0.61096  0.68334  1.0000
  H   H1627     1.0  0.46759  0.54451  0.61182  1.0000
  C   C1027     1.0  0.46992  0.62127  0.63194  1.0000
  H   H1628     1.0  0.58754  0.57434  0.71581  1.0000
  H   H1629     1.0  0.50031  0.61989  0.71621  1.0000
  C   C1028     1.0  0.35775  0.55583  0.71360  1.0000
  C   C1029     1.0  0.48245  0.53322  0.64345  1.0000
  C   C1030     1.0  0.46619  0.61457  0.65164  1.0000
  C   C1031     1.0  0.37031  0.43323  0.73792  1.0000
  H   H1630     1.0  0.56467  0.49399  0.71652  1.0000
  S   S404      1.0  0.41364  0.58828  0.61965  1.0000
  H   H1631     1.0  0.39870  0.55047  0.71047  1.0000
  H   H1632     1.0  0.47458  0.57323  0.64391  1.0000
  H   H1633     1.0  0.39507  0.33957  0.61239  1.0000
  C   C1032     1.0  0.34496  0.63501  0.60942  1.0000
  C   C1033     1.0  0.39315  0.49262  0.63105  1.0000
  S   S405      1.0  0.65412  0.39290  0.56800  1.0000
  C   C1034     1.0  0.48883  0.56762  0.63394  1.0000
  H   H1634     1.0  0.60846  0.55418  0.72247  1.0000
  H   H1635     1.0  0.36552  0.56403  0.69971  1.0000
  H   H1636     1.0  0.35241  0.56693  0.72308  1.0000
  H   H1637     1.0  0.46791  0.53794  0.65358  1.0000
  C   C1035     1.0  0.62693  0.57720  0.73316  1.0000
  C   C1036     1.0  0.44503  0.41937  0.69418  1.0000
  C   C1037     1.0  0.35349  0.37927  0.62224  1.0000
  S   S406      1.0  0.35229  0.61200  0.62544  1.0000
  N   N104      1.0  0.37180  0.53727  0.72148  1.0000
  S   S407      1.0  0.64523  0.64541  0.73340  1.0000
  H   H1638     1.0  0.45361  0.60695  0.65903  1.0000
  C   C1038     1.0  0.47834  0.61837  0.66195  1.0000
  H   H1639     1.0  0.65102  0.40518  0.66445  1.0000
  H   H1640     1.0  0.43832  0.48865  0.64296  1.0000
  H   H1641     1.0  0.54594  0.52022  0.69346  1.0000
  H   H1642     1.0  0.37001  0.52039  0.62763  1.0000
  H   H1643     1.0  0.50525  0.52990  0.60911  1.0000
  H   H1644     1.0  0.50950  0.55576  0.60134  1.0000
  H   H1645     1.0  0.46650  0.44113  0.70297  1.0000
  N   N105      1.0  0.35213  0.44831  0.59305  1.0000
  H   H1646     1.0  0.45488  0.56228  0.62672  1.0000
  S   S408      1.0  0.34332  0.33655  0.55667  1.0000
  H   H1647     1.0  0.49507  0.52768  0.65131  1.0000
  S   S409      1.0  0.50562  0.63769  0.66638  1.0000
  H   H1648     1.0  0.53722  0.46732  0.71494  1.0000
  H   H1649     1.0  0.35099  0.44677  0.56522  1.0000
  H   H1650     1.0  0.51930  0.53872  0.62105  1.0000
  H   H1651     1.0  0.50167  0.56311  0.64148  1.0000
  C   C1039     1.0  0.50604  0.54337  0.61404  1.0000
  H   H1652     1.0  0.48070  0.51997  0.63878  1.0000
  C   C1040     1.0  0.49422  0.62896  0.65268  1.0000
  N   N106      1.0  0.48674  0.55035  0.62714  1.0000
  H   H1653     1.0  0.58295  0.60879  0.72224  1.0000
  H   H1654     1.0  0.61283  0.65058  0.68122  1.0000
  H   H1655     1.0  0.60520  0.54409  0.64458  1.0000
  C   C1041     1.0  0.37208  0.41663  0.72986  1.0000
  C   C1042     1.0  0.41242  0.48375  0.63541  1.0000
  H   H1656     1.0  0.50828  0.42368  0.60742  1.0000
  H   H1657     1.0  0.55578  0.44492  0.58956  1.0000
  C   C1043     1.0  0.54531  0.43415  0.59737  1.0000
  H   H1658     1.0  0.53185  0.46198  0.56849  1.0000
  N   N107      1.0  0.53388  0.43092  0.58483  1.0000
  C   C1044     1.0  0.53140  0.51918  0.70436  1.0000
  C   C1045     1.0  0.52184  0.45084  0.57652  1.0000
  C   C1046     1.0  0.65261  0.43068  0.57416  1.0000
  H   H1659     1.0  0.36585  0.51828  0.70611  1.0000
  C   C1047     1.0  0.64180  0.41558  0.57609  1.0000
  H   H1660     1.0  0.55475  0.41950  0.60377  1.0000
  H   H1661     1.0  0.53468  0.44083  0.60921  1.0000
  H   H1662     1.0  0.51031  0.45799  0.58771  1.0000
  H   H1663     1.0  0.51326  0.44908  0.56673  1.0000
  C   C1048     1.0  0.51980  0.41701  0.59594  1.0000
  H   H1664     1.0  0.65099  0.46020  0.57933  1.0000
  C   C1049     1.0  0.64254  0.44853  0.58096  1.0000
  C   C1050     1.0  0.62083  0.41845  0.58480  1.0000
  H   H1665     1.0  0.59451  0.45684  0.67918  1.0000
  H   H1666     1.0  0.60642  0.46803  0.70204  1.0000
  C   C1051     1.0  0.59063  0.65798  0.70609  1.0000
  C   C1052     1.0  0.61077  0.43629  0.59168  1.0000
  C   C1053     1.0  0.58897  0.45145  0.69413  1.0000
  H   H1667     1.0  0.54055  0.41911  0.55969  1.0000
  H   H1668     1.0  0.59461  0.43847  0.59824  1.0000
  N   N108      1.0  0.62957  0.41638  0.64611  1.0000
  C   C1054     1.0  0.62165  0.45134  0.58982  1.0000
  C   C1055     1.0  0.63937  0.41908  0.66018  1.0000
  Fe  Fe206     1.0  0.57943  0.47535  0.61963  1.0000
  S   S410      1.0  0.56229  0.44971  0.63100  1.0000
  Fe  Fe207     1.0  0.55990  0.45633  0.65923  1.0000
  S   S411      1.0  0.56561  0.43103  0.68452  1.0000
  Fe  Fe208     1.0  0.53404  0.47479  0.62952  1.0000
  N   N109      1.0  0.60539  0.58210  0.73117  1.0000
  C   C1056     1.0  0.54960  0.49420  0.72678  1.0000
  H   H1669     1.0  0.60900  0.60977  0.71005  1.0000
  H   H1670     1.0  0.53725  0.61504  0.71497  1.0000
  C   C1057     1.0  0.50035  0.44041  0.64088  1.0000
  H   H1671     1.0  0.60019  0.61326  0.73390  1.0000
  C   C1058     1.0  0.34673  0.45803  0.57445  1.0000
  H   H1672     1.0  0.34500  0.42361  0.61668  1.0000
  C   C1059     1.0  0.61425  0.43515  0.64104  1.0000
  H   H1673     1.0  0.40586  0.33895  0.58789  1.0000
  C   C1060     1.0  0.57523  0.43817  0.70057  1.0000
  H   H1674     1.0  0.43640  0.41627  0.68512  1.0000
  C   C1061     1.0  0.60457  0.65673  0.73275  1.0000
  H   H1675     1.0  0.47213  0.57033  0.60492  1.0000
  S   S412      1.0  0.50668  0.47750  0.61781  1.0000
  H   H1676     1.0  0.51106  0.41404  0.58692  1.0000
  C   C1062     1.0  0.54860  0.42173  0.56950  1.0000
  C   C1063     1.0  0.60361  0.57108  0.71761  1.0000
  H   H1677     1.0  0.60196  0.43819  0.65362  1.0000
  H   H1678     1.0  0.43360  0.45272  0.66822  1.0000
  H   H1679     1.0  0.55793  0.40667  0.57529  1.0000
  C   C1064     1.0  0.58891  0.45082  0.72663  1.0000
  H   H1680     1.0  0.63022  0.38436  0.65849  1.0000
  H   H1681     1.0  0.49971  0.50128  0.72461  1.0000
  S   S413      1.0  0.57866  0.48054  0.64804  1.0000
  C   C1065     1.0  0.59590  0.45764  0.70712  1.0000
  C   C1066     1.0  0.33672  0.60289  0.57764  1.0000
  H   H1682     1.0  0.52824  0.40196  0.60281  1.0000
  H   H1683     1.0  0.60702  0.40142  0.66727  1.0000
  H   H1684     1.0  0.51428  0.43932  0.64531  1.0000
  S   S414      1.0  0.60984  0.47365  0.59868  1.0000
  H   H1685     1.0  0.61242  0.40683  0.58623  1.0000
  S   S415      1.0  0.52975  0.47856  0.65898  1.0000
  H   H1686     1.0  0.38478  0.55433  0.73353  1.0000
  H   H1687     1.0  0.55949  0.43185  0.56090  1.0000
  H   H1688     1.0  0.35003  0.45687  0.61906  1.0000
  C   C1067     1.0  0.62448  0.65115  0.72236  1.0000
  S   S416      1.0  0.55142  0.49997  0.61559  1.0000
  C   C1068     1.0  0.56884  0.43071  0.72008  1.0000
  C   C1069     1.0  0.61917  0.39885  0.65437  1.0000
  Fe  Fe209     1.0  0.53835  0.64179  0.65522  1.0000
  S   S417      1.0  0.55875  0.62281  0.67496  1.0000
  C   C1070     1.0  0.35932  0.64579  0.59650  1.0000
  H   H1689     1.0  0.48971  0.63584  0.60724  1.0000
  Fe  Fe210     1.0  0.58211  0.61809  0.64854  1.0000
  S   S418      1.0  0.59926  0.58585  0.64798  1.0000
  S   S419      1.0  0.56105  0.63534  0.62874  1.0000
  S   S420      1.0  0.53578  0.53189  0.65492  1.0000
  C   C1071     1.0  0.58178  0.57073  0.64971  1.0000
  C   C1072     1.0  0.56064  0.57888  0.65338  1.0000
  C   C1073     1.0  0.54667  0.56680  0.65501  1.0000
  C   C1074     1.0  0.55375  0.54661  0.65263  1.0000
  C   C1075     1.0  0.57487  0.53842  0.64882  1.0000
  C   C1076     1.0  0.58888  0.55043  0.64751  1.0000
  H   H1690     1.0  0.55495  0.59452  0.65492  1.0000
  H   H1691     1.0  0.53036  0.57327  0.65789  1.0000
  H   H1692     1.0  0.58047  0.52287  0.64692  1.0000
  H   H1693     1.0  0.35486  0.47081  0.56682  1.0000
  H   H1694     1.0  0.37540  0.64078  0.59705  1.0000
  H   H1695     1.0  0.45980  0.65297  0.67722  1.0000
  H   H1696     1.0  0.40014  0.52961  0.73095  1.0000
  H   H1697     1.0  0.64722  0.43230  0.65441  1.0000
  C   C1077     1.0  0.41596  0.44450  0.70558  1.0000
  H   H1698     1.0  0.38344  0.45228  0.58333  1.0000
  H   H1699     1.0  0.37952  0.42827  0.58140  1.0000
  S   S421      1.0  0.59601  0.64470  0.64654  1.0000
  H   H1700     1.0  0.44714  0.43352  0.72341  1.0000
  C   C1078     1.0  0.36486  0.45334  0.72776  1.0000
  C   C1079     1.0  0.51301  0.49792  0.73136  1.0000
  H   H1701     1.0  0.44485  0.45996  0.71134  1.0000
  H   H1702     1.0  0.41006  0.46046  0.70774  1.0000
  H   H1703     1.0  0.34506  0.41954  0.59415  1.0000
  C   C1080     1.0  0.57549  0.43721  0.73309  1.0000
  C   C1081     1.0  0.59908  0.60443  0.72404  1.0000
  H   H1704     1.0  0.48220  0.63880  0.72771  1.0000
  C   C1082     1.0  0.39675  0.60617  0.72979  1.0000
  H   H1705     1.0  0.33936  0.61423  0.58423  1.0000
  C   C1083     1.0  0.61053  0.65242  0.69553  1.0000
  H   H1706     1.0  0.54633  0.63224  0.72331  1.0000
  C   C1084     1.0  0.40936  0.61472  0.73597  1.0000
  C   C1085     1.0  0.51530  0.65389  0.70671  1.0000
  H   H1707     1.0  0.41266  0.43392  0.71967  1.0000
  H   H1708     1.0  0.33638  0.58837  0.58864  1.0000
  S   S422      1.0  0.36214  0.47455  0.73731  1.0000
  H   H1709     1.0  0.37626  0.40106  0.73769  1.0000
  H   H1710     1.0  0.63840  0.41005  0.61819  1.0000
  C   C1086     1.0  0.62751  0.64923  0.70363  1.0000
  C   C1087     1.0  0.49736  0.62810  0.72783  1.0000
  H   H1711     1.0  0.41366  0.65764  0.67927  1.0000
  C   C1088     1.0  0.42450  0.66001  0.66521  1.0000
  H   H1712     1.0  0.58596  0.35472  0.80709  1.0000
  H   H1713     1.0  0.40507  0.64841  0.83251  1.0000
  Fe  Fe211     1.0  0.37257  0.46945  0.76435  1.0000
  S   S423      1.0  0.40159  0.47914  0.76192  1.0000
  H   H1714     1.0  0.43260  0.47757  0.78262  1.0000
  S   S424      1.0  0.37794  0.44189  0.78792  1.0000
  C   C1089     1.0  0.48254  0.47279  0.78357  1.0000
  H   H1715     1.0  0.39960  0.61415  0.82945  1.0000
  C   C1090     1.0  0.44825  0.47020  0.78355  1.0000
  C   C1091     1.0  0.46231  0.48214  0.78204  1.0000
  Fe  Fe212     1.0  0.40550  0.45375  0.78732  1.0000
  C   C1092     1.0  0.45444  0.44886  0.78627  1.0000
  C   C1093     1.0  0.63019  0.38225  0.98852  1.0000
  C   C1094     1.0  0.34484  0.41609  0.83814  1.0000
  H   H1716     1.0  0.35205  0.38309  0.84271  1.0000
  H   H1717     1.0  0.35980  0.41788  0.82938  1.0000
  Fe  Fe213     1.0  0.36128  0.46341  0.80741  1.0000
  S   S425      1.0  0.65430  0.60414  0.77841  1.0000
  C   C1095     1.0  0.48401  0.55628  0.81436  1.0000
  H   H1718     1.0  0.61294  0.33486  0.82549  1.0000
  H   H1719     1.0  0.40598  0.61595  0.75058  1.0000
  C   C1096     1.0  0.33993  0.35658  0.93525  1.0000
  H   H1720     1.0  0.36147  0.37086  0.90041  1.0000
  H   H1721     1.0  0.49856  0.55928  0.81564  1.0000
  C   C1097     1.0  0.38583  0.61108  0.84075  1.0000
  H   H1722     1.0  0.38372  0.60070  0.73970  1.0000
  S   S426      1.0  0.38926  0.47341  0.80855  1.0000
  H   H1723     1.0  0.57436  0.36989  0.82457  1.0000
  H   H1724     1.0  0.51333  0.48253  0.74116  1.0000
  C   C1098     1.0  0.47475  0.43949  0.78768  1.0000
  H   H1725     1.0  0.47957  0.42299  0.78986  1.0000
  S   S427      1.0  0.43692  0.43392  0.78774  1.0000
  C   C1099     1.0  0.48878  0.45144  0.78645  1.0000
  H   H1726     1.0  0.38408  0.62006  0.85149  1.0000
  Fe  Fe214     1.0  0.38303  0.49803  0.78300  1.0000
  Fe  Fe215     1.0  0.44180  0.62664  0.76024  1.0000
  S   S428      1.0  0.45684  0.59507  0.77317  1.0000
  H   H1727     1.0  0.61999  0.39226  0.97899  1.0000
  S   S429      1.0  0.35356  0.48998  0.78378  1.0000
  S   S430      1.0  0.38493  0.53134  0.77353  1.0000
  H   H1728     1.0  0.39866  0.56888  0.76362  1.0000
  S   S431      1.0  0.46207  0.64185  0.76794  1.0000
  C   C1100     1.0  0.40088  0.56125  0.77777  1.0000
  H   H1729     1.0  0.47383  0.55377  0.82874  1.0000
  H   H1730     1.0  0.57554  0.57958  0.74908  1.0000
  H   H1731     1.0  0.37316  0.43044  0.75194  1.0000
  H   H1732     1.0  0.45736  0.49863  0.77987  1.0000
  H   H1733     1.0  0.41276  0.58549  0.78099  1.0000
  C   C1101     1.0  0.39577  0.54203  0.78612  1.0000
  S   S432      1.0  0.41640  0.63046  0.78584  1.0000
  C   C1102     1.0  0.50139  0.54281  0.78644  1.0000
  N   N110      1.0  0.58030  0.33733  0.83586  1.0000
  H   H1734     1.0  0.57044  0.43143  0.74808  1.0000
  H   H1735     1.0  0.38373  0.60680  0.80691  1.0000
  H   H1736     1.0  0.56414  0.35316  0.85822  1.0000
  H   H1737     1.0  0.34049  0.42259  0.80009  1.0000
  C   C1103     1.0  0.34044  0.39642  0.84573  1.0000
  C   C1104     1.0  0.54797  0.62611  0.79832  1.0000
  S   S433      1.0  0.45314  0.61314  0.81066  1.0000
  N   N111      1.0  0.36726  0.61636  0.83286  1.0000
  S   S434      1.0  0.42047  0.57329  0.81871  1.0000
  C   C1105     1.0  0.49829  0.52005  0.81735  1.0000
  C   C1106     1.0  0.41149  0.56102  0.80599  1.0000
  H   H1738     1.0  0.39478  0.51735  0.81090  1.0000
  C   C1107     1.0  0.40645  0.54177  0.81438  1.0000
  C   C1108     1.0  0.61440  0.52586  0.78439  1.0000
  H   H1739     1.0  0.53290  0.61347  0.73997  1.0000
  H   H1740     1.0  0.40845  0.53425  0.82861  1.0000
  Fe  Fe216     1.0  0.43359  0.60001  0.79964  1.0000
  H   H1741     1.0  0.37346  0.58723  0.82520  1.0000
  H   H1742     1.0  0.37675  0.64248  0.81228  1.0000
  Fe  Fe217     1.0  0.43799  0.64331  0.79469  1.0000
  C   C1109     1.0  0.34946  0.61192  0.84835  1.0000
  H   H1743     1.0  0.34996  0.34112  0.93832  1.0000
  H   H1744     1.0  0.51632  0.54544  0.78717  1.0000
  H   H1745     1.0  0.50126  0.50640  0.81119  1.0000
  C   C1110     1.0  0.39875  0.53217  0.80438  1.0000
  C   C1111     1.0  0.36339  0.63842  0.82368  1.0000
  H   H1746     1.0  0.50475  0.52976  0.77940  1.0000
  S   S435      1.0  0.62068  0.64534  0.78895  1.0000
  H   H1747     1.0  0.54936  0.33907  0.85242  1.0000
  H   H1748     1.0  0.50750  0.63984  0.75470  1.0000
  H   H1749     1.0  0.51339  0.52182  0.81856  1.0000
  C   C1112     1.0  0.46829  0.53540  0.80391  1.0000
  Fe  Fe218     1.0  0.47524  0.61053  0.78294  1.0000
  C   C1113     1.0  0.40889  0.57065  0.78760  1.0000
  N   N112      1.0  0.48798  0.53863  0.80552  1.0000
  H   H1750     1.0  0.47066  0.52203  0.79750  1.0000
  H   H1751     1.0  0.48873  0.51653  0.83191  1.0000
  H   H1752     1.0  0.49413  0.55679  0.77715  1.0000
  H   H1753     1.0  0.49889  0.63262  0.79343  1.0000
  N   N113      1.0  0.33387  0.36064  0.91696  1.0000
  Fe  Fe219     1.0  0.57508  0.46052  0.77097  1.0000
  C   C1114     1.0  0.59630  0.55128  0.80304  1.0000
  C   C1115     1.0  0.61339  0.54394  0.78986  1.0000
  S   S436      1.0  0.55044  0.44213  0.78323  1.0000
  C   C1116     1.0  0.58164  0.52209  0.80580  1.0000
  H   H1754     1.0  0.60344  0.47998  0.86064  1.0000
  H   H1755     1.0  0.59343  0.58315  0.76062  1.0000
  H   H1756     1.0  0.35667  0.60746  0.81247  1.0000
  Fe  Fe220     1.0  0.55912  0.43875  0.81091  1.0000
  Fe  Fe221     1.0  0.56168  0.48341  0.80299  1.0000
  C   C1117     1.0  0.65648  0.65695  0.82263  1.0000
  H   H1757     1.0  0.56631  0.46781  0.84026  1.0000
  H   H1758     1.0  0.61830  0.44229  0.86571  1.0000
  H   H1759     1.0  0.57716  0.44093  0.84319  1.0000
  H   H1760     1.0  0.35188  0.59538  0.85557  1.0000
  H   H1761     1.0  0.34837  0.36812  0.93538  1.0000
  S   S437      1.0  0.58539  0.45502  0.79820  1.0000
  H   H1762     1.0  0.63208  0.56055  0.73907  1.0000
  S   S438      1.0  0.55988  0.41009  0.83435  1.0000
  C   C1118     1.0  0.57435  0.45442  0.84950  1.0000
  C   C1119     1.0  0.56500  0.33889  0.85380  1.0000
  S   S439      1.0  0.53606  0.46685  0.81767  1.0000
  C   C1120     1.0  0.37034  0.60398  0.81876  1.0000
  N   N114      1.0  0.59370  0.45814  0.85132  1.0000
  H   H1763     1.0  0.59337  0.43746  0.87860  1.0000
  H   H1764     1.0  0.65842  0.34182  0.95650  1.0000
  C   C1121     1.0  0.54421  0.59825  0.78663  1.0000
  H   H1765     1.0  0.33515  0.61574  0.84292  1.0000
  H   H1766     1.0  0.58197  0.49049  0.84948  1.0000
  C   C1122     1.0  0.60776  0.46128  0.83249  1.0000
  H   H1767     1.0  0.52055  0.64925  0.80346  1.0000
  C   C1123     1.0  0.61791  0.37797  0.85721  1.0000
  C   C1124     1.0  0.61926  0.39244  0.83991  1.0000
  C   C1125     1.0  0.60154  0.40259  0.83277  1.0000
  C   C1126     1.0  0.58235  0.39859  0.84313  1.0000
  C   C1127     1.0  0.36078  0.52696  0.73993  1.0000
  H   H1768     1.0  0.63411  0.39545  0.83183  1.0000
  H   H1769     1.0  0.60282  0.41316  0.81912  1.0000
  H   H1770     1.0  0.56749  0.54583  0.82156  1.0000
  H   H1771     1.0  0.56610  0.38186  0.86897  1.0000
  C   C1128     1.0  0.59869  0.37415  0.86762  1.0000
  H   H1772     1.0  0.56354  0.45148  0.86348  1.0000
  H   H1773     1.0  0.61174  0.44749  0.82631  1.0000
  H   H1774     1.0  0.60071  0.47455  0.82235  1.0000
  C   C1129     1.0  0.58921  0.47669  0.85905  1.0000
  S   S440      1.0  0.64025  0.36521  0.86580  1.0000
  H   H1775     1.0  0.59747  0.36331  0.88114  1.0000
  C   C1130     1.0  0.58096  0.38462  0.86069  1.0000
  Fe  Fe222     1.0  0.53011  0.47194  0.78881  1.0000
  H   H1776     1.0  0.62238  0.46450  0.83326  1.0000
  H   H1777     1.0  0.60679  0.42595  0.85884  1.0000
  Fe  Fe223     1.0  0.64178  0.33160  0.87958  1.0000
  C   C1131     1.0  0.60347  0.44021  0.86421  1.0000
  S   S441      1.0  0.56321  0.63840  0.80498  1.0000
  H   H1778     1.0  0.52149  0.65855  0.73906  1.0000
  H   H1779     1.0  0.57843  0.47504  0.87315  1.0000
  C   C1132     1.0  0.60085  0.33677  0.83850  1.0000
  Fe  Fe224     1.0  0.59707  0.62577  0.79649  1.0000
  H   H1780     1.0  0.49591  0.61657  0.74151  1.0000
  C   C1133     1.0  0.51492  0.62562  0.79308  1.0000
  H   H1781     1.0  0.50438  0.44412  0.78767  1.0000
  H   H1782     1.0  0.64547  0.37706  0.97954  1.0000
  S   S442      1.0  0.60851  0.61394  0.76989  1.0000
  C   C1134     1.0  0.58054  0.54025  0.81113  1.0000
  S   S443      1.0  0.33446  0.45828  0.83208  1.0000
  H   H1783     1.0  0.45763  0.53253  0.81801  1.0000
  Fe  Fe225     1.0  0.63371  0.63074  0.76380  1.0000
  H   H1784     1.0  0.35511  0.53718  0.75020  1.0000
  C   C1135     1.0  0.52716  0.63501  0.79878  1.0000
  C   C1136     1.0  0.35238  0.35942  0.90143  1.0000
  C   C1137     1.0  0.59845  0.51503  0.79222  1.0000
  C   C1138     1.0  0.55639  0.60757  0.79244  1.0000
  H   H1785     1.0  0.37106  0.51311  0.74638  1.0000
  H   H1786     1.0  0.55922  0.35638  0.81854  1.0000
  H   H1787     1.0  0.60139  0.35113  0.84201  1.0000
  H   H1788     1.0  0.36256  0.34393  0.90346  1.0000
  H   H1789     1.0  0.38931  0.59448  0.84764  1.0000
  S   S444      1.0  0.50881  0.59577  0.77880  1.0000
  S   S445      1.0  0.63353  0.55718  0.77983  1.0000
  C   C1139     1.0  0.57472  0.35531  0.82083  1.0000
  H   H1790     1.0  0.64044  0.65903  0.89003  1.0000
  H   H1791     1.0  0.63033  0.42225  0.98289  1.0000
  S   S446      1.0  0.55411  0.49061  0.77462  1.0000
  H   H1792     1.0  0.33160  0.32933  0.92064  1.0000
  H   H1793     1.0  0.62759  0.52020  0.77413  1.0000
  H   H1794     1.0  0.47634  0.57052  0.80573  1.0000
  S   S447      1.0  0.49973  0.48828  0.78146  1.0000
  C   C1140     1.0  0.52351  0.60731  0.78685  1.0000
  S   S448      1.0  0.61478  0.59861  0.81396  1.0000
  S   S449      1.0  0.56222  0.50805  0.81684  1.0000
  Fe  Fe226     1.0  0.63951  0.61723  0.80435  1.0000
  H   H1795     1.0  0.60212  0.65838  0.74716  1.0000
  H   H1796     1.0  0.46018  0.54905  0.79492  1.0000
  H   H1797     1.0  0.59537  0.56527  0.80725  1.0000
  H   H1798     1.0  0.55079  0.58383  0.78226  1.0000
  H   H1799     1.0  0.59936  0.50106  0.78798  1.0000
  H   H1800     1.0  0.57218  0.60020  0.79274  1.0000
  Fe  Fe227     1.0  0.62799  0.58820  0.78652  1.0000
  S   S450      1.0  0.66126  0.61579  0.82269  1.0000
  H   H1801     1.0  0.34819  0.36254  0.88744  1.0000
  S   S451      1.0  0.59662  0.46018  0.74249  1.0000
  H   H1802     1.0  0.34671  0.62097  0.85929  1.0000
  H   H1803     1.0  0.33869  0.44740  0.76922  1.0000
  C   C1141     1.0  0.59199  0.57566  0.74984  1.0000
  H   H1804     1.0  0.34979  0.64287  0.81714  1.0000
  H   H1805     1.0  0.59614  0.55882  0.75547  1.0000
  H   H1806     1.0  0.65590  0.40730  0.98306  1.0000
  H   H1807     1.0  0.36050  0.64822  0.83402  1.0000
  H   H1808     1.0  0.50991  0.50925  0.74031  1.0000
  C   C1142     1.0  0.50907  0.65044  0.74048  1.0000
  H   H1809     1.0  0.37559  0.65739  0.85877  1.0000
  H   H1810     1.0  0.62893  0.58558  0.74300  1.0000
  H   H1811     1.0  0.64402  0.66013  0.81548  1.0000
  H   H1812     1.0  0.44031  0.72768  0.09359  1.0000
  H   H1813     1.0  0.49389  0.93903  0.20806  1.0000
  Fe  Fe228     1.0  0.37387  0.71549  0.05646  1.0000
  S   S452      1.0  0.38754  0.68152  0.06285  1.0000
  H   H1814     1.0  0.37324  0.69220  0.09988  1.0000
  C   C1143     1.0  0.38328  0.67721  0.10131  1.0000
  C   C1144     1.0  0.38586  0.85554  0.00257  1.0000
  S   S453      1.0  0.36321  0.73674  0.07664  1.0000
  S   S454      1.0  0.34821  0.72972  0.04083  1.0000
  H   H1815     1.0  0.44872  0.96763  0.12702  1.0000
  C   C1145     1.0  0.46332  0.93956  0.22541  1.0000
  H   H1816     1.0  0.45391  0.67578  0.08297  1.0000
  H   H1817     1.0  0.40746  0.73056  0.08498  1.0000
  S   S455      1.0  0.39544  0.73434  0.03558  1.0000
  H   H1818     1.0  0.39747  0.96202  0.12357  1.0000
  Fe  Fe229     1.0  0.35989  0.91281  0.07087  1.0000
  S   S456      1.0  0.36219  0.89843  0.10113  1.0000
  Fe  Fe230     1.0  0.40141  0.88883  0.05466  1.0000
  S   S457      1.0  0.40764  0.87210  0.08320  1.0000
  S   S458      1.0  0.42158  0.88468  0.02647  1.0000
  Fe  Fe231     1.0  0.37476  0.86914  0.09077  1.0000
  S   S459      1.0  0.36358  0.84006  0.10587  1.0000
  Fe  Fe232     1.0  0.39482  0.90280  0.09099  1.0000
  S   S460      1.0  0.41325  0.91161  0.10688  1.0000
  S   S461      1.0  0.36961  0.88319  0.06155  1.0000
  S   S462      1.0  0.39138  0.91987  0.06156  1.0000
  C   C1146     1.0  0.48451  0.93833  0.22222  1.0000
  H   H1819     1.0  0.47101  0.98268  0.20365  1.0000
  H   H1820     1.0  0.36286  0.86094  0.13605  1.0000
  C   C1147     1.0  0.43312  0.78220  0.00321  1.0000
  H   H1821     1.0  0.36031  0.87370  0.17290  1.0000
  C   C1148     1.0  0.39811  0.97672  0.12639  1.0000
  Fe  Fe233     1.0  0.38289  0.75661  0.05444  1.0000
  C   C1149     1.0  0.41004  0.87159  0.01686  1.0000
  H   H1822     1.0  0.36878  0.77601  0.08744  1.0000
  H   H1823     1.0  0.43039  0.67548  0.10060  1.0000
  H   H1824     1.0  0.37934  0.83636  0.14114  1.0000
  Fe  Fe234     1.0  0.38876  0.95643  0.19325  1.0000
  C   C1150     1.0  0.33727  0.84565  0.06333  1.0000
  H   H1825     1.0  0.43158  0.78913  0.01541  1.0000
  Fe  Fe235     1.0  0.36897  0.75055  0.02178  1.0000
  C   C1151     1.0  0.40068  0.91902  0.12834  1.0000
  C   C1152     1.0  0.41247  0.91898  0.14079  1.0000
  C   C1153     1.0  0.40307  0.92605  0.15753  1.0000
  C   C1154     1.0  0.38177  0.93272  0.16209  1.0000
  C   C1155     1.0  0.36989  0.93214  0.14991  1.0000
  C   C1156     1.0  0.37935  0.92549  0.13293  1.0000
  H   H1826     1.0  0.42896  0.91366  0.13740  1.0000
  H   H1827     1.0  0.41228  0.92612  0.16702  1.0000
  H   H1828     1.0  0.35338  0.93731  0.15343  1.0000
  H   H1829     1.0  0.37018  0.92573  0.12330  1.0000
  C   C1157     1.0  0.37548  0.82086  0.09292  1.0000
  C   C1158     1.0  0.36661  0.80396  0.09596  1.0000
  C   C1159     1.0  0.37572  0.78900  0.08509  1.0000
  C   C1160     1.0  0.39396  0.79072  0.07147  1.0000
  C   C1161     1.0  0.40294  0.80746  0.06863  1.0000
  C   C1162     1.0  0.39360  0.82260  0.07919  1.0000
  H   H1830     1.0  0.35261  0.80251  0.10660  1.0000
  H   H1831     1.0  0.41703  0.80889  0.05810  1.0000
  H   H1832     1.0  0.40060  0.83551  0.07681  1.0000
  S   S463      1.0  0.45189  0.98537  0.15773  1.0000
  C   C1163     1.0  0.39891  0.85705  0.02881  1.0000
  C   C1164     1.0  0.42653  0.98055  0.09950  1.0000
  S   S464      1.0  0.36974  0.94179  0.18286  1.0000
  H   H1833     1.0  0.39945  0.85220  0.04362  1.0000
  H   H1834     1.0  0.37827  0.83779  0.03102  1.0000
  H   H1835     1.0  0.49225  0.98575  0.16169  1.0000
  N   N115      1.0  0.38437  0.85946  0.15256  1.0000
  C   C1165     1.0  0.37223  0.87775  0.15996  1.0000
  C   C1166     1.0  0.40031  0.86560  0.13576  1.0000
  C   C1167     1.0  0.39430  0.84452  0.16734  1.0000
  N   N116      1.0  0.41782  0.79396  0.99173  1.0000
  H   H1836     1.0  0.36421  0.88915  0.14927  1.0000
  C   C1168     1.0  0.39135  0.66815  0.08564  1.0000
  H   H1837     1.0  0.38216  0.88564  0.16371  1.0000
  H   H1838     1.0  0.41105  0.87274  0.13924  1.0000
  H   H1839     1.0  0.39335  0.87708  0.12447  1.0000
  H   H1840     1.0  0.40959  0.85230  0.12952  1.0000
  H   H1841     1.0  0.40470  0.85126  0.17173  1.0000
  H   H1842     1.0  0.40365  0.83057  0.16217  1.0000
  H   H1843     1.0  0.35851  0.84501  0.15944  1.0000
  S   S465      1.0  0.37917  0.96462  0.22185  1.0000
  S   S466      1.0  0.51951  0.93742  0.23283  1.0000
  C   C1169     1.0  0.38688  0.84897  0.02167  1.0000
  H   H1844     1.0  0.65091  0.70151  0.09222  1.0000
  H   H1845     1.0  0.34756  0.82414  0.03589  1.0000
  H   H1846     1.0  0.38272  0.83951  0.18025  1.0000
  C   C1170     1.0  0.38841  0.66693  0.11885  1.0000
  H   H1847     1.0  0.43699  0.70414  0.11057  1.0000
  C   C1171     1.0  0.43720  0.68268  0.08578  1.0000
  C   C1172     1.0  0.43298  0.96448  0.13071  1.0000
  H   H1848     1.0  0.43031  0.67806  0.07624  1.0000
  N   N117      1.0  0.43335  0.70525  0.08282  1.0000
  H   H1849     1.0  0.46004  0.70482  0.09238  1.0000
  H   H1850     1.0  0.38844  0.91719  0.01312  1.0000
  C   C1173     1.0  0.34119  0.94311  0.00548  1.0000
  H   H1851     1.0  0.43098  0.76614  0.00930  1.0000
  S   S467      1.0  0.39255  0.98813  0.17733  1.0000
  C   C1174     1.0  0.66145  0.71247  0.08589  1.0000
  Fe  Fe236     1.0  0.33930  0.75260  0.05931  1.0000
  S   S468      1.0  0.42207  0.94460  0.19439  1.0000
  C   C1175     1.0  0.35297  0.90664  0.01580  1.0000
  C   C1176     1.0  0.37456  0.92984  0.01328  1.0000
  H   H1852     1.0  0.37976  0.94434  0.00547  1.0000
  Fe  Fe237     1.0  0.42506  0.97708  0.18073  1.0000
  S   S469      1.0  0.35807  0.77452  0.03913  1.0000
  C   C1177     1.0  0.37068  0.85001  0.14713  1.0000
  H   H1853     1.0  0.45873  0.70841  0.05889  1.0000
  Fe  Fe238     1.0  0.41290  0.95562  0.22157  1.0000
  S   S470      1.0  0.40575  0.77210  0.05790  1.0000
  C   C1178     1.0  0.41102  0.71352  0.08727  1.0000
  H   H1854     1.0  0.40323  0.70943  0.07811  1.0000
  C   C1179     1.0  0.50148  0.98068  0.17276  1.0000
  H   H1855     1.0  0.44244  0.98333  0.09416  1.0000
  H   H1856     1.0  0.34151  0.80452  0.06855  1.0000
  H   H1857     1.0  0.38238  0.67412  0.13088  1.0000
  S   S471      1.0  0.41899  0.98705  0.20789  1.0000
  C   C1180     1.0  0.39702  0.79447  0.00391  1.0000
  H   H1858     1.0  0.43884  0.73122  0.06005  1.0000
  H   H1859     1.0  0.45633  0.94150  0.21366  1.0000
  H   H1860     1.0  0.42666  0.96550  0.09674  1.0000
  H   H1861     1.0  0.34542  0.95800  0.99742  1.0000
  C   C1181     1.0  0.41001  0.87725  0.99753  1.0000
  H   H1862     1.0  0.43472  0.71015  0.05305  1.0000
  H   H1863     1.0  0.65230  0.72820  0.08650  1.0000
  H   H1864     1.0  0.51798  0.97852  0.16541  1.0000
  C   C1182     1.0  0.44186  0.71415  0.06281  1.0000
  H   H1865     1.0  0.36806  0.93100  0.02832  1.0000
  H   H1866     1.0  0.34142  0.74159  0.00208  1.0000
  H   H1867     1.0  0.63658  0.66873  0.07916  1.0000
  H   H1868     1.0  0.35360  0.83733  0.06134  1.0000
  H   H1869     1.0  0.49852  0.96543  0.18114  1.0000
  H   H1870     1.0  0.43443  0.94924  0.12782  1.0000
  H   H1871     1.0  0.40396  0.70728  0.10228  1.0000
  C   C1183     1.0  0.49352  0.93652  0.23730  1.0000
  N   N118      1.0  0.35934  0.92603  0.00487  1.0000
  C   C1184     1.0  0.44314  0.71073  0.09538  1.0000
  H   H1872     1.0  0.39236  0.97567  0.14193  1.0000
  H   H1873     1.0  0.36640  0.89359  0.01631  1.0000
  N   N119      1.0  0.41918  0.98066  0.11989  1.0000
  H   H1874     1.0  0.39444  0.77869  0.01049  1.0000
  H   H1875     1.0  0.42727  0.96326  0.14627  1.0000
  H   H1876     1.0  0.50638  0.97359  0.20851  1.0000
  H   H1877     1.0  0.44906  0.78163  0.99459  1.0000
  H   H1878     1.0  0.39457  0.80247  0.01556  1.0000
  S   S472      1.0  0.36933  0.84671  0.99427  1.0000
  H   H1879     1.0  0.34525  0.90758  0.03072  1.0000
  H   H1880     1.0  0.65949  0.69941  0.12331  1.0000
  H   H1881     1.0  0.38709  0.98906  0.11910  1.0000
  H   H1882     1.0  0.42011  0.82288  0.99535  1.0000
  H   H1883     1.0  0.52575  0.98626  0.19229  1.0000
  H   H1884     1.0  0.34211  0.90277  0.00948  1.0000
  H   H1885     1.0  0.33092  0.84823  0.02893  1.0000
  C   C1185     1.0  0.50910  0.98850  0.19913  1.0000
  H   H1886     1.0  0.33676  0.86134  0.05418  1.0000
  H   H1887     1.0  0.38491  0.80240  0.99566  1.0000
  H   H1888     1.0  0.33223  0.84728  0.07835  1.0000
  H   H1889     1.0  0.33387  0.94474  0.02031  1.0000
  S   S473      1.0  0.37647  0.76116  0.99000  1.0000
  C   C1186     1.0  0.39771  0.86940  0.99042  1.0000
  H   H1890     1.0  0.60886  0.66148  0.21834  1.0000
  H   H1891     1.0  0.41650  0.99261  0.09087  1.0000
  S   S474      1.0  0.33286  0.93341  0.05972  1.0000
  C   C1187     1.0  0.33144  0.83290  0.03878  1.0000
  H   H1892     1.0  0.66250  0.72561  0.11612  1.0000
  H   H1893     1.0  0.63086  0.87890  0.47785  1.0000
  H   H1894     1.0  0.64703  0.91155  0.38849  1.0000
  H   H1895     1.0  0.62586  0.84165  0.43680  1.0000
  H   H1896     1.0  0.62391  0.68099  0.32470  1.0000
  C   C1188     1.0  0.63729  0.90480  0.44320  1.0000
  S   S475      1.0  0.60562  0.97750  0.47877  1.0000
  H   H1897     1.0  0.57972  0.99010  0.39296  1.0000
  H   H1898     1.0  0.52453  0.98829  0.40651  1.0000
  H   H1899     1.0  0.44349  0.97852  0.29387  1.0000
  H   H1900     1.0  0.63661  0.82368  0.41053  1.0000
  Fe  Fe239     1.0  0.66003  0.77466  0.37980  1.0000
  H   H1901     1.0  0.62224  0.74775  0.48188  1.0000
  C   C1189     1.0  0.63501  0.83746  0.36896  1.0000
  C   C1190     1.0  0.63373  0.80031  0.44575  1.0000
  H   H1902     1.0  0.54509  0.96811  0.39911  1.0000
  H   H1903     1.0  0.65579  0.87671  0.48197  1.0000
  H   H1904     1.0  0.55857  0.98539  0.33644  1.0000
  H   H1905     1.0  0.45140  0.93302  0.27338  1.0000
  C   C1191     1.0  0.64696  0.88038  0.47072  1.0000
  C   C1192     1.0  0.46057  0.93487  0.25906  1.0000
  S   S476      1.0  0.47656  0.97319  0.31208  1.0000
  C   C1193     1.0  0.59575  0.95993  0.47284  1.0000
  H   H1906     1.0  0.65370  0.86845  0.46219  1.0000
  C   C1194     1.0  0.57762  0.93202  0.48216  1.0000
  S   S477      1.0  0.55147  0.96828  0.24583  1.0000
  H   H1907     1.0  0.34946  0.66392  0.32206  1.0000
  N   N120      1.0  0.64784  0.90115  0.45883  1.0000
  H   H1908     1.0  0.48849  0.93317  0.26746  1.0000
  H   H1909     1.0  0.57396  0.72874  0.35573  1.0000
  H   H1910     1.0  0.65145  0.84244  0.32132  1.0000
  C   C1195     1.0  0.45134  0.93781  0.24387  1.0000
  H   H1911     1.0  0.65159  0.69576  0.32783  1.0000
  C   C1196     1.0  0.63580  0.70267  0.35507  1.0000
  C   C1197     1.0  0.61815  0.70147  0.36950  1.0000
  C   C1198     1.0  0.60274  0.69277  0.36788  1.0000
  C   C1199     1.0  0.60465  0.68540  0.35174  1.0000
  C   C1200     1.0  0.62235  0.68644  0.33730  1.0000
  C   C1201     1.0  0.63796  0.69488  0.33907  1.0000
  C   C1202     1.0  0.63974  0.86826  0.34518  1.0000
  C   C1203     1.0  0.48153  0.93485  0.25573  1.0000
  Fe  Fe240     1.0  0.64740  0.73735  0.37491  1.0000
  C   C1204     1.0  0.57756  0.73591  0.34033  1.0000
  H   H1912     1.0  0.58911  0.69199  0.37914  1.0000
  H   H1913     1.0  0.59891  0.74568  0.36036  1.0000
  H   H1914     1.0  0.61644  0.70708  0.38202  1.0000
  H   H1915     1.0  0.58999  0.72478  0.33327  1.0000
  H   H1916     1.0  0.56330  0.76446  0.36203  1.0000
  S   S478      1.0  0.62859  0.73953  0.44516  1.0000
  S   S479      1.0  0.61746  0.74253  0.39582  1.0000
  C   C1205     1.0  0.64535  0.74436  0.45643  1.0000
  H   H1917     1.0  0.55080  0.82276  0.36345  1.0000
  S   S480      1.0  0.56901  0.67445  0.30250  1.0000
  S   S481      1.0  0.58008  0.96213  0.36603  1.0000
  H   H1918     1.0  0.51034  0.93915  0.32412  1.0000
  H   H1919     1.0  0.53412  0.85612  0.37235  1.0000
  H   H1920     1.0  0.65163  0.84432  0.43379  1.0000
  Fe  Fe241     1.0  0.55043  0.95769  0.27717  1.0000
  H   H1921     1.0  0.59349  0.77923  0.31331  1.0000
  S   S482      1.0  0.57779  0.94153  0.29021  1.0000
  Fe  Fe242     1.0  0.52417  0.95378  0.25269  1.0000
  H   H1922     1.0  0.60145  0.75379  0.30890  1.0000
  H   H1923     1.0  0.43753  0.98235  0.24513  1.0000
  C   C1206     1.0  0.55777  0.82871  0.37147  1.0000
  S   S483      1.0  0.52504  0.94069  0.28329  1.0000
  S   S484      1.0  0.58748  0.79402  0.37022  1.0000
  C   C1207     1.0  0.54123  0.90943  0.33636  1.0000
  S   S485      1.0  0.64410  0.77031  0.35937  1.0000
  H   H1924     1.0  0.51485  0.90315  0.37010  1.0000
  Fe  Fe243     1.0  0.61535  0.77566  0.38138  1.0000
  C   C1208     1.0  0.42426  0.99066  0.25431  1.0000
  H   H1925     1.0  0.50922  0.95579  0.33892  1.0000
  C   C1209     1.0  0.55731  0.85543  0.38675  1.0000
  H   H1926     1.0  0.49868  0.92833  0.36694  1.0000
  N   N121      1.0  0.52711  0.92524  0.34623  1.0000
  H   H1927     1.0  0.50086  0.91188  0.35146  1.0000
  H   H1928     1.0  0.63761  0.92037  0.43394  1.0000
  H   H1929     1.0  0.55742  0.97738  0.30668  1.0000
  C   C1210     1.0  0.56870  0.97193  0.33195  1.0000
  C   C1211     1.0  0.56781  0.96724  0.31519  1.0000
  C   C1212     1.0  0.58021  0.94937  0.30972  1.0000
  C   C1213     1.0  0.59429  0.93683  0.32051  1.0000
  C   C1214     1.0  0.59522  0.94153  0.33719  1.0000
  H   H1930     1.0  0.60427  0.92326  0.31612  1.0000
  H   H1931     1.0  0.60626  0.93187  0.34534  1.0000
  H   H1932     1.0  0.60694  0.76698  0.34273  1.0000
  H   H1933     1.0  0.55231  0.77225  0.34140  1.0000
  N   N122      1.0  0.63510  0.84771  0.34893  1.0000
  C   C1215     1.0  0.51946  0.94322  0.33213  1.0000
  S   S486      1.0  0.50085  0.98207  0.25807  1.0000
  H   H1934     1.0  0.33404  0.66364  0.42454  1.0000
  C   C1216     1.0  0.63757  0.91658  0.47047  1.0000
  C   C1217     1.0  0.33777  0.66980  0.40894  1.0000
  C   C1218     1.0  0.54711  0.97145  0.43327  1.0000
  C   C1219     1.0  0.58485  0.82518  0.38747  1.0000
  C   C1220     1.0  0.57596  0.81742  0.37705  1.0000
  C   C1221     1.0  0.56666  0.77005  0.34632  1.0000
  S   S487      1.0  0.64287  0.86961  0.39374  1.0000
  C   C1222     1.0  0.66210  0.87998  0.39641  1.0000
  H   H1935     1.0  0.53026  0.97461  0.43919  1.0000
  S   S488      1.0  0.59308  0.90171  0.37628  1.0000
  H   H1936     1.0  0.41277  0.98062  0.26010  1.0000
  H   H1937     1.0  0.56371  0.73777  0.33474  1.0000
  C   C1223     1.0  0.58195  0.95868  0.34328  1.0000
  H   H1938     1.0  0.64514  0.91437  0.48233  1.0000
  H   H1939     1.0  0.55174  0.95513  0.43196  1.0000
  H   H1940     1.0  0.61827  0.80740  0.44255  1.0000
  C   C1224     1.0  0.50959  0.91677  0.35926  1.0000
  H   H1941     1.0  0.57046  0.78541  0.34339  1.0000
  C   C1225     1.0  0.58523  0.94623  0.48702  1.0000
  H   H1942     1.0  0.53340  0.90438  0.32786  1.0000
  H   H1943     1.0  0.57518  0.76712  0.30996  1.0000
  C   C1226     1.0  0.54835  0.84759  0.37648  1.0000
  C   C1227     1.0  0.58866  0.76436  0.31636  1.0000
  H   H1944     1.0  0.65737  0.80157  0.41075  1.0000
  H   H1945     1.0  0.53231  0.94956  0.32162  1.0000
  H   H1946     1.0  0.55462  0.91539  0.32636  1.0000
  N   N123      1.0  0.58372  0.75567  0.33697  1.0000
  Fe  Fe244     1.0  0.50429  0.97053  0.28813  1.0000
  H   H1947     1.0  0.54732  0.89566  0.34663  1.0000
  H   H1948     1.0  0.52834  0.94399  0.36427  1.0000
  C   C1228     1.0  0.53821  0.93155  0.35716  1.0000
  C   C1229     1.0  0.60201  0.75234  0.34483  1.0000
  H   H1949     1.0  0.55191  0.93722  0.34782  1.0000
  H   H1950     1.0  0.54374  0.91851  0.36826  1.0000
  H   H1951     1.0  0.61529  0.74168  0.33803  1.0000
  Fe  Fe245     1.0  0.58452  0.93128  0.38591  1.0000
  N   N124      1.0  0.64859  0.81372  0.43583  1.0000
  Fe  Fe246     1.0  0.57919  0.91012  0.42737  1.0000
  S   S489      1.0  0.54548  0.87925  0.39255  1.0000
  S   S490      1.0  0.57120  0.91315  0.45760  1.0000
  S   S491      1.0  0.52967  0.98662  0.28414  1.0000
  S   S492      1.0  0.58701  0.87867  0.42137  1.0000
  N   N125      1.0  0.55270  0.98559  0.41484  1.0000
  H   H1952     1.0  0.59868  0.81642  0.39204  1.0000
  C   C1230     1.0  0.58083  0.93120  0.46316  1.0000
  H   H1953     1.0  0.62277  0.84601  0.37873  1.0000
  C   C1231     1.0  0.65099  0.83531  0.33658  1.0000
  C   C1232     1.0  0.59878  0.95929  0.45379  1.0000
  C   C1233     1.0  0.59159  0.94472  0.44898  1.0000
  H   H1954     1.0  0.60708  0.96980  0.44284  1.0000
  H   H1955     1.0  0.59421  0.94409  0.43434  1.0000
  C   C1234     1.0  0.65991  0.90118  0.39374  1.0000
  H   H1956     1.0  0.64472  0.89351  0.43406  1.0000
  C   C1235     1.0  0.65134  0.81648  0.41516  1.0000
  H   H1957     1.0  0.64994  0.83636  0.37248  1.0000
  H   H1958     1.0  0.63247  0.82160  0.37207  1.0000
  H   H1959     1.0  0.63200  0.79688  0.46140  1.0000
  S   S493      1.0  0.63074  0.78257  0.40073  1.0000
  H   H1960     1.0  0.42995  0.96462  0.28629  1.0000
  S   S494      1.0  0.58404  0.67596  0.35010  1.0000
  H   H1961     1.0  0.57970  0.96408  0.40515  1.0000
  Fe  Fe247     1.0  0.56737  0.89272  0.39997  1.0000
  H   H1962     1.0  0.63871  0.78540  0.44130  1.0000
  H   H1963     1.0  0.36016  0.67095  0.37361  1.0000
  H   H1964     1.0  0.63821  0.83229  0.45662  1.0000
  H   H1965     1.0  0.62823  0.87786  0.35449  1.0000
  C   C1236     1.0  0.64073  0.83388  0.44105  1.0000
  H   H1966     1.0  0.55476  0.97278  0.44399  1.0000
  Fe  Fe248     1.0  0.61200  0.89059  0.39829  1.0000
  C   C1237     1.0  0.65105  0.75273  0.48374  1.0000
  H   H1967     1.0  0.35045  0.67811  0.40568  1.0000
  S   S495      1.0  0.60581  0.92101  0.40599  1.0000
  H   H1968     1.0  0.58255  0.85026  0.40019  1.0000
  H   H1969     1.0  0.58407  0.98154  0.41670  1.0000
  Fe  Fe249     1.0  0.63593  0.74881  0.41323  1.0000
  H   H1970     1.0  0.60236  0.85891  0.35431  1.0000
  C   C1238     1.0  0.63807  0.74807  0.47478  1.0000
  C   C1239     1.0  0.54145  0.98400  0.40137  1.0000
  H   H1971     1.0  0.62089  0.90357  0.44872  1.0000
  S   S496      1.0  0.55709  0.92317  0.40807  1.0000
  H   H1972     1.0  0.45499  0.96876  0.27299  1.0000
  H   H1973     1.0  0.33390  0.67292  0.37313  1.0000
  C   C1240     1.0  0.57568  0.84432  0.39211  1.0000
  H   H1974     1.0  0.64817  0.81954  0.33933  1.0000
  H   H1975     1.0  0.61075  0.83443  0.34793  1.0000
  C   C1241     1.0  0.61472  0.84972  0.34512  1.0000
  H   H1976     1.0  0.61416  0.85741  0.33013  1.0000
  C   C1242     1.0  0.44013  0.97594  0.28120  1.0000
  S   S497      1.0  0.42469  0.94039  0.24808  1.0000
  H   H1977     1.0  0.65498  0.86723  0.34806  1.0000
  C   C1243     1.0  0.57503  0.98012  0.40713  1.0000
  H   H1978     1.0  0.66250  0.82639  0.40710  1.0000
  H   H1979     1.0  0.62124  0.91559  0.47684  1.0000
  S   S498      1.0  0.65518  0.71408  0.35650  1.0000
  C   C1244     1.0  0.34767  0.66223  0.37777  1.0000
  H   H1980     1.0  0.54922  0.66472  0.24523  1.0000
  H   H1981     1.0  0.63982  0.87659  0.33022  1.0000
  H   H1982     1.0  0.63782  0.93247  0.46194  1.0000
  N   N126      1.0  0.64760  0.69405  0.53285  1.0000
  C   C1245     1.0  0.62881  0.69122  0.54763  1.0000
  H   H1983     1.0  0.64832  0.90860  0.57611  1.0000
  H   H1984     1.0  0.43202  0.70670  0.66445  1.0000
  H   H1985     1.0  0.48530  0.95566  0.69238  1.0000
  H   H1986     1.0  0.61841  0.88285  0.57762  1.0000
  N   N127      1.0  0.43692  0.67501  0.66358  1.0000
  C   C1246     1.0  0.64987  0.85760  0.59284  1.0000
  H   H1987     1.0  0.66155  0.95562  0.59209  1.0000
  H   H1988     1.0  0.43865  0.66517  0.69302  1.0000
  H   H1989     1.0  0.61907  0.68356  0.54341  1.0000
  H   H1990     1.0  0.65161  0.71828  0.54329  1.0000
  S   S499      1.0  0.56884  0.66242  0.69682  1.0000
  N   N128      1.0  0.65048  0.87669  0.57802  1.0000
  C   C1247     1.0  0.49257  0.96543  0.69695  1.0000
  H   H1991     1.0  0.61920  0.70619  0.55043  1.0000
  H   H1992     1.0  0.48888  0.97924  0.66071  1.0000
  C   C1248     1.0  0.65805  0.83790  0.53460  1.0000
  S   S500      1.0  0.62768  0.98284  0.71706  1.0000
  Fe  Fe250     1.0  0.62208  0.96222  0.50253  1.0000
  H   H1993     1.0  0.65130  0.68119  0.60225  1.0000
  Fe  Fe251     1.0  0.58300  0.97017  0.68151  1.0000
  C   C1249     1.0  0.61780  0.94317  0.59036  1.0000
  C   C1250     1.0  0.61735  0.94475  0.62239  1.0000
  H   H1994     1.0  0.41231  0.69365  0.67981  1.0000
  S   S501      1.0  0.66245  0.71878  0.57991  1.0000
  C   C1251     1.0  0.62137  0.72372  0.58070  1.0000
  H   H1995     1.0  0.45758  0.98642  0.68559  1.0000
  C   C1252     1.0  0.63888  0.71088  0.58653  1.0000
  H   H1996     1.0  0.62736  0.69228  0.66509  1.0000
  H   H1997     1.0  0.56926  0.92160  0.49318  1.0000
  H   H1998     1.0  0.51611  0.96808  0.72163  1.0000
  S   S502      1.0  0.64822  0.95515  0.63183  1.0000
  H   H1999     1.0  0.46113  0.68823  0.64315  1.0000
  H   H2000     1.0  0.44278  0.68293  0.63307  1.0000
  C   C1253     1.0  0.54828  0.95439  0.71810  1.0000
  H   H2001     1.0  0.58927  0.72684  0.58160  1.0000
  C   C1254     1.0  0.61313  0.70416  0.66789  1.0000
  C   C1255     1.0  0.59752  0.69308  0.64851  1.0000
  C   C1256     1.0  0.60168  0.69717  0.59738  1.0000
  H   H2002     1.0  0.63096  0.70918  0.63072  1.0000
  S   S503      1.0  0.65663  0.93307  0.53789  1.0000
  C   C1257     1.0  0.58356  0.72614  0.65641  1.0000
  S   S504      1.0  0.54793  0.67074  0.65357  1.0000
  H   H2003     1.0  0.61756  0.71716  0.67067  1.0000
  H   H2004     1.0  0.60306  0.69730  0.68119  1.0000
  N   N129      1.0  0.60266  0.71093  0.65184  1.0000
  C   C1258     1.0  0.64773  0.89404  0.58692  1.0000
  H   H2005     1.0  0.57284  0.71944  0.66928  1.0000
  H   H2006     1.0  0.58909  0.69763  0.63684  1.0000
  C   C1259     1.0  0.60282  0.71685  0.58612  1.0000
  H   H2007     1.0  0.58678  0.73983  0.65914  1.0000
  H   H2008     1.0  0.57531  0.73152  0.64456  1.0000
  C   C1260     1.0  0.66034  0.70348  0.53949  1.0000
  H   H2009     1.0  0.60898  0.72521  0.62213  1.0000
  H   H2010     1.0  0.62045  0.73391  0.63641  1.0000
  C   C1261     1.0  0.63774  0.69121  0.59779  1.0000
  C   C1262     1.0  0.61920  0.68435  0.60319  1.0000
  C   C1263     1.0  0.33225  0.66853  0.58099  1.0000
  S   S505      1.0  0.57820  0.68908  0.60386  1.0000
  C   C1264     1.0  0.61635  0.72023  0.63456  1.0000
  H   H2011     1.0  0.58755  0.68543  0.66135  1.0000
  H   H2012     1.0  0.61160  0.68146  0.64460  1.0000
  S   S506      1.0  0.64672  0.76252  0.53598  1.0000
  H   H2013     1.0  0.36415  0.67061  0.57211  1.0000
  H   H2014     1.0  0.65993  0.89163  0.59482  1.0000
  S   S507      1.0  0.65618  0.95258  0.49311  1.0000
  H   H2015     1.0  0.63214  0.70109  0.50986  1.0000
  Fe  Fe252     1.0  0.64976  0.79189  0.54120  1.0000
  C   C1265     1.0  0.49603  0.98844  0.66608  1.0000
  S   S508      1.0  0.60568  0.93894  0.57448  1.0000
  S   S509      1.0  0.62498  0.82009  0.54283  1.0000
  H   H2016     1.0  0.52682  0.66328  0.70453  1.0000
  H   H2017     1.0  0.60968  0.94323  0.63718  1.0000
  H   H2018     1.0  0.57237  0.66471  0.73277  1.0000
  H   H2019     1.0  0.50941  0.95891  0.69451  1.0000
  H   H2020     1.0  0.64448  0.95075  0.56930  1.0000
  C   C1266     1.0  0.35293  0.66260  0.58236  1.0000
  H   H2021     1.0  0.45813  0.67881  0.67802  1.0000
  C   C1267     1.0  0.60803  0.94116  0.60954  1.0000
  S   S510      1.0  0.62388  0.97615  0.52558  1.0000
  S   S511      1.0  0.61767  0.93184  0.52177  1.0000
  Fe  Fe253     1.0  0.65194  0.92326  0.51390  1.0000
  H   H2022     1.0  0.61016  0.86306  0.52841  1.0000
  C   C1268     1.0  0.62636  0.86061  0.52809  1.0000
  H   H2023     1.0  0.65197  0.84416  0.58658  1.0000
  H   H2024     1.0  0.62835  0.89187  0.51458  1.0000
  C   C1269     1.0  0.63666  0.87692  0.52031  1.0000
  C   C1270     1.0  0.63715  0.84098  0.53495  1.0000
  Fe  Fe254     1.0  0.62275  0.94475  0.54405  1.0000
  S   S512      1.0  0.55269  0.96083  0.69328  1.0000
  C   C1271     1.0  0.42315  0.69498  0.66570  1.0000
  C   C1272     1.0  0.64665  0.95149  0.59704  1.0000
  H   H2025     1.0  0.58261  0.94685  0.50173  1.0000
  C   C1273     1.0  0.63668  0.94987  0.61614  1.0000
  H   H2026     1.0  0.62207  0.73898  0.57215  1.0000
  C   C1274     1.0  0.65782  0.87348  0.51906  1.0000
  H   H2027     1.0  0.60850  0.98649  0.58264  1.0000
  H   H2028     1.0  0.63412  0.89453  0.55630  1.0000
  C   C1275     1.0  0.63703  0.94857  0.58410  1.0000
  S   S513      1.0  0.61446  0.95263  0.68540  1.0000
  H   H2029     1.0  0.57967  0.93971  0.71940  1.0000
  Fe  Fe255     1.0  0.62477  0.96845  0.65501  1.0000
  C   C1276     1.0  0.45116  0.67736  0.64481  1.0000
  S   S514      1.0  0.59305  0.98328  0.65054  1.0000
  H   H2030     1.0  0.61856  0.66904  0.61159  1.0000
  C   C1277     1.0  0.52848  0.95991  0.72864  1.0000
  H   H2031     1.0  0.63253  0.68174  0.56133  1.0000
  H   H2032     1.0  0.59315  0.93700  0.61447  1.0000
  H   H2033     1.0  0.66230  0.85429  0.60071  1.0000
  H   H2034     1.0  0.46152  0.66247  0.64276  1.0000
  H   H2035     1.0  0.64525  0.75604  0.49770  1.0000
  H   H2036     1.0  0.51298  0.98265  0.66272  1.0000
  H   H2037     1.0  0.63494  0.85865  0.60332  1.0000
  N   N130      1.0  0.48814  0.98707  0.68667  1.0000
  C   C1278     1.0  0.65943  0.67394  0.52898  1.0000
  C   C1279     1.0  0.63381  0.88052  0.56792  1.0000
  H   H2038     1.0  0.65034  0.66644  0.52379  1.0000
  C   C1280     1.0  0.44883  0.66773  0.67862  1.0000
  H   H2039     1.0  0.41532  0.66498  0.65407  1.0000
  Fe  Fe256     1.0  0.65773  0.96350  0.51794  1.0000
  C   C1281     1.0  0.64186  0.70760  0.51530  1.0000
  H   H2040     1.0  0.59440  0.98687  0.60649  1.0000
  H   H2041     1.0  0.63510  0.86743  0.56151  1.0000
  H   H2042     1.0  0.48664  0.96392  0.71255  1.0000
  H   H2043     1.0  0.41383  0.70089  0.65465  1.0000
  Fe  Fe257     1.0  0.61698  0.98148  0.69194  1.0000
  H   H2044     1.0  0.63258  0.89639  0.59700  1.0000
  C   C1282     1.0  0.56428  0.94409  0.72749  1.0000
  H   H2045     1.0  0.63303  0.72297  0.51773  1.0000
  H   H2046     1.0  0.65568  0.71006  0.50380  1.0000
  H   H2047     1.0  0.50034  0.66461  0.70545  1.0000
  Fe  Fe258     1.0  0.57290  0.66261  0.62888  1.0000
  C   C1283     1.0  0.58773  0.66033  0.72457  1.0000
  C   C1284     1.0  0.42914  0.70891  0.88239  1.0000
  S   S515      1.0  0.44589  0.98506  0.80155  1.0000
  N   N131      1.0  0.42917  0.70243  0.86522  1.0000
  S   S516      1.0  0.35536  0.69556  0.86947  1.0000
  H   H2048     1.0  0.34503  0.85539  0.84126  1.0000
  H   H2049     1.0  0.40499  0.72741  0.85690  1.0000
  H   H2050     1.0  0.56946  0.95755  0.79941  1.0000
  C   C1285     1.0  0.56018  0.93879  0.74743  1.0000
  S   S517      1.0  0.36831  0.72520  0.89936  1.0000
  H   H2051     1.0  0.59421  0.95384  0.78343  1.0000
  C   C1286     1.0  0.40813  0.67964  0.82040  1.0000
  C   C1287     1.0  0.40047  0.70011  0.82191  1.0000
  C   C1288     1.0  0.38401  0.70519  0.83673  1.0000
  C   C1289     1.0  0.37506  0.68979  0.85006  1.0000
  H   H2052     1.0  0.65426  0.68878  0.82216  1.0000
  H   H2053     1.0  0.38263  0.91219  0.98390  1.0000
  H   H2054     1.0  0.40742  0.71208  0.81164  1.0000
  H   H2055     1.0  0.59905  0.97578  0.75123  1.0000
  C   C1290     1.0  0.66229  0.67315  0.82645  1.0000
  H   H2056     1.0  0.43024  0.73271  0.84787  1.0000
  H   H2057     1.0  0.42092  0.67378  0.88133  1.0000
  C   C1291     1.0  0.62549  0.69523  0.90058  1.0000
  H   H2058     1.0  0.42205  0.71641  0.83783  1.0000
  Fe  Fe259     1.0  0.33875  0.74388  0.91237  1.0000
  Fe  Fe260     1.0  0.35165  0.72574  0.87745  1.0000
  H   H2059     1.0  0.37825  0.72101  0.83780  1.0000
  C   C1292     1.0  0.42128  0.72050  0.85132  1.0000
  C   C1293     1.0  0.41591  0.68732  0.87037  1.0000
  C   C1294     1.0  0.33496  0.73925  0.97639  1.0000
  C   C1295     1.0  0.36862  0.92456  0.98494  1.0000
  H   H2060     1.0  0.54476  0.98981  0.82483  1.0000
  S   S518      1.0  0.47697  0.94675  0.78387  1.0000
  C   C1296     1.0  0.64972  0.67103  0.88325  1.0000
  S   S519      1.0  0.43754  0.92832  0.82632  1.0000
  H   H2061     1.0  0.57253  0.94876  0.77837  1.0000
  Fe  Fe261     1.0  0.38584  0.88294  0.92482  1.0000
  S   S520      1.0  0.40558  0.85941  0.94313  1.0000
  S   S521      1.0  0.39538  0.91341  0.91337  1.0000
  Fe  Fe262     1.0  0.35730  0.85458  0.93021  1.0000
  S   S522      1.0  0.37451  0.82881  0.94899  1.0000
  Fe  Fe263     1.0  0.37582  0.85327  0.96248  1.0000
  Fe  Fe264     1.0  0.40235  0.83733  0.92797  1.0000
  S   S523      1.0  0.42985  0.81476  0.91718  1.0000
  S   S524      1.0  0.35609  0.87858  0.94555  1.0000
  S   S525      1.0  0.38519  0.86119  0.90781  1.0000
  S   S526      1.0  0.40668  0.76161  0.87312  1.0000
  H   H2062     1.0  0.35780  0.92113  0.97825  1.0000
  H   H2063     1.0  0.40613  0.90670  0.84798  1.0000
  Fe  Fe265     1.0  0.37481  0.75538  0.88138  1.0000
  S   S527      1.0  0.48396  0.95570  0.82234  1.0000
  H   H2064     1.0  0.45041  0.89407  0.86343  1.0000
  C   C1297     1.0  0.58221  0.98192  0.75328  1.0000
  H   H2065     1.0  0.41786  0.76790  0.98144  1.0000
  H   H2066     1.0  0.43252  0.88170  0.89626  1.0000
  H   H2067     1.0  0.43909  0.85524  0.90767  1.0000
  H   H2068     1.0  0.46796  0.87659  0.84993  1.0000
  H   H2069     1.0  0.65298  0.68307  0.92315  1.0000
  H   H2070     1.0  0.41338  0.71608  0.88910  1.0000
  S   S528      1.0  0.43008  0.67383  0.80284  1.0000
  C   C1298     1.0  0.42300  0.79978  0.90546  1.0000
  C   C1299     1.0  0.43822  0.78938  0.89283  1.0000
  C   C1300     1.0  0.43297  0.77777  0.88297  1.0000
  C   C1301     1.0  0.41255  0.77612  0.88600  1.0000
  C   C1302     1.0  0.39732  0.78629  0.89884  1.0000
  C   C1303     1.0  0.40250  0.79837  0.90836  1.0000
  H   H2071     1.0  0.45407  0.79042  0.89054  1.0000
  H   H2072     1.0  0.44480  0.76995  0.87305  1.0000
  H   H2073     1.0  0.38160  0.78486  0.90151  1.0000
  H   H2074     1.0  0.39067  0.80623  0.91820  1.0000
  H   H2075     1.0  0.39676  0.87479  0.97573  1.0000
  H   H2076     1.0  0.38147  0.76484  0.95023  1.0000
  C   C1304     1.0  0.42383  0.92701  0.84989  1.0000
  C   C1305     1.0  0.42821  0.93676  0.86187  1.0000
  C   C1306     1.0  0.41883  0.93310  0.88130  1.0000
  C   C1307     1.0  0.40521  0.91961  0.88876  1.0000
  C   C1308     1.0  0.40039  0.91041  0.87664  1.0000
  C   C1309     1.0  0.40966  0.91412  0.85727  1.0000
  H   H2077     1.0  0.36782  0.84041  0.88384  1.0000
  H   H2078     1.0  0.42254  0.94034  0.89062  1.0000
  H   H2079     1.0  0.38949  0.90048  0.88217  1.0000
  N   N132      1.0  0.45377  0.86250  0.87820  1.0000
  C   C1310     1.0  0.43729  0.85848  0.87158  1.0000
  C   C1311     1.0  0.47023  0.84388  0.87988  1.0000
  C   C1312     1.0  0.44530  0.86796  0.89690  1.0000
  C   C1313     1.0  0.54023  0.94440  0.75793  1.0000
  H   H2080     1.0  0.36221  0.75513  0.93189  1.0000
  H   H2081     1.0  0.44305  0.85456  0.85740  1.0000
  H   H2082     1.0  0.45681  0.67932  0.86680  1.0000
  H   H2083     1.0  0.39960  0.69412  0.87610  1.0000
  C   C1314     1.0  0.33527  0.84840  0.85466  1.0000
  H   H2084     1.0  0.43506  0.69575  0.89321  1.0000
  N   N133      1.0  0.57255  0.98076  0.77357  1.0000
  C   C1315     1.0  0.33402  0.82722  0.88613  1.0000
  H   H2085     1.0  0.42451  0.87211  0.87036  1.0000
  H   H2086     1.0  0.35522  0.80910  0.85725  1.0000
  H   H2087     1.0  0.49450  0.66211  0.74030  1.0000
  H   H2088     1.0  0.43642  0.81545  0.97414  1.0000
  C   C1316     1.0  0.65989  0.70054  0.88615  1.0000
  H   H2089     1.0  0.36870  0.85652  0.86043  1.0000
  C   C1317     1.0  0.36277  0.75377  0.97740  1.0000
  S   S529      1.0  0.34668  0.77410  0.89633  1.0000
  S   S530      1.0  0.36058  0.75458  0.85825  1.0000
  H   H2090     1.0  0.37326  0.93908  0.97621  1.0000
  H   H2091     1.0  0.54208  0.98533  0.79107  1.0000
  C   C1318     1.0  0.36289  0.81936  0.86081  1.0000
  C   C1319     1.0  0.36851  0.75766  0.95757  1.0000
  C   C1320     1.0  0.34070  0.74311  0.95657  1.0000
  C   C1321     1.0  0.46225  0.87965  0.86446  1.0000
  H   H2092     1.0  0.34721  0.86186  0.87956  1.0000
  H   H2093     1.0  0.65872  0.71118  0.89529  1.0000
  Fe  Fe266     1.0  0.45780  0.95143  0.81232  1.0000
  H   H2094     1.0  0.47513  0.88275  0.86867  1.0000
  H   H2095     1.0  0.45716  0.87153  0.90220  1.0000
  H   H2096     1.0  0.62315  0.70584  0.91009  1.0000
  H   H2097     1.0  0.47701  0.83940  0.86599  1.0000
  H   H2098     1.0  0.46426  0.83062  0.89006  1.0000
  H   H2099     1.0  0.48284  0.84626  0.88505  1.0000
  H   H2100     1.0  0.43918  0.94668  0.85627  1.0000
  H   H2101     1.0  0.57603  0.97268  0.74702  1.0000
  H   H2102     1.0  0.43067  0.84552  0.88158  1.0000
  C   C1322     1.0  0.35760  0.75219  0.94717  1.0000
  H   H2103     1.0  0.43513  0.78395  0.96611  1.0000
  C   C1323     1.0  0.57742  0.95931  0.78419  1.0000
  H   H2104     1.0  0.61997  0.70442  0.88757  1.0000
  H   H2105     1.0  0.59763  0.98942  0.77901  1.0000
  H   H2106     1.0  0.37239  0.80962  0.87109  1.0000
  C   C1324     1.0  0.45034  0.69303  0.85673  1.0000
  Fe  Fe267     1.0  0.50200  0.95398  0.79276  1.0000
  H   H2107     1.0  0.40928  0.82446  0.97579  1.0000
  S   S531      1.0  0.49389  0.98765  0.78107  1.0000
  C   C1325     1.0  0.34601  0.74452  0.98681  1.0000
  H   H2108     1.0  0.57243  0.93033  0.75464  1.0000
  N   N134      1.0  0.64729  0.68493  0.89588  1.0000
  H   H2109     1.0  0.54368  0.97917  0.76914  1.0000
  C   C1326     1.0  0.35836  0.84932  0.87325  1.0000
  H   H2110     1.0  0.37353  0.82545  0.84763  1.0000
  C   C1327     1.0  0.39895  0.66423  0.83350  1.0000
  C   C1328     1.0  0.38239  0.66932  0.84831  1.0000
  Fe  Fe268     1.0  0.47339  0.98909  0.80949  1.0000
  N   N135      1.0  0.34767  0.83609  0.86868  1.0000
  S   S532      1.0  0.53490  0.93903  0.78286  1.0000
  H   H2111     1.0  0.50974  0.98629  0.82542  1.0000
  H   H2112     1.0  0.43870  0.72062  0.87898  1.0000
  C   C1329     1.0  0.65406  0.67300  0.91350  1.0000
  H   H2113     1.0  0.64502  0.67959  0.86969  1.0000
  H   H2114     1.0  0.61551  0.68391  0.90791  1.0000
  C   C1330     1.0  0.41988  0.78406  0.97603  1.0000
  H   H2115     1.0  0.50917  0.95977  0.75617  1.0000
  H   H2116     1.0  0.41617  0.68160  0.85784  1.0000
  H   H2117     1.0  0.65537  0.70980  0.87270  1.0000
  H   H2118     1.0  0.45084  0.68798  0.84372  1.0000
  H   H2119     1.0  0.34266  0.81873  0.89741  1.0000
  C   C1331     1.0  0.42112  0.81512  0.98389  1.0000
  H   H2120     1.0  0.46072  0.70407  0.85260  1.0000
  C   C1332     1.0  0.52453  0.95518  0.74841  1.0000
  H   H2121     1.0  0.40797  0.79213  0.96756  1.0000
  C   C1333     1.0  0.55005  0.98778  0.77586  1.0000
  Fe  Fe269     1.0  0.46762  0.98067  0.77400  1.0000
  Fe  Fe270     1.0  0.33163  0.77104  0.87472  1.0000
  H   H2122     1.0  0.57410  0.99285  0.79639  1.0000
  H   H2123     1.0  0.41866  0.88848  0.98826  1.0000
  H   H2124     1.0  0.64476  0.66123  0.92140  1.0000
  S   S533      1.0  0.33049  0.84766  0.92377  1.0000
  H   H2125     1.0  0.33047  0.89099  0.91652  1.0000
  Fe  Fe271     1.0  0.78286  0.16936  0.04498  1.0000
  S   S534      1.0  0.74971  0.23986  0.05446  1.0000
  C   C1334     1.0  0.83049  0.15747  0.17613  1.0000
  Fe  Fe272     1.0  0.77522  0.16509  0.08736  1.0000
  S   S535      1.0  0.77014  0.14635  0.06970  1.0000
  S   S536      1.0  0.78738  0.14751  0.11362  1.0000
  Fe  Fe273     1.0  0.74012  0.16844  0.06873  1.0000
  S   S537      1.0  0.71146  0.15709  0.07247  1.0000
  S   S538      1.0  0.74354  0.18525  0.08888  1.0000
  Fe  Fe274     1.0  0.94047  0.08772  0.14036  1.0000
  S   S539      1.0  0.91258  0.11222  0.14695  1.0000
  S   S540      1.0  0.97395  0.08912  0.13039  1.0000
  Fe  Fe275     1.0  0.91571  0.05523  0.14714  1.0000
  S   S541      1.0  0.88538  0.07660  0.15409  1.0000
  H   H2126     1.0  0.71056  0.14090  0.99099  1.0000
  Fe  Fe276     1.0  0.89878  0.09985  0.12971  1.0000
  S   S542      1.0  0.88358  0.12277  0.10721  1.0000
  Fe  Fe277     1.0  0.90110  0.08747  0.17084  1.0000
  S   S543      1.0  0.92363  0.02082  0.15171  1.0000
  S   S544      1.0  0.92771  0.07736  0.12105  1.0000
  S   S545      1.0  0.93027  0.06428  0.16593  1.0000
  H   H2127     1.0  0.81893  0.09308  0.05285  1.0000
  H   H2128     1.0  0.86036  0.16652  0.14505  1.0000
  H   H2129     1.0  0.87576  0.02987  0.18532  1.0000
  C   C1335     1.0  0.71290  0.26684  0.05321  1.0000
  H   H2130     1.0  0.75132  0.18873  0.99959  1.0000
  C   C1336     1.0  0.81407  0.14103  0.11205  1.0000
  C   C1337     1.0  0.82221  0.12512  0.12589  1.0000
  C   C1338     1.0  0.84356  0.11921  0.12456  1.0000
  C   C1339     1.0  0.85679  0.12943  0.10953  1.0000
  C   C1340     1.0  0.84861  0.14551  0.09589  1.0000
  C   C1341     1.0  0.82733  0.15125  0.09709  1.0000
  H   H2131     1.0  0.81198  0.11709  0.13744  1.0000
  H   H2132     1.0  0.84977  0.10665  0.13502  1.0000
  H   H2133     1.0  0.85880  0.15359  0.08433  1.0000
  H   H2134     1.0  0.82118  0.16371  0.08653  1.0000
  H   H2135     1.0  0.98632  0.04392  0.14889  1.0000
  C   C1342     1.0  0.68543  0.16576  0.02068  1.0000
  C   C1343     1.0  0.67737  0.15405  0.03817  1.0000
  C   C1344     1.0  0.68599  0.15087  0.05379  1.0000
  C   C1345     1.0  0.70292  0.15916  0.05196  1.0000
  C   C1346     1.0  0.71175  0.16990  0.03417  1.0000
  C   C1347     1.0  0.70304  0.17318  0.01851  1.0000
  H   H2136     1.0  0.68858  0.09398  0.00757  1.0000
  H   H2137     1.0  0.67931  0.14220  0.06742  1.0000
  H   H2138     1.0  0.72506  0.17592  0.03249  1.0000
  H   H2139     1.0  0.83263  0.17347  0.17334  1.0000
  C   C1348     1.0  0.97468  0.10031  0.16262  1.0000
  H   H2140     1.0  0.68765  0.24515  0.10524  1.0000
  H   H2141     1.0  0.95830  0.10094  0.16681  1.0000
  C   C1349     1.0  0.89221  0.00734  0.11981  1.0000
  C   C1350     1.0  0.89940  0.01833  0.12898  1.0000
  C   C1351     1.0  0.91467  0.00822  0.13922  1.0000
  H   H2142     1.0  0.96243  0.02840  0.11789  1.0000
  H   H2143     1.0  0.69699  0.20976  0.04884  1.0000
  H   H2144     1.0  0.88024  0.01508  0.11205  1.0000
  H   H2145     1.0  0.89297  0.03448  0.12828  1.0000
  H   H2146     1.0  0.97670  0.04866  0.11069  1.0000
  N   N136      1.0  0.66785  0.21604  0.06814  1.0000
  H   H2147     1.0  0.87366  0.04860  0.19873  1.0000
  H   H2148     1.0  0.86875  0.15905  0.17664  1.0000
  N   N137      1.0  0.84981  0.14367  0.16920  1.0000
  C   C1352     1.0  0.75986  0.14425  0.00339  1.0000
  H   H2149     1.0  0.86048  0.11197  0.16801  1.0000
  H   H2150     1.0  0.86106  0.13762  0.19466  1.0000
  H   H2151     1.0  0.70960  0.18184  0.00489  1.0000
  S   S546      1.0  0.75246  0.19015  0.04262  1.0000
  H   H2152     1.0  0.72429  0.11566  0.99941  1.0000
  C   C1353     1.0  0.70889  0.12473  0.99722  1.0000
  H   H2153     1.0  0.72370  0.22994  0.09172  1.0000
  H   H2154     1.0  0.88044  0.13326  0.17413  1.0000
  H   H2155     1.0  0.66702  0.19631  0.05083  1.0000
  N   N138      1.0  0.98707  0.02307  0.13207  1.0000
  S   S547      1.0  0.80443  0.15874  0.01960  1.0000
  C   C1354     1.0  0.77077  0.14899  0.01429  1.0000
  H   H2156     1.0  0.97016  0.99891  0.14397  1.0000
  H   H2157     1.0  0.68368  0.28767  0.05194  1.0000
  C   C1355     1.0  0.97061  0.03697  0.12295  1.0000
  H   H2158     1.0  0.80463  0.11902  0.05117  1.0000
  H   H2159     1.0  0.74398  0.14303  0.00915  1.0000
  H   H2160     1.0  0.97589  0.10991  0.18720  1.0000
  H   H2161     1.0  0.99510  0.00251  0.11318  1.0000
  C   C1356     1.0  0.79117  0.15105  0.00679  1.0000
  H   H2162     1.0  0.81817  0.15785  0.16903  1.0000
  H   H2163     1.0  0.76328  0.15119  0.02845  1.0000
  N   N139      1.0  0.83309  0.11329  0.05992  1.0000
  C   C1357     1.0  0.85388  0.10026  0.05641  1.0000
  C   C1358     1.0  0.82040  0.10940  0.04888  1.0000
  C   C1359     1.0  0.83461  0.13510  0.05402  1.0000
  C   C1360     1.0  0.82355  0.10843  0.08037  1.0000
  H   H2164     1.0  0.85333  0.08367  0.06075  1.0000
  H   H2165     1.0  0.86387  0.10286  0.06454  1.0000
  H   H2166     1.0  0.86155  0.10355  0.04112  1.0000
  C   C1361     1.0  0.98467  0.10536  0.17414  1.0000
  H   H2167     1.0  0.82700  0.11321  0.03336  1.0000
  H   H2168     1.0  0.81927  0.14536  0.05708  1.0000
  H   H2169     1.0  0.84094  0.13956  0.03850  1.0000
  H   H2170     1.0  0.84470  0.13848  0.06151  1.0000
  H   H2171     1.0  0.82144  0.09230  0.08521  1.0000
  H   H2172     1.0  0.80817  0.11857  0.08376  1.0000
  H   H2173     1.0  0.83317  0.11048  0.08911  1.0000
  H   H2174     1.0  0.83429  0.12219  0.16596  1.0000
  H   H2175     1.0  0.69753  0.19947  0.07337  1.0000
  H   H2176     1.0  0.84499  0.15186  0.14072  1.0000
  H   H2177     1.0  0.90363  0.01304  0.23310  1.0000
  S   S548      1.0  0.79044  0.18669  0.06248  1.0000
  Fe  Fe278     1.0  0.75833  0.20543  0.06260  1.0000
  C   C1362     1.0  0.97809  0.00822  0.14846  1.0000
  H   H2178     1.0  0.72000  0.27303  0.03873  1.0000
  C   C1363     1.0  0.86566  0.14348  0.17906  1.0000
  H   H2179     1.0  0.89780  0.03935  0.18415  1.0000
  C   C1364     1.0  0.84620  0.12269  0.17311  1.0000
  H   H2180     1.0  0.86157  0.00643  0.21482  1.0000
  C   C1365     1.0  0.86986  0.01210  0.22246  1.0000
  C   C1366     1.0  0.69462  0.25116  0.09067  1.0000
  H   H2181     1.0  0.82479  0.15239  0.19169  1.0000
  C   C1367     1.0  0.89947  0.02522  0.22077  1.0000
  C   C1368     1.0  0.98589  0.09482  0.14557  1.0000
  C   C1369     1.0  0.71498  0.24248  0.08302  1.0000
  C   C1370     1.0  0.85684  0.15099  0.14854  1.0000
  C   C1371     1.0  0.72419  0.25036  0.06428  1.0000
  H   H2182     1.0  0.91380  0.03004  0.21173  1.0000
  C   C1372     1.0  0.90972  0.12271  0.23117  1.0000
  H   H2183     1.0  0.84122  0.11651  0.18859  1.0000
  H   H2184     1.0  0.91414  0.11593  0.18682  1.0000
  C   C1373     1.0  0.69235  0.27516  0.06069  1.0000
  H   H2185     1.0  0.69575  0.22640  0.06381  1.0000
  H   H2186     1.0  0.66963  0.12945  0.99615  1.0000
  H   H2187     1.0  0.88954  0.03868  0.22649  1.0000
  H   H2188     1.0  0.96649  0.01611  0.15910  1.0000
  H   H2189     1.0  0.95901  0.04535  0.13317  1.0000
  C   C1374     1.0  0.91616  0.12487  0.21145  1.0000
  H   H2190     1.0  0.99011  0.99730  0.15561  1.0000
  H   H2191     1.0  0.87100  0.14053  0.14265  1.0000
  H   H2192     1.0  0.71456  0.08541  0.99560  1.0000
  N   N140      1.0  0.88889  0.01804  0.20998  1.0000
  C   C1375     1.0  0.68322  0.26738  0.07947  1.0000
  H   H2193     1.0  0.92690  0.13465  0.20352  1.0000
  C   C1376     1.0  0.74714  0.20545  0.99350  1.0000
  H   H2194     1.0  0.69831  0.12441  0.01139  1.0000
  C   C1377     1.0  0.90249  0.00014  0.20277  1.0000
  C   C1378     1.0  0.90892  0.11430  0.20199  1.0000
  H   H2195     1.0  0.87326  0.99954  0.23476  1.0000
  H   H2196     1.0  0.91705  0.00404  0.19333  1.0000
  C   C1379     1.0  0.88371  0.03472  0.19386  1.0000
  S   S549      1.0  0.88388  0.09014  0.20041  1.0000
  C   C1380     1.0  0.89466  0.10203  0.21215  1.0000
  C   C1381     1.0  0.66834  0.31854  0.10175  1.0000
  H   H2197     1.0  0.85927  0.02520  0.22826  1.0000
  C   C1382     1.0  0.88819  0.09989  0.23185  1.0000
  H   H2198     1.0  0.66793  0.18381  0.07501  1.0000
  H   H2199     1.0  0.73059  0.21072  0.99964  1.0000
  C   C1383     1.0  0.69050  0.21280  0.06330  1.0000
  H   H2200     1.0  0.75610  0.21318  0.99861  1.0000
  H   H2201     1.0  0.66493  0.23410  0.04037  1.0000
  C   C1384     1.0  0.69941  0.09526  0.99347  1.0000
  S   S550      1.0  0.67290  0.17189  0.00188  1.0000
  H   H2202     1.0  0.98253  0.17754  0.13853  1.0000
  H   H2203     1.0  0.66679  0.20422  0.09793  1.0000
  H   H2204     1.0  0.66461  0.14722  0.03969  1.0000
  H   H2205     1.0  0.99482  0.18693  0.11442  1.0000
  H   H2206     1.0  0.89498  0.99450  0.19440  1.0000
  H   H2207     1.0  0.66623  0.31769  0.08785  1.0000
  H   H2208     1.0  0.66414  0.23155  0.09035  1.0000
  H   H2209     1.0  0.67225  0.30241  0.10976  1.0000
  H   H2210     1.0  0.68186  0.32559  0.09890  1.0000
  C   C1385     1.0  0.99688  0.18222  0.12929  1.0000
  H   H2211     1.0  0.89495  0.24189  0.42285  1.0000
  S   S551      1.0  0.87094  0.01896  0.26848  1.0000
  Fe  Fe279     1.0  0.91456  0.08589  0.30534  1.0000
  S   S552      1.0  0.89290  0.11570  0.29725  1.0000
  S   S553      1.0  0.90912  0.05379  0.31719  1.0000
  Fe  Fe280     1.0  0.95093  0.10595  0.29780  1.0000
  S   S554      1.0  0.93279  0.13781  0.28920  1.0000
  S   S555      1.0  0.98403  0.09324  0.29965  1.0000
  Fe  Fe281     1.0  0.90764  0.12808  0.31381  1.0000
  S   S556      1.0  0.88820  0.14390  0.33740  1.0000
  Fe  Fe282     1.0  0.91944  0.12315  0.27323  1.0000
  C   C1386     1.0  0.86657  0.31343  0.42821  1.0000
  S   S557      1.0  0.92713  0.09754  0.32378  1.0000
  S   S558      1.0  0.93969  0.09222  0.27991  1.0000
  C   C1387     1.0  0.80841  0.22898  0.33397  1.0000
  C   C1388     1.0  0.94399  0.13001  0.34474  1.0000
  S   S559      1.0  0.89558  0.23022  0.34489  1.0000
  C   C1389     1.0  0.84978  0.24793  0.48626  1.0000
  H   H2212     1.0  0.95879  0.17059  0.35033  1.0000
  C   C1390     1.0  0.89422  0.20586  0.34312  1.0000
  H   H2213     1.0  0.94650  0.02277  0.30515  1.0000
  H   H2214     1.0  0.85326  0.00256  0.30845  1.0000
  C   C1391     1.0  0.84086  0.20539  0.32726  1.0000
  C   C1392     1.0  0.84927  0.24456  0.45500  1.0000
  H   H2215     1.0  0.89087  0.10823  0.25660  1.0000
  C   C1393     1.0  0.88138  0.17440  0.35607  1.0000
  C   C1394     1.0  0.89118  0.16758  0.33927  1.0000
  C   C1395     1.0  0.90277  0.17980  0.32445  1.0000
  C   C1396     1.0  0.90426  0.19893  0.32639  1.0000
  H   H2216     1.0  0.87251  0.16491  0.36763  1.0000
  H   H2217     1.0  0.91033  0.17467  0.31142  1.0000
  H   H2218     1.0  0.91302  0.20850  0.31481  1.0000
  H   H2219     1.0  0.95637  0.12644  0.33239  1.0000
  C   C1397     1.0  0.93343  0.14514  0.37210  1.0000
  C   C1398     1.0  0.90913  0.23926  0.42817  1.0000
  N   N141      1.0  0.82852  0.22002  0.33922  1.0000
  H   H2220     1.0  0.97904  0.13693  0.29637  1.0000
  H   H2221     1.0  0.83039  0.24822  0.34466  1.0000
  H   H2222     1.0  0.85636  0.19890  0.33048  1.0000
  C   C1399     1.0  0.88292  0.02835  0.28115  1.0000
  C   C1400     1.0  0.88219  0.04944  0.27737  1.0000
  C   C1401     1.0  0.89067  0.05738  0.28806  1.0000
  C   C1402     1.0  0.89950  0.04423  0.30283  1.0000
  C   C1403     1.0  0.90038  0.02311  0.30651  1.0000
  C   C1404     1.0  0.89233  0.01514  0.29553  1.0000
  H   H2223     1.0  0.87501  0.05970  0.26619  1.0000
  H   H2224     1.0  0.89006  0.07369  0.28510  1.0000
  H   H2225     1.0  0.90738  0.01289  0.31782  1.0000
  H   H2226     1.0  0.93013  0.13879  0.33916  1.0000
  H   H2227     1.0  0.80081  0.99666  0.33545  1.0000
  C   C1405     1.0  0.96392  0.04536  0.31798  1.0000
  H   H2228     1.0  0.93041  0.13039  0.38178  1.0000
  H   H2229     1.0  0.94044  0.11518  0.35380  1.0000
  H   H2230     1.0  0.84007  0.20232  0.36390  1.0000
  N   N142      1.0  0.97362  0.03357  0.30303  1.0000
  H   H2231     1.0  0.92225  0.23311  0.41744  1.0000
  C   C1406     1.0  0.83953  0.23658  0.33630  1.0000
  H   H2232     1.0  0.81023  0.23752  0.31892  1.0000
  H   H2233     1.0  0.98187  0.12686  0.34928  1.0000
  N   N143      1.0  0.95001  0.14167  0.35537  1.0000
  H   H2234     1.0  0.84322  0.21290  0.31192  1.0000
  H   H2235     1.0  0.79872  0.23999  0.34290  1.0000
  C   C1407     1.0  0.83961  0.00138  0.32035  1.0000
  H   H2236     1.0  0.83031  0.01030  0.28599  1.0000
  H   H2237     1.0  0.91878  0.15383  0.36783  1.0000
  C   C1408     1.0  0.96913  0.12990  0.36158  1.0000
  H   H2238     1.0  0.95574  0.06094  0.31206  1.0000
  C   C1409     1.0  0.95345  0.16168  0.34304  1.0000
  C   C1410     1.0  0.82526  0.20921  0.35938  1.0000
  H   H2239     1.0  0.93315  0.26836  0.44112  1.0000
  H   H2240     1.0  0.93917  0.17126  0.33864  1.0000
  N   N144      1.0  0.82087  0.01476  0.31453  1.0000
  C   C1411     1.0  0.89396  0.26566  0.44604  1.0000
  H   H2241     1.0  0.89529  0.28001  0.44913  1.0000
  C   C1412     1.0  0.88299  0.19342  0.35803  1.0000
  H   H2242     1.0  0.80312  0.01792  0.29406  1.0000
  H   H2243     1.0  0.80522  0.01726  0.34303  1.0000
  H   H2244     1.0  0.84286  0.24470  0.32116  1.0000
  H   H2245     1.0  0.93734  0.15411  0.38034  1.0000
  H   H2246     1.0  0.96709  0.11476  0.37100  1.0000
  H   H2247     1.0  0.85445  0.23054  0.34076  1.0000
  H   H2248     1.0  0.87560  0.19841  0.37112  1.0000
  H   H2249     1.0  0.97375  0.00430  0.32250  1.0000
  H   H2250     1.0  0.81605  0.21984  0.36881  1.0000
  H   H2251     1.0  0.97554  0.04737  0.32467  1.0000
  H   H2252     1.0  0.88400  0.31549  0.48467  1.0000
  H   H2253     1.0  0.90766  0.22708  0.44141  1.0000
  H   H2254     1.0  0.97442  0.13836  0.36933  1.0000
  H   H2255     1.0  0.83344  0.19225  0.32954  1.0000
  Fe  Fe283     1.0  0.87147  0.24546  0.36676  1.0000
  H   H2256     1.0  0.79969  0.21693  0.33591  1.0000
  C   C1413     1.0  0.95765  0.03141  0.29451  1.0000
  H   H2257     1.0  0.96524  0.15973  0.32991  1.0000
  H   H2258     1.0  0.81698  0.19661  0.36213  1.0000
  H   H2259     1.0  0.89330  0.99882  0.29833  1.0000
  H   H2260     1.0  0.86155  0.30472  0.44234  1.0000
  C   C1414     1.0  0.80912  0.31942  0.42118  1.0000
  C   C1415     1.0  0.98846  0.04446  0.28825  1.0000
  S   S560      1.0  0.82913  0.27533  0.40156  1.0000
  S   S561      1.0  0.84663  0.23126  0.38808  1.0000
  S   S562      1.0  0.85673  0.22978  0.43771  1.0000
  C   C1416     1.0  0.83904  0.26507  0.45106  1.0000
  H   H2261     1.0  0.82633  0.04147  0.32009  1.0000
  H   H2262     1.0  0.98083  0.06016  0.28186  1.0000
  C   C1417     1.0  0.85449  0.23597  0.47269  1.0000
  Fe  Fe284     1.0  0.85251  0.24650  0.40830  1.0000
  C   C1418     1.0  0.74164  0.29990  0.37004  1.0000
  C   C1419     1.0  0.81741  0.00850  0.29858  1.0000
  S   S563      1.0  0.79608  0.26110  0.37298  1.0000
  C   C1420     1.0  0.86841  0.32092  0.39432  1.0000
  C   C1421     1.0  0.77915  0.30139  0.37639  1.0000
  H   H2263     1.0  0.89231  0.25399  0.45963  1.0000
  C   C1422     1.0  0.83432  0.27698  0.46461  1.0000
  C   C1423     1.0  0.98449  0.01304  0.31141  1.0000
  C   C1424     1.0  0.75773  0.28269  0.37007  1.0000
  H   H2264     1.0  0.94446  0.24860  0.42789  1.0000
  Fe  Fe285     1.0  0.85555  0.28602  0.37952  1.0000
  H   H2265     1.0  0.83489  0.27179  0.43757  1.0000
  C   C1425     1.0  0.77649  0.28330  0.37326  1.0000
  H   H2266     1.0  0.87715  0.09045  0.23977  1.0000
  H   H2267     1.0  0.78864  0.02268  0.32681  1.0000
  S   S564      1.0  0.85017  0.27469  0.35650  1.0000
  S   S565      1.0  0.86124  0.31757  0.37493  1.0000
  C   C1426     1.0  0.82345  0.03628  0.30848  1.0000
  H   H2268     1.0  0.72716  0.29916  0.36765  1.0000
  H   H2269     1.0  0.75557  0.26879  0.36768  1.0000
  H   H2270     1.0  0.93034  0.24238  0.45192  1.0000
  C   C1427     1.0  0.93077  0.25424  0.43844  1.0000
  Fe  Fe286     1.0  0.82577  0.26144  0.37933  1.0000
  C   C1428     1.0  0.91282  0.27419  0.41375  1.0000
  H   H2271     1.0  0.82657  0.29287  0.46152  1.0000
  H   H2272     1.0  0.95237  0.03778  0.32924  1.0000
  H   H2273     1.0  0.79369  0.30198  0.37872  1.0000
  H   H2274     1.0  0.86233  0.22008  0.47586  1.0000
  H   H2275     1.0  0.99207  0.00382  0.30046  1.0000
  S   S566      1.0  0.91828  0.13692  0.24253  1.0000
  H   H2276     1.0  0.92619  0.26935  0.40256  1.0000
  C   C1429     1.0  0.86345  0.30853  0.41242  1.0000
  S   S567      1.0  0.87928  0.25822  0.38766  1.0000
  H   H2277     1.0  0.85650  0.29566  0.41434  1.0000
  H   H2278     1.0  0.89881  0.27733  0.40802  1.0000
  C   C1430     1.0  0.89595  0.10993  0.24140  1.0000
  C   C1431     1.0  0.80309  0.01278  0.33068  1.0000
  H   H2279     1.0  0.96440  0.02315  0.28279  1.0000
  H   H2280     1.0  0.87942  0.26898  0.44116  1.0000
  N   N145      1.0  0.91169  0.25834  0.43160  1.0000
  H   H2281     1.0  0.80963  0.04688  0.30393  1.0000
  H   H2282     1.0  0.94870  0.04660  0.28856  1.0000
  C   C1432     1.0  0.99083  0.12872  0.30423  1.0000
  H   H2283     1.0  0.91415  0.28902  0.41590  1.0000
  H   H2284     1.0  0.81384  0.31372  0.43500  1.0000
  H   H2285     1.0  0.79761  0.31076  0.42133  1.0000
  C   C1433     1.0  0.83978  0.26849  0.48215  1.0000
  C   C1434     1.0  0.76290  0.31878  0.37634  1.0000
  H   H2286     1.0  0.83679  0.03819  0.29627  1.0000
  H   H2287     1.0  0.84283  0.00569  0.33229  1.0000
  C   C1435     1.0  0.74410  0.31795  0.37321  1.0000
  H   H2288     1.0  0.82280  0.31546  0.40995  1.0000
  H   H2289     1.0  0.94604  0.99381  0.27316  1.0000
  H   H2290     1.0  0.99581  0.03609  0.27663  1.0000
  C   C1436     1.0  0.99603  0.10730  0.30788  1.0000
  H   H2291     1.0  0.99666  0.01411  0.31797  1.0000
  S   S568      1.0  0.87894  0.19707  0.55473  1.0000
  C   C1437     1.0  0.88740  0.00201  0.65557  1.0000
  H   H2292     1.0  0.79519  0.30252  0.52901  1.0000
  H   H2293     1.0  0.88421  0.18830  0.62026  1.0000
  Fe  Fe287     1.0  0.86182  0.22998  0.55301  1.0000
  C   C1438     1.0  0.89875  0.16335  0.57695  1.0000
  H   H2294     1.0  0.90376  0.22055  0.58954  1.0000
  H   H2295     1.0  0.92465  0.22938  0.53759  1.0000
  C   C1439     1.0  0.94287  0.22455  0.57660  1.0000
  C   C1440     1.0  0.88590  0.18288  0.57622  1.0000
  C   C1441     1.0  0.87226  0.31657  0.49807  1.0000
  H   H2296     1.0  0.85720  0.31718  0.49503  1.0000
  H   H2297     1.0  0.80383  0.01065  0.62325  1.0000
  N   N146      1.0  0.92970  0.22083  0.56593  1.0000
  H   H2298     1.0  0.98618  0.11309  0.63147  1.0000
  H   H2299     1.0  0.90318  0.15656  0.56469  1.0000
  H   H2300     1.0  0.97072  0.14137  0.70059  1.0000
  H   H2301     1.0  0.78004  0.31606  0.51171  1.0000
  C   C1442     1.0  0.97551  0.12565  0.69782  1.0000
  C   C1443     1.0  0.83354  0.01893  0.63513  1.0000
  C   C1444     1.0  0.93338  0.19860  0.56681  1.0000
  C   C1445     1.0  0.88816  0.18118  0.60827  1.0000
  C   C1446     1.0  0.90639  0.15279  0.59330  1.0000
  H   H2302     1.0  0.85393  0.24122  0.49986  1.0000
  C   C1447     1.0  0.97877  0.03522  0.62468  1.0000
  H   H2303     1.0  0.86977  0.20612  0.59201  1.0000
  C   C1448     1.0  0.88012  0.19143  0.59217  1.0000
  S   S569      1.0  0.83014  0.24194  0.54698  1.0000
  H   H2304     1.0  0.89198  0.09673  0.73805  1.0000
  H   H2305     1.0  0.86715  0.10974  0.67904  1.0000
  S   S570      1.0  0.91261  0.15069  0.62858  1.0000
  C   C1449     1.0  0.91137  0.03086  0.63388  1.0000
  C   C1450     1.0  0.88608  0.01967  0.66182  1.0000
  H   H2306     1.0  0.89770  0.22527  0.56679  1.0000
  H   H2307     1.0  0.76693  0.27860  0.62094  1.0000
  H   H2308     1.0  0.86888  0.16269  0.65060  1.0000
  H   H2309     1.0  0.87254  0.13659  0.64938  1.0000
  H   H2310     1.0  0.85444  0.15289  0.70330  1.0000
  H   H2311     1.0  0.87563  0.02234  0.67496  1.0000
  Fe  Fe288     1.0  0.92730  0.07210  0.63521  1.0000
  S   S571      1.0  0.94884  0.09374  0.62061  1.0000
  S   S572      1.0  0.92570  0.04925  0.61976  1.0000
  Fe  Fe289     1.0  0.91718  0.08560  0.67247  1.0000
  S   S573      1.0  0.93864  0.10729  0.66114  1.0000
  S   S574      1.0  0.89914  0.08547  0.70223  1.0000
  Fe  Fe290     1.0  0.92473  0.11649  0.63558  1.0000
  Fe  Fe291     1.0  0.96007  0.08248  0.64766  1.0000
  S   S575      1.0  0.90205  0.09584  0.64766  1.0000
  S   S576      1.0  0.93990  0.05967  0.66145  1.0000
  C   C1451     1.0  0.76806  0.27912  0.55093  1.0000
  C   C1452     1.0  0.91598  0.08540  0.71597  1.0000
  C   C1453     1.0  0.93719  0.07948  0.70949  1.0000
  C   C1454     1.0  0.95074  0.08048  0.71988  1.0000
  C   C1455     1.0  0.90837  0.09209  0.73301  1.0000
  H   H2312     1.0  0.95076  0.22684  0.53904  1.0000
  H   H2313     1.0  0.74460  0.31268  0.62317  1.0000
  H   H2314     1.0  0.94319  0.07398  0.69651  1.0000
  H   H2315     1.0  0.96707  0.07570  0.71483  1.0000
  H   H2316     1.0  0.84383  0.01605  0.64512  1.0000
  C   C1456     1.0  0.90100  0.99856  0.63863  1.0000
  H   H2317     1.0  0.83912  0.03037  0.62237  1.0000
  H   H2318     1.0  0.75860  0.28948  0.56054  1.0000
  C   C1457     1.0  0.85310  0.15751  0.68820  1.0000
  S   S577      1.0  0.83417  0.28406  0.49849  1.0000
  H   H2319     1.0  0.85875  0.32155  0.53365  1.0000
  C   C1458     1.0  0.77923  0.30744  0.52669  1.0000
  C   C1459     1.0  0.90143  0.16194  0.60882  1.0000
  H   H2320     1.0  0.96766  0.02547  0.63365  1.0000
  H   H2321     1.0  0.85969  0.11653  0.70154  1.0000
  H   H2322     1.0  0.79403  0.30274  0.56307  1.0000
  C   C1460     1.0  0.86328  0.14823  0.65775  1.0000
  C   C1461     1.0  0.91283  0.01309  0.62771  1.0000
  H   H2323     1.0  0.89704  0.04762  0.65597  1.0000
  H   H2324     1.0  0.94974  0.19227  0.56094  1.0000
  N   N147      1.0  0.86538  0.14154  0.67771  1.0000
  C   C1462     1.0  0.85805  0.12218  0.68653  1.0000
  H   H2325     1.0  0.92316  0.01055  0.61447  1.0000
  H   H2326     1.0  0.86075  0.00153  0.60787  1.0000
  H   H2327     1.0  0.92391  0.19533  0.55859  1.0000
  H   H2328     1.0  0.74922  0.30476  0.51165  1.0000
  H   H2329     1.0  0.89675  0.12622  0.67062  1.0000
  C   C1463     1.0  0.78207  0.27526  0.51866  1.0000
  H   H2330     1.0  0.85833  0.17228  0.68189  1.0000
  H   H2331     1.0  0.88951  0.13288  0.69317  1.0000
  C   C1464     1.0  0.89819  0.03398  0.65110  1.0000
  H   H2332     1.0  0.78349  0.27360  0.55448  1.0000
  H   H2333     1.0  0.89346  0.15234  0.67158  1.0000
  C   C1465     1.0  0.88719  0.13820  0.67836  1.0000
  H   H2334     1.0  0.93148  0.24882  0.54480  1.0000
  H   H2335     1.0  0.95945  0.21923  0.57055  1.0000
  H   H2336     1.0  0.84706  0.15088  0.65661  1.0000
  H   H2337     1.0  0.77034  0.31846  0.53584  1.0000
  C   C1466     1.0  0.93443  0.23196  0.54594  1.0000
  H   H2338     1.0  0.83654  0.16044  0.68800  1.0000
  H   H2339     1.0  0.74068  0.28401  0.53002  1.0000
  S   S578      1.0  0.99277  0.07000  0.64997  1.0000
  H   H2340     1.0  0.91664  0.13792  0.59364  1.0000
  C   C1467     1.0  0.84545  0.32609  0.58317  1.0000
  H   H2341     1.0  0.96875  0.11522  0.71081  1.0000
  H   H2342     1.0  0.89633  0.31904  0.51943  1.0000
  H   H2343     1.0  0.90439  0.24513  0.57356  1.0000
  C   C1468     1.0  0.87657  0.30961  0.56414  1.0000
  H   H2344     1.0  0.78425  0.28291  0.50335  1.0000
  C   C1469     1.0  0.78322  0.30486  0.57610  1.0000
  Fe  Fe292     1.0  0.84340  0.26758  0.52600  1.0000
  C   C1470     1.0  0.74869  0.29690  0.52681  1.0000
  S   S579      1.0  0.85596  0.24722  0.57585  1.0000
  H   H2345     1.0  0.92932  0.18979  0.58167  1.0000
  H   H2346     1.0  0.82505  0.01489  0.60351  1.0000
  Fe  Fe293     1.0  0.82547  0.26120  0.56797  1.0000
  H   H2347     1.0  0.70597  0.00107  0.52707  1.0000
  S   S580      1.0  0.83631  0.28777  0.54654  1.0000
  C   C1471     1.0  0.76796  0.29128  0.60875  1.0000
  H   H2348     1.0  0.76098  0.26551  0.55452  1.0000
  C   C1472     1.0  0.90794  0.22829  0.57435  1.0000
  C   C1473     1.0  0.76993  0.32399  0.57712  1.0000
  C   C1474     1.0  0.85687  0.30917  0.57548  1.0000
  H   H2349     1.0  0.93967  0.21623  0.59173  1.0000
  H   H2350     1.0  0.85045  0.29571  0.57851  1.0000
  S   S581      1.0  0.79677  0.26371  0.59068  1.0000
  N   N148      1.0  0.83358  0.99972  0.63015  1.0000
  C   C1475     1.0  0.81991  0.00396  0.61688  1.0000
  H   H2351     1.0  0.79767  0.26904  0.52177  1.0000
  C   C1476     1.0  0.78198  0.28839  0.59186  1.0000
  N   N149      1.0  0.76951  0.28968  0.53077  1.0000
  H   H2352     1.0  0.97481  0.04106  0.61050  1.0000
  S   S582      1.0  0.87560  0.25395  0.52972  1.0000
  S   S583      1.0  0.89006  0.28913  0.55320  1.0000
  Fe  Fe294     1.0  0.86739  0.27192  0.55221  1.0000
  H   H2353     1.0  0.97603  0.04867  0.63102  1.0000
  H   H2354     1.0  0.96842  0.12549  0.68623  1.0000
  C   C1477     1.0  0.94321  0.08763  0.73668  1.0000
  H   H2355     1.0  0.77491  0.26196  0.52090  1.0000
  H   H2356     1.0  0.81790  0.02602  0.64215  1.0000
  H   H2357     1.0  0.99254  0.99592  0.62273  1.0000
  H   H2358     1.0  0.73898  0.30820  0.53541  1.0000
  H   H2359     1.0  0.87578  0.30210  0.50872  1.0000
  H   H2360     1.0  0.94026  0.24117  0.57639  1.0000
  H   H2361     1.0  0.84166  0.12401  0.68633  1.0000
  C   C1478     1.0  0.75530  0.31054  0.61000  1.0000
  H   H2362     1.0  0.83028  0.32559  0.59207  1.0000
  H   H2363     1.0  0.99410  0.00554  0.65176  1.0000
  H   H2364     1.0  0.99637  0.09787  0.67762  1.0000
  C   C1479     1.0  0.75603  0.32681  0.59414  1.0000
  Fe  Fe295     1.0  0.66837  0.28933  0.87746  1.0000
  C   C1480     1.0  0.92199  0.09335  0.74330  1.0000
  H   H2365     1.0  0.74251  0.20179  0.95075  1.0000
  C   C1481     1.0  0.91708  0.01857  0.78879  1.0000
  C   C1482     1.0  0.92089  0.02970  0.80001  1.0000
  C   C1483     1.0  0.67092  0.19832  0.86415  1.0000
  C   C1484     1.0  0.96915  0.01498  0.76158  1.0000
  C   C1485     1.0  0.74553  0.23208  0.96505  1.0000
  S   S584      1.0  0.96386  0.06819  0.79978  1.0000
  H   H2366     1.0  0.92280  0.04527  0.79402  1.0000
  S   S585      1.0  0.91626  0.08691  0.79565  1.0000
  H   H2367     1.0  0.91595  0.02571  0.77426  1.0000
  Fe  Fe296     1.0  0.94741  0.09202  0.77908  1.0000
  H   H2368     1.0  0.74363  0.18200  0.97189  1.0000
  H   H2369     1.0  0.69423  0.19136  0.88945  1.0000
  S   S586      1.0  0.94653  0.11831  0.79153  1.0000
  H   H2370     1.0  0.73117  0.10855  0.96742  1.0000
  Fe  Fe297     1.0  0.80165  0.15128  0.90507  1.0000
  S   S587      1.0  0.77812  0.13148  0.91724  1.0000
  S   S588      1.0  0.83575  0.13851  0.89783  1.0000
  Fe  Fe298     1.0  0.75825  0.15722  0.90055  1.0000
  S   S589      1.0  0.73868  0.15264  0.88323  1.0000
  H   H2371     1.0  0.87580  0.08526  0.85996  1.0000
  Fe  Fe299     1.0  0.96075  0.09387  0.81368  1.0000
  H   H2372     1.0  0.75428  0.24075  0.96932  1.0000
  C   C1486     1.0  0.73055  0.24076  0.87171  1.0000
  H   H2373     1.0  0.85309  0.10341  0.82771  1.0000
  H   H2374     1.0  0.86652  0.04360  0.86277  1.0000
  S   S590      1.0  0.93068  0.08896  0.83333  1.0000
  N   N150      1.0  0.75143  0.20977  0.97257  1.0000
  S   S591      1.0  0.92532  0.03483  0.83352  1.0000
  Fe  Fe300     1.0  0.91641  0.11116  0.81011  1.0000
  S   S592      1.0  0.88575  0.13327  0.81445  1.0000
  S   S593      1.0  0.74446  0.17399  0.92408  1.0000
  C   C1487     1.0  0.78995  0.14285  0.97776  1.0000
  C   C1488     1.0  0.67462  0.14339  0.91611  1.0000
  C   C1489     1.0  0.97498  0.02005  0.84289  1.0000
  H   H2375     1.0  0.72899  0.25725  0.91741  1.0000
  H   H2376     1.0  0.79758  0.14002  0.96384  1.0000
  H   H2377     1.0  0.81498  0.20593  0.90017  1.0000
  C   C1490     1.0  0.84898  0.13600  0.87471  1.0000
  C   C1491     1.0  0.87017  0.12789  0.87143  1.0000
  C   C1492     1.0  0.88156  0.12686  0.85300  1.0000
  C   C1493     1.0  0.87183  0.13410  0.83773  1.0000
  C   C1494     1.0  0.85061  0.14216  0.84100  1.0000
  C   C1495     1.0  0.83913  0.14289  0.85949  1.0000
  H   H2378     1.0  0.87787  0.12261  0.88316  1.0000
  H   H2379     1.0  0.89794  0.12086  0.85059  1.0000
  H   H2380     1.0  0.84302  0.14777  0.82920  1.0000
  C   C1496     1.0  0.77358  0.20261  0.96517  1.0000
  C   C1497     1.0  0.68075  0.14323  0.89682  1.0000
  C   C1498     1.0  0.70073  0.14531  0.88695  1.0000
  C   C1499     1.0  0.71451  0.14790  0.89627  1.0000
  C   C1500     1.0  0.70847  0.14767  0.91566  1.0000
  C   C1501     1.0  0.68854  0.14545  0.92555  1.0000
  C   C1502     1.0  0.73952  0.19889  0.96649  1.0000
  H   H2381     1.0  0.66619  0.18994  0.94966  1.0000
  H   H2382     1.0  0.71913  0.14915  0.92303  1.0000
  H   H2383     1.0  0.68381  0.14557  0.94046  1.0000
  N   N151      1.0  0.99150  0.02621  0.84761  1.0000
  H   H2384     1.0  0.82790  0.23219  0.87229  1.0000
  C   C1503     1.0  0.71482  0.25664  0.87762  1.0000
  H   H2385     1.0  0.67720  0.21615  0.88897  1.0000
  H   H2386     1.0  0.99208  0.00237  0.87293  1.0000
  H   H2387     1.0  0.66430  0.24615  0.93673  1.0000
  H   H2388     1.0  0.72272  0.20385  0.97180  1.0000
  C   C1504     1.0  0.91482  0.99824  0.79628  1.0000
  C   C1505     1.0  0.72936  0.25253  0.90474  1.0000
  S   S594      1.0  0.78278  0.17564  0.88643  1.0000
  H   H2389     1.0  0.91604  0.09927  0.75603  1.0000
  H   H2390     1.0  0.97826  0.13317  0.80436  1.0000
  H   H2391     1.0  0.95636  0.01634  0.75469  1.0000
  H   H2392     1.0  0.98106  0.00708  0.83555  1.0000
  S   S595      1.0  0.96070  0.09025  0.74853  1.0000
  H   H2393     1.0  0.83661  0.19696  0.85142  1.0000
  H   H2394     1.0  0.88261  0.05006  0.82840  1.0000
  H   H2395     1.0  0.67112  0.23027  0.91990  1.0000
  H   H2396     1.0  0.85085  0.22474  0.85529  1.0000
  H   H2397     1.0  0.74862  0.23583  0.94925  1.0000
  S   S596      1.0  0.76358  0.22345  0.91226  1.0000
  H   H2398     1.0  0.67317  0.18225  0.87250  1.0000
  C   C1506     1.0  0.68453  0.22911  0.85112  1.0000
  S   S597      1.0  0.79143  0.16779  0.92901  1.0000
  C   C1507     1.0  0.71411  0.26242  0.89426  1.0000
  H   H2399     1.0  0.77845  0.18579  0.97037  1.0000
  Fe  Fe301     1.0  0.77047  0.19024  0.91155  1.0000
  C   C1508     1.0  0.70739  0.19604  0.85173  1.0000
  H   H2400     1.0  0.70206  0.27474  0.89886  1.0000
  H   H2401     1.0  0.82276  0.14902  0.86191  1.0000
  S   S598      1.0  0.98829  0.09092  0.82542  1.0000
  H   H2402     1.0  0.85747  0.05935  0.82332  1.0000
  H   H2403     1.0  0.84150  0.09897  0.85253  1.0000
  C   C1509     1.0  0.74489  0.23642  0.89892  1.0000
  H   H2404     1.0  0.89302  0.06466  0.84990  1.0000
  C   C1510     1.0  0.88055  0.07836  0.84729  1.0000
  H   H2405     1.0  0.84142  0.05346  0.85757  1.0000
  H   H2406     1.0  0.70548  0.14493  0.87207  1.0000
  H   H2407     1.0  0.88722  0.08972  0.83510  1.0000
  H   H2408     1.0  0.84932  0.06414  0.87301  1.0000
  N   N152      1.0  0.86308  0.07297  0.84344  1.0000
  C   C1511     1.0  0.87015  0.06397  0.82648  1.0000
  C   C1512     1.0  0.85468  0.05789  0.85994  1.0000
  C   C1513     1.0  0.84706  0.09171  0.84004  1.0000
  S   S599      1.0  0.69621  0.26867  0.86401  1.0000
  C   C1514     1.0  0.86188  0.18638  0.87531  1.0000
  Fe  Fe302     1.0  0.76647  0.15000  0.93965  1.0000
  H   H2409     1.0  0.87170  0.18962  0.88317  1.0000
  H   H2410     1.0  0.96680  0.03289  0.83330  1.0000
  C   C1515     1.0  0.84323  0.22160  0.87061  1.0000
  H   H2411     1.0  0.67022  0.14120  0.88956  1.0000
  S   S600      1.0  0.75476  0.13811  0.97071  1.0000
  H   H2412     1.0  0.67417  0.12348  0.97331  1.0000
  C   C1516     1.0  0.80087  0.14755  0.98867  1.0000
  H   H2413     1.0  0.96213  0.02012  0.77515  1.0000
  H   H2414     1.0  0.87634  0.07503  0.81370  1.0000
  H   H2415     1.0  0.73130  0.23639  0.85875  1.0000
  C   C1517     1.0  0.69112  0.20735  0.88094  1.0000
  H   H2416     1.0  0.82975  0.18012  0.90374  1.0000
  H   H2417     1.0  0.86090  0.16994  0.88080  1.0000
  N   N153      1.0  0.98125  0.99373  0.76486  1.0000
  H   H2418     1.0  0.69800  0.23624  0.84822  1.0000
  H   H2419     1.0  0.78310  0.21020  0.96973  1.0000
  H   H2420     1.0  0.83358  0.08834  0.83705  1.0000
  H   H2421     1.0  0.81676  0.14877  0.98293  1.0000
  H   H2422     1.0  0.82675  0.17921  0.87208  1.0000
  C   C1518     1.0  0.74529  0.23040  0.88253  1.0000
  N   N154      1.0  0.84126  0.19994  0.87764  1.0000
  H   H2423     1.0  0.71083  0.17978  0.85939  1.0000
  H   H2424     1.0  0.71021  0.11213  0.95618  1.0000
  H   H2425     1.0  0.83944  0.20032  0.90659  1.0000
  C   C1519     1.0  0.83089  0.19649  0.89792  1.0000
  C   C1520     1.0  0.82897  0.19525  0.86672  1.0000
  H   H2426     1.0  0.86999  0.18812  0.86012  1.0000
  H   H2427     1.0  0.69368  0.08874  0.98441  1.0000
  N   N155      1.0  0.68849  0.20769  0.86199  1.0000
  H   H2428     1.0  0.81344  0.20546  0.86781  1.0000
  H   H2429     1.0  0.70604  0.19612  0.83730  1.0000
  Fe  Fe303     1.0  0.93270  0.06533  0.81743  1.0000
  C   C1521     1.0  0.98235  0.04296  0.85793  1.0000
  C   C1522     1.0  0.92195  0.02069  0.81890  1.0000
  H   H2430     1.0  0.75728  0.21807  0.87789  1.0000
  H   H2431     1.0  0.72889  0.23802  0.97029  1.0000
  H   H2432     1.0  0.85249  0.22568  0.87848  1.0000
  H   H2433     1.0  0.68064  0.22127  0.94137  1.0000
  H   H2434     1.0  0.70426  0.21428  0.87984  1.0000
  H   H2435     1.0  0.96332  0.01515  0.85575  1.0000
  C   C1523     1.0  0.99214  0.13103  0.80924  1.0000
  H   H2436     1.0  0.97295  0.05613  0.84960  1.0000
  C   C1524     1.0  0.66703  0.23000  0.93534  1.0000
  H   H2437     1.0  0.68129  0.23003  0.83718  1.0000
  H   H2438     1.0  0.77740  0.20581  0.94939  1.0000
  H   H2439     1.0  0.72100  0.20251  0.85020  1.0000
  C   C1525     1.0  0.91971  0.00037  0.82639  1.0000
  C   C1526     1.0  0.71559  0.11782  0.96607  1.0000
  H   H2440     1.0  0.68164  0.14555  0.97536  1.0000
  H   H2441     1.0  0.97208  0.03780  0.87175  1.0000
  H   H2442     1.0  0.71747  0.13385  0.95926  1.0000
  C   C1527     1.0  0.76930  0.14165  0.98494  1.0000
  S   S601      1.0  0.66664  0.31166  0.89476  1.0000
  H   H2443     1.0  0.66863  0.19801  0.85016  1.0000
  H   H2444     1.0  0.97883  0.02598  0.75230  1.0000
  H   H2445     1.0  0.99116  0.99701  0.78840  1.0000
  N   N156      1.0  0.70115  0.11678  0.98475  1.0000
  C   C1528     1.0  0.68074  0.12931  0.98227  1.0000
  H   H2446     1.0  0.67117  0.23882  0.85895  1.0000
  H   H2447     1.0  0.99437  0.04897  0.86072  1.0000
  H   H2448     1.0  0.99661  0.16189  0.79604  1.0000
  H   H2449     1.0  0.67579  0.56387  0.12858  1.0000
  H   H2450     1.0  0.90959  0.55857  0.11709  1.0000
  C   C1529     1.0  0.96922  0.50492  0.21753  1.0000
  Fe  Fe304     1.0  0.98625  0.55836  0.14925  1.0000
  C   C1530     1.0  0.67942  0.54450  0.10093  1.0000
  C   C1531     1.0  0.68617  0.64485  0.08001  1.0000
  S   S602      1.0  0.89306  0.62436  0.02958  1.0000
  H   H2451     1.0  0.95526  0.65967  0.09514  1.0000
  Fe  Fe305     1.0  0.91769  0.63048  0.04039  1.0000
  S   S603      1.0  0.94173  0.60696  0.05409  1.0000
  H   H2452     1.0  0.96585  0.53287  0.19611  1.0000
  S   S604      1.0  0.92726  0.65397  0.01436  1.0000
  C   C1532     1.0  0.68273  0.62987  0.09682  1.0000
  Fe  Fe306     1.0  0.96432  0.60241  0.14692  1.0000
  S   S605      1.0  0.94365  0.62727  0.13035  1.0000
  S   S606      1.0  0.95398  0.57284  0.16134  1.0000
  C   C1533     1.0  0.95651  0.53894  0.22419  1.0000
  H   H2453     1.0  0.96204  0.56819  0.10834  1.0000
  H   H2454     1.0  0.69567  0.61907  0.10175  1.0000
  C   C1534     1.0  0.85278  0.63746  0.99561  1.0000
  C   C1535     1.0  0.94219  0.61190  0.07562  1.0000
  C   C1536     1.0  0.92390  0.61884  0.08783  1.0000
  C   C1537     1.0  0.92441  0.62342  0.10470  1.0000
  C   C1538     1.0  0.94318  0.62058  0.10966  1.0000
  C   C1539     1.0  0.96144  0.61293  0.09780  1.0000
  C   C1540     1.0  0.96094  0.60857  0.08080  1.0000
  H   H2455     1.0  0.90931  0.62034  0.08446  1.0000
  H   H2456     1.0  0.91021  0.62894  0.11402  1.0000
  H   H2457     1.0  0.97601  0.61090  0.10145  1.0000
  H   H2458     1.0  0.97512  0.60302  0.07147  1.0000
  H   H2459     1.0  0.97529  0.49516  0.20740  1.0000
  C   C1541     1.0  0.82779  0.63056  0.04271  1.0000
  C   C1542     1.0  0.81313  0.62855  0.03396  1.0000
  C   C1543     1.0  0.79453  0.64291  0.03413  1.0000
  H   H2460     1.0  0.94789  0.55656  0.13066  1.0000
  H   H2461     1.0  0.86962  0.63637  0.99132  1.0000
  H   H2462     1.0  0.84223  0.61958  0.04249  1.0000
  S   S607      1.0  0.77708  0.64191  0.02147  1.0000
  S   S608      1.0  0.97387  0.60502  0.17226  1.0000
  C   C1544     1.0  0.96400  0.52625  0.21114  1.0000
  C   C1545     1.0  0.82353  0.64657  0.05208  1.0000
  H   H2463     1.0  0.81625  0.61599  0.02700  1.0000
  H   H2464     1.0  0.70167  0.64549  0.07203  1.0000
  N   N157      1.0  0.94211  0.55008  0.10646  1.0000
  C   C1546     1.0  0.95840  0.53127  0.10661  1.0000
  C   C1547     1.0  0.94695  0.56394  0.11569  1.0000
  C   C1548     1.0  0.92217  0.54464  0.11691  1.0000
  C   C1549     1.0  0.94093  0.56048  0.08668  1.0000
  H   H2465     1.0  0.97374  0.53497  0.09927  1.0000
  H   H2466     1.0  0.95553  0.52059  0.09943  1.0000
  H   H2467     1.0  0.95951  0.52290  0.12136  1.0000
  H   H2468     1.0  0.93512  0.57840  0.11571  1.0000
  Fe  Fe307     1.0  0.90065  0.65047  0.00503  1.0000
  S   S609      1.0  0.99097  0.53386  0.13346  1.0000
  H   H2469     1.0  0.91798  0.53424  0.11032  1.0000
  H   H2470     1.0  0.93792  0.55034  0.07902  1.0000
  H   H2471     1.0  0.95547  0.56553  0.07852  1.0000
  H   H2472     1.0  0.92836  0.57440  0.08605  1.0000
  Fe  Fe308     1.0  0.96662  0.57391  0.18538  1.0000
  S   S610      1.0  0.89686  0.65376  0.05639  1.0000
  H   H2473     1.0  0.92254  0.53678  0.13193  1.0000
  H   H2474     1.0  0.69338  0.55029  0.09968  1.0000
  S   S611      1.0  0.95269  0.56562  0.21644  1.0000
  H   H2475     1.0  0.81369  0.65790  0.99581  1.0000
  H   H2476     1.0  0.67186  0.58548  0.09708  1.0000
  H   H2477     1.0  0.81685  0.63246  0.99254  1.0000
  H   H2478     1.0  0.84681  0.64703  0.00641  1.0000
  H   H2479     1.0  0.85013  0.62172  0.00258  1.0000
  H   H2480     1.0  0.67872  0.54415  0.08641  1.0000
  H   H2481     1.0  0.93822  0.65688  0.07121  1.0000
  Fe  Fe309     1.0  0.87282  0.64925  0.04412  1.0000
  H   H2482     1.0  0.66377  0.54195  0.13841  1.0000
  H   H2483     1.0  0.68152  0.52841  0.10935  1.0000
  H   H2484     1.0  0.98291  0.57096  0.23475  1.0000
  C   C1550     1.0  0.79032  0.65876  0.04364  1.0000
  C   C1551     1.0  0.66956  0.65899  0.07364  1.0000
  H   H2485     1.0  0.99546  0.49461  0.12634  1.0000
  H   H2486     1.0  0.98353  0.59633  0.23547  1.0000
  S   S612      1.0  0.84153  0.64960  0.06295  1.0000
  C   C1552     1.0  0.96722  0.49635  0.23695  1.0000
  H   H2487     1.0  0.66606  0.33927  0.12804  1.0000
  S   S613      1.0  0.99582  0.58781  0.13309  1.0000
  H   H2488     1.0  0.96438  0.44848  0.36518  1.0000
  S   S614      1.0  0.87775  0.41244  0.36725  1.0000
  C   C1553     1.0  0.67080  0.36926  0.36092  1.0000
  C   C1554     1.0  0.91339  0.44957  0.37276  1.0000
  C   C1555     1.0  0.84091  0.37784  0.36901  1.0000
  C   C1556     1.0  0.79614  0.34860  0.39850  1.0000
  C   C1557     1.0  0.99512  0.52173  0.31197  1.0000
  C   C1558     1.0  0.71014  0.44296  0.48313  1.0000
  C   C1559     1.0  0.90398  0.40977  0.35669  1.0000
  C   C1560     1.0  0.91859  0.39586  0.36613  1.0000
  C   C1561     1.0  0.93956  0.39539  0.35855  1.0000
  C   C1562     1.0  0.94598  0.40888  0.34154  1.0000
  C   C1563     1.0  0.93140  0.42211  0.33163  1.0000
  C   C1564     1.0  0.91040  0.42245  0.33913  1.0000
  Fe  Fe310     1.0  0.70945  0.41390  0.36763  1.0000
  H   H2489     1.0  0.93626  0.43205  0.31819  1.0000
  H   H2490     1.0  0.89915  0.43303  0.33163  1.0000
  H   H2491     1.0  0.69744  0.35427  0.32005  1.0000
  C   C1565     1.0  0.91814  0.43197  0.46690  1.0000
  H   H2492     1.0  0.87280  0.35813  0.34636  1.0000
  H   H2493     1.0  0.84516  0.36118  0.37502  1.0000
  H   H2494     1.0  0.81345  0.42200  0.37507  1.0000
  S   S615      1.0  0.73801  0.39254  0.35630  1.0000
  C   C1566     1.0  0.78190  0.34638  0.43196  1.0000
  H   H2495     1.0  0.87226  0.37828  0.32539  1.0000
  S   S616      1.0  0.78253  0.40356  0.37182  1.0000
  N   N158      1.0  0.80084  0.34174  0.41755  1.0000
  H   H2496     1.0  0.84939  0.38582  0.37436  1.0000
  H   H2497     1.0  0.81717  0.37635  0.34682  1.0000
  H   H2498     1.0  0.87719  0.38264  0.34604  1.0000
  H   H2499     1.0  0.95081  0.38487  0.36610  1.0000
  N   N159      1.0  0.84570  0.38216  0.34809  1.0000
  S   S617      1.0  0.69418  0.43851  0.34607  1.0000
  H   H2500     1.0  0.77551  0.36318  0.42984  1.0000
  C   C1567     1.0  0.95038  0.44411  0.36434  1.0000
  C   C1568     1.0  0.66940  0.43805  0.34466  1.0000
  C   C1569     1.0  0.87775  0.33728  0.39190  1.0000
  H   H2501     1.0  0.94765  0.57517  0.25401  1.0000
  H   H2502     1.0  0.92972  0.48133  0.35003  1.0000
  H   H2503     1.0  0.81981  0.34796  0.43285  1.0000
  H   H2504     1.0  0.94827  0.60042  0.25511  1.0000
  H   H2505     1.0  0.83726  0.37416  0.32600  1.0000
  H   H2506     1.0  0.67307  0.38753  0.31365  1.0000
  H   H2507     1.0  0.89880  0.45816  0.38017  1.0000
  C   C1570     1.0  0.86796  0.37499  0.34114  1.0000
  H   H2508     1.0  0.78489  0.34048  0.39721  1.0000
  C   C1571     1.0  0.83984  0.40448  0.34059  1.0000
  S   S618      1.0  0.97210  0.40983  0.33376  1.0000
  H   H2509     1.0  0.74929  0.44727  0.47503  1.0000
  H   H2510     1.0  0.82304  0.41027  0.34530  1.0000
  H   H2511     1.0  0.84363  0.40838  0.32483  1.0000
  H   H2512     1.0  0.91401  0.43296  0.37922  1.0000
  H   H2513     1.0  0.91379  0.38538  0.37923  1.0000
  N   N160      1.0  0.83211  0.45160  0.47752  1.0000
  C   C1572     1.0  0.84936  0.45308  0.46084  1.0000
  H   H2514     1.0  0.76973  0.33897  0.43136  1.0000
  H   H2515     1.0  0.68174  0.35981  0.37001  1.0000
  C   C1573     1.0  0.97531  0.52444  0.32342  1.0000
  H   H2516     1.0  0.84475  0.46507  0.44860  1.0000
  H   H2517     1.0  0.95052  0.44658  0.34903  1.0000
  H   H2518     1.0  0.94369  0.48354  0.36588  1.0000
  H   H2519     1.0  0.82427  0.38297  0.37473  1.0000
  H   H2520     1.0  0.91250  0.45207  0.35771  1.0000
  H   H2521     1.0  0.95187  0.42734  0.37045  1.0000
  H   H2522     1.0  0.88209  0.34664  0.37793  1.0000
  H   H2523     1.0  0.84798  0.41317  0.34556  1.0000
  S   S619      1.0  0.95621  0.46509  0.30121  1.0000
  C   C1574     1.0  0.83405  0.37127  0.34174  1.0000
  H   H2524     1.0  0.97959  0.55928  0.34571  1.0000
  H   H2525     1.0  0.83811  0.35436  0.34722  1.0000
  N   N161      1.0  0.93146  0.45609  0.37423  1.0000
  H   H2526     1.0  0.96885  0.55262  0.28711  1.0000
  Fe  Fe311     1.0  0.75084  0.39747  0.37855  1.0000
  C   C1575     1.0  0.93014  0.47813  0.36531  1.0000
  H   H2527     1.0  0.91611  0.48775  0.37239  1.0000
  Fe  Fe312     1.0  0.72547  0.36794  0.37941  1.0000
  S   S620      1.0  0.72352  0.42103  0.38801  1.0000
  C   C1576     1.0  0.81620  0.35249  0.41853  1.0000
  Fe  Fe313     1.0  0.88011  0.41369  0.43350  1.0000
  C   C1577     1.0  0.88121  0.34189  0.40757  1.0000
  S   S621      1.0  0.89932  0.43151  0.43961  1.0000
  S   S622      1.0  0.85796  0.39510  0.45415  1.0000
  S   S623      1.0  0.84938  0.38628  0.41645  1.0000
  S   S624      1.0  0.80334  0.41913  0.44227  1.0000
  Fe  Fe314     1.0  0.71234  0.39402  0.40872  1.0000
  S   S625      1.0  0.69589  0.39711  0.43846  1.0000
  C   C1578     1.0  0.96966  0.53821  0.33540  1.0000
  H   H2528     1.0  0.67698  0.34401  0.33755  1.0000
  S   S626      1.0  0.85830  0.43098  0.41452  1.0000
  C   C1579     1.0  0.79554  0.41744  0.42259  1.0000
  H   H2529     1.0  0.76021  0.39989  0.41091  1.0000
  H   H2530     1.0  0.95439  0.54036  0.34432  1.0000
  C   C1580     1.0  0.73717  0.36132  0.46960  1.0000
  C   C1581     1.0  0.72797  0.37187  0.45416  1.0000
  C   C1582     1.0  0.70748  0.38235  0.45734  1.0000
  S   S627      1.0  0.97673  0.47018  0.24486  1.0000
  H   H2531     1.0  0.75307  0.35353  0.46721  1.0000
  H   H2532     1.0  0.73677  0.37225  0.43985  1.0000
  H   H2533     1.0  0.70571  0.38647  0.32193  1.0000
  C   C1583     1.0  0.77349  0.40620  0.40910  1.0000
  C   C1584     1.0  0.87519  0.33031  0.42578  1.0000
  H   H2534     1.0  0.76883  0.40542  0.43885  1.0000
  Fe  Fe315     1.0  0.83754  0.41030  0.43360  1.0000
  C   C1585     1.0  0.90334  0.42450  0.46282  1.0000
  H   H2535     1.0  0.68037  0.39027  0.47849  1.0000
  H   H2536     1.0  0.73343  0.42162  0.44496  1.0000
  Fe  Fe316     1.0  0.97928  0.43888  0.31353  1.0000
  H   H2537     1.0  0.81063  0.36946  0.41534  1.0000
  H   H2538     1.0  0.70817  0.42178  0.45948  1.0000
  C   C1586     1.0  0.98653  0.57998  0.24313  1.0000
  S   S628      1.0  0.87653  0.33848  0.44538  1.0000
  C   C1587     1.0  0.95351  0.53025  0.24362  1.0000
  H   H2539     1.0  0.82006  0.43101  0.46873  1.0000
  H   H2540     1.0  0.88047  0.40600  0.47425  1.0000
  C   C1588     1.0  0.98388  0.54894  0.33615  1.0000
  N   N162      1.0  0.68103  0.37252  0.34060  1.0000
  Fe  Fe317     1.0  0.97281  0.48482  0.30821  1.0000
  C   C1589     1.0  0.72089  0.43030  0.45438  1.0000
  H   H2541     1.0  0.92727  0.44155  0.45572  1.0000
  N   N163      1.0  0.72786  0.43274  0.47040  1.0000
  C   C1590     1.0  0.95905  0.50899  0.24999  1.0000
  H   H2542     1.0  0.94709  0.53993  0.25377  1.0000
  C   C1591     1.0  0.89164  0.41206  0.47734  1.0000
  C   C1592     1.0  0.97931  0.58954  0.27321  1.0000
  Fe  Fe318     1.0  0.98068  0.46569  0.27443  1.0000
  Fe  Fe319     1.0  0.87178  0.37263  0.43530  1.0000
  H   H2543     1.0  0.80968  0.45765  0.46063  1.0000
  H   H2544     1.0  0.93292  0.43594  0.40154  1.0000
  H   H2545     1.0  0.70989  0.37381  0.34522  1.0000
  S   S629      1.0  0.99491  0.48812  0.28014  1.0000
  H   H2546     1.0  0.71507  0.44537  0.44552  1.0000
  H   H2547     1.0  0.86254  0.45685  0.46405  1.0000
  H   H2548     1.0  0.70297  0.45826  0.47555  1.0000
  C   C1593     1.0  0.93195  0.45247  0.39444  1.0000
  H   H2549     1.0  0.73779  0.46079  0.45511  1.0000
  C   C1594     1.0  0.95204  0.58393  0.26216  1.0000
  Fe  Fe320     1.0  0.87210  0.40545  0.39904  1.0000
  H   H2550     1.0  0.82143  0.42828  0.40267  1.0000
  S   S630      1.0  0.72322  0.33902  0.37287  1.0000
  H   H2551     1.0  0.67189  0.45746  0.31661  1.0000
  H   H2552     1.0  0.78934  0.36526  0.39544  1.0000
  H   H2553     1.0  0.88823  0.35474  0.40552  1.0000
  S   S631      1.0  0.95741  0.51107  0.32256  1.0000
  H   H2554     1.0  0.97470  0.54546  0.26478  1.0000
  H   H2555     1.0  0.91781  0.46113  0.40242  1.0000
  H   H2556     1.0  0.83092  0.34882  0.40829  1.0000
  C   C1595     1.0  0.80805  0.42210  0.40457  1.0000
  S   S632      1.0  0.74094  0.37076  0.40087  1.0000
  H   H2557     1.0  0.78489  0.34089  0.44653  1.0000
  C   C1596     1.0  0.77814  0.40962  0.42487  1.0000
  C   C1597     1.0  0.80355  0.41850  0.38891  1.0000
  S   S633      1.0  0.89579  0.38980  0.41645  1.0000
  C   C1598     1.0  0.74377  0.44527  0.46318  1.0000
  C   C1599     1.0  0.68936  0.35245  0.33523  1.0000
  C   C1600     1.0  0.73658  0.41239  0.48105  1.0000
  C   C1601     1.0  0.78647  0.41027  0.39116  1.0000
  H   H2558     1.0  0.95689  0.50239  0.26503  1.0000
  C   C1602     1.0  0.97830  0.55529  0.27237  1.0000
  H   H2559     1.0  0.69244  0.39805  0.34169  1.0000
  C   C1603     1.0  0.69800  0.38318  0.33718  1.0000
  H   H2560     1.0  0.70064  0.34253  0.34381  1.0000
  H   H2561     1.0  0.81017  0.34568  0.38722  1.0000
  S   S634      1.0  0.69573  0.38889  0.38913  1.0000
  H   H2562     1.0  0.94537  0.45717  0.39615  1.0000
  N   N164      1.0  0.97405  0.57717  0.26272  1.0000
  C   C1604     1.0  0.81516  0.44616  0.47277  1.0000
  H   H2563     1.0  0.75736  0.43793  0.45354  1.0000
  H   H2564     1.0  0.87927  0.35344  0.47706  1.0000
  H   H2565     1.0  0.97650  0.60613  0.26623  1.0000
  C   C1605     1.0  0.69623  0.38218  0.47596  1.0000
  H   H2566     1.0  0.94207  0.58175  0.27667  1.0000
  H   H2567     1.0  0.97020  0.58779  0.28808  1.0000
  H   H2568     1.0  0.85518  0.43837  0.45609  1.0000
  H   H2569     1.0  0.99506  0.42530  0.23910  1.0000
  H   H2570     1.0  0.75002  0.40416  0.47201  1.0000
  H   H2571     1.0  0.82024  0.48418  0.47130  1.0000
  H   H2572     1.0  0.76487  0.33280  0.37857  1.0000
  C   C1606     1.0  0.66602  0.38517  0.32908  1.0000
  S   S635      1.0  0.99374  0.45864  0.32296  1.0000
  C   C1607     1.0  0.92130  0.42697  0.48540  1.0000
  H   H2573     1.0  0.72506  0.40253  0.48661  1.0000
  C   C1608     1.0  0.82480  0.47157  0.48315  1.0000
  H   H2574     1.0  0.80177  0.44521  0.48503  1.0000
  H   H2575     1.0  0.85236  0.35475  0.48660  1.0000
  H   H2576     1.0  0.93286  0.43269  0.48845  1.0000
  C   C1609     1.0  0.72598  0.36145  0.48819  1.0000
  H   H2577     1.0  0.83681  0.47558  0.48794  1.0000
  H   H2578     1.0  0.66441  0.38403  0.36553  1.0000
  H   H2579     1.0  0.99470  0.54978  0.27334  1.0000
  H   H2580     1.0  0.99584  0.58487  0.27386  1.0000
  Fe  Fe321     1.0  0.68858  0.38800  0.55738  1.0000
  H   H2581     1.0  0.92761  0.40443  0.55735  1.0000
  Fe  Fe322     1.0  0.88283  0.41261  0.54420  1.0000
  S   S636      1.0  0.91292  0.40953  0.52319  1.0000
  S   S637      1.0  0.73827  0.35005  0.50723  1.0000
  H   H2582     1.0  0.93985  0.65114  0.65012  1.0000
  H   H2583     1.0  0.96989  0.64825  0.72777  1.0000
  H   H2584     1.0  0.95637  0.52990  0.70326  1.0000
  H   H2585     1.0  0.77954  0.48213  0.52179  1.0000
  C   C1610     1.0  0.98633  0.56362  0.60850  1.0000
  S   S638      1.0  0.70865  0.39924  0.56944  1.0000
  C   C1611     1.0  0.79292  0.45078  0.53299  1.0000
  C   C1612     1.0  0.86719  0.35348  0.49038  1.0000
  S   S639      1.0  0.99510  0.60113  0.58828  1.0000
  S   S640      1.0  0.73572  0.43671  0.52462  1.0000
  C   C1613     1.0  0.76029  0.46174  0.52339  1.0000
  C   C1614     1.0  0.79050  0.43039  0.53809  1.0000
  H   H2586     1.0  0.77090  0.41006  0.53948  1.0000
  C   C1615     1.0  0.94035  0.61620  0.67653  1.0000
  N   N165      1.0  0.93682  0.43182  0.55702  1.0000
  C   C1616     1.0  0.98338  0.63398  0.68542  1.0000
  C   C1617     1.0  0.89435  0.40757  0.49599  1.0000
  H   H2587     1.0  0.74171  0.41368  0.49342  1.0000
  H   H2588     1.0  0.84034  0.33716  0.52012  1.0000
  C   C1618     1.0  0.70544  0.37172  0.49136  1.0000
  H   H2589     1.0  0.99617  0.55211  0.72807  1.0000
  C   C1619     1.0  0.98262  0.61318  0.69208  1.0000
  S   S641      1.0  0.88072  0.39941  0.57534  1.0000
  H   H2590     1.0  0.74670  0.40987  0.60165  1.0000
  C   C1620     1.0  0.93356  0.41083  0.56635  1.0000
  H   H2591     1.0  0.94805  0.40019  0.56931  1.0000
  H   H2592     1.0  0.91877  0.46149  0.54716  1.0000
  Fe  Fe323     1.0  0.96126  0.49722  0.62547  1.0000
  H   H2593     1.0  0.92739  0.52681  0.66502  1.0000
  Fe  Fe324     1.0  0.72521  0.36729  0.53070  1.0000
  S   S642      1.0  0.98793  0.64470  0.66103  1.0000
  Fe  Fe325     1.0  0.72635  0.40676  0.53944  1.0000
  Fe  Fe326     1.0  0.83810  0.43451  0.54925  1.0000
  C   C1621     1.0  0.77775  0.46636  0.52572  1.0000
  S   S643      1.0  0.86684  0.44428  0.54780  1.0000
  C   C1622     1.0  0.75767  0.44151  0.52853  1.0000
  C   C1623     1.0  0.94480  0.43966  0.56938  1.0000
  H   H2594     1.0  0.87948  0.35774  0.56474  1.0000
  Fe  Fe327     1.0  0.85077  0.39346  0.57420  1.0000
  H   H2595     1.0  0.80246  0.41827  0.54329  1.0000
  H   H2596     1.0  0.85548  0.34881  0.52855  1.0000
  H   H2597     1.0  0.74868  0.47395  0.51770  1.0000
  Fe  Fe328     1.0  0.98403  0.46586  0.65340  1.0000
  S   S644      1.0  0.85446  0.40396  0.54264  1.0000
  H   H2598     1.0  0.66869  0.42874  0.56722  1.0000
  H   H2599     1.0  0.89219  0.34645  0.51444  1.0000
  C   C1624     1.0  0.77275  0.42575  0.53591  1.0000
  S   S645      1.0  0.81532  0.45749  0.53380  1.0000
  Fe  Fe329     1.0  0.72850  0.36781  0.56976  1.0000
  S   S646      1.0  0.70734  0.35579  0.55980  1.0000
  H   H2600     1.0  0.95935  0.42952  0.57280  1.0000
  S   S647      1.0  0.74828  0.37644  0.54094  1.0000
  S   S648      1.0  0.70446  0.39839  0.52717  1.0000
  C   C1625     1.0  0.75466  0.40082  0.59062  1.0000
  C   C1626     1.0  0.87315  0.34422  0.56774  1.0000
  H   H2601     1.0  0.75570  0.41170  0.57655  1.0000
  H   H2602     1.0  0.94615  0.42543  0.52915  1.0000
  C   C1627     1.0  0.91711  0.44537  0.55361  1.0000
  C   C1628     1.0  0.95175  0.43140  0.53873  1.0000
  C   C1629     1.0  0.85352  0.34366  0.57925  1.0000
  H   H2603     1.0  0.98543  0.43758  0.72825  1.0000
  H   H2604     1.0  0.91103  0.44026  0.54383  1.0000
  H   H2605     1.0  0.93363  0.44062  0.58305  1.0000
  H   H2606     1.0  0.95441  0.44702  0.53120  1.0000
  H   H2607     1.0  0.94779  0.45534  0.56269  1.0000
  H   H2608     1.0  0.76560  0.38295  0.62406  1.0000
  H   H2609     1.0  0.96682  0.42136  0.54078  1.0000
  S   S649      1.0  0.83196  0.42351  0.58073  1.0000
  Fe  Fe330     1.0  0.86228  0.43060  0.57892  1.0000
  H   H2610     1.0  0.92220  0.41059  0.58008  1.0000
  H   H2611     1.0  0.90519  0.44549  0.56702  1.0000
  H   H2612     1.0  0.74461  0.39047  0.59116  1.0000
  N   N166      1.0  0.87185  0.33473  0.50495  1.0000
  H   H2613     1.0  0.78065  0.41276  0.60395  1.0000
  S   S650      1.0  0.83872  0.36483  0.58863  1.0000
  Fe  Fe331     1.0  0.95210  0.45447  0.63928  1.0000
  N   N167      1.0  0.88160  0.46003  0.67291  1.0000
  S   S651      1.0  0.94371  0.42862  0.63196  1.0000
  C   C1630     1.0  0.88478  0.32709  0.56037  1.0000
  H   H2614     1.0  0.88705  0.47542  0.60472  1.0000
  H   H2615     1.0  0.78848  0.36578  0.61497  1.0000
  H   H2616     1.0  0.89113  0.41122  0.61032  1.0000
  S   S652      1.0  0.73968  0.35059  0.59614  1.0000
  H   H2617     1.0  0.94785  0.49571  0.70916  1.0000
  H   H2618     1.0  0.79000  0.41445  0.57893  1.0000
  S   S653      1.0  0.95713  0.45111  0.66836  1.0000
  C   C1631     1.0  0.87098  0.46162  0.69256  1.0000
  H   H2619     1.0  0.87124  0.43281  0.67467  1.0000
  Fe  Fe332     1.0  0.93911  0.48345  0.66611  1.0000
  C   C1632     1.0  0.89458  0.45960  0.60904  1.0000
  C   C1633     1.0  0.90313  0.44913  0.67261  1.0000
  H   H2620     1.0  0.91125  0.45704  0.67838  1.0000
  S   S654      1.0  0.93199  0.48581  0.63824  1.0000
  H   H2621     1.0  0.77572  0.36679  0.57846  1.0000
  S   S655      1.0  0.96641  0.49811  0.65339  1.0000
  H   H2622     1.0  0.90389  0.62182  0.70124  1.0000
  H   H2623     1.0  0.85465  0.46971  0.69341  1.0000
  H   H2624     1.0  0.85143  0.43946  0.49783  1.0000
  H   H2625     1.0  0.91182  0.44822  0.65796  1.0000
  H   H2626     1.0  0.87918  0.44690  0.65101  1.0000
  H   H2627     1.0  0.89999  0.32751  0.55158  1.0000
  H   H2628     1.0  0.87848  0.47037  0.69819  1.0000
  H   H2629     1.0  0.80036  0.36781  0.58091  1.0000
  H   H2630     1.0  0.88872  0.48026  0.64570  1.0000
  H   H2631     1.0  0.85506  0.45647  0.66547  1.0000
  H   H2632     1.0  0.86510  0.48967  0.66087  1.0000
  H   H2633     1.0  0.82636  0.43360  0.50596  1.0000
  H   H2634     1.0  0.90419  0.43315  0.68119  1.0000
  H   H2635     1.0  0.78773  0.38766  0.56439  1.0000
  C   C1634     1.0  0.88711  0.44386  0.60658  1.0000
  C   C1635     1.0  0.88111  0.48085  0.66071  1.0000
  C   C1636     1.0  0.87127  0.44856  0.66575  1.0000
  C   C1637     1.0  0.92186  0.43465  0.62227  1.0000
  C   C1638     1.0  0.91433  0.41886  0.61990  1.0000
  C   C1639     1.0  0.89701  0.42345  0.61197  1.0000
  H   H2636     1.0  0.99143  0.56597  0.61995  1.0000
  C   C1640     1.0  0.97611  0.60534  0.71152  1.0000
  C   C1641     1.0  0.91206  0.45502  0.61661  1.0000
  H   H2637     1.0  0.92188  0.40304  0.62424  1.0000
  H   H2638     1.0  0.89198  0.64451  0.68657  1.0000
  S   S656      1.0  0.98100  0.46601  0.62443  1.0000
  H   H2639     1.0  0.91814  0.46732  0.61764  1.0000
  C   C1642     1.0  0.78518  0.37738  0.57866  1.0000
  H   H2640     1.0  0.88915  0.48981  0.66550  1.0000
  H   H2641     1.0  0.77065  0.33660  0.56488  1.0000
  S   S657      1.0  0.91459  0.49097  0.69127  1.0000
  H   H2642     1.0  0.80326  0.39520  0.59546  1.0000
  H   H2643     1.0  0.87130  0.44622  0.70224  1.0000
  C   C1643     1.0  0.77316  0.37474  0.61236  1.0000
  S   S658      1.0  0.98912  0.59665  0.64300  1.0000
  C   C1644     1.0  0.78781  0.40354  0.59294  1.0000
  H   H2644     1.0  0.94432  0.65280  0.68054  1.0000
  H   H2645     1.0  0.86628  0.36751  0.49527  1.0000
  H   H2646     1.0  0.76388  0.36346  0.61338  1.0000
  N   N168      1.0  0.77517  0.38912  0.59364  1.0000
  S   S659      1.0  0.86531  0.45033  0.59688  1.0000
  C   C1645     1.0  0.97278  0.55756  0.57907  1.0000
  H   H2647     1.0  0.97456  0.48533  0.70150  1.0000
  H   H2648     1.0  0.93662  0.60613  0.66924  1.0000
  C   C1646     1.0  0.98647  0.57855  0.59153  1.0000
  H   H2649     1.0  0.97881  0.53435  0.62394  1.0000
  C   C1647     1.0  0.92099  0.54953  0.68162  1.0000
  H   H2650     1.0  0.93632  0.51540  0.73457  1.0000
  C   C1648     1.0  0.90532  0.52015  0.71209  1.0000
  C   C1649     1.0  0.97061  0.52198  0.70861  1.0000
  S   S660      1.0  0.91351  0.57805  0.70280  1.0000
  C   C1650     1.0  0.92131  0.53020  0.67895  1.0000
  H   H2651     1.0  0.92702  0.56088  0.66977  1.0000
  H   H2652     1.0  0.93156  0.63850  0.70227  1.0000
  C   C1651     1.0  0.97166  0.61795  0.72438  1.0000
  H   H2653     1.0  0.97476  0.58948  0.71656  1.0000
  C   C1652     1.0  0.91320  0.55404  0.69960  1.0000
  C   C1653     1.0  0.90540  0.53933  0.71485  1.0000
  H   H2654     1.0  0.96055  0.47406  0.72423  1.0000
  C   C1654     1.0  0.97237  0.54272  0.59604  1.0000
  H   H2655     1.0  0.98309  0.51894  0.69611  1.0000
  H   H2656     1.0  0.98628  0.60330  0.68222  1.0000
  C   C1655     1.0  0.97921  0.54570  0.61078  1.0000
  H   H2657     1.0  0.90035  0.62058  0.67896  1.0000
  N   N169      1.0  0.92469  0.63540  0.67706  1.0000
  H   H2658     1.0  0.71477  0.44531  0.49530  1.0000
  C   C1656     1.0  0.97338  0.63848  0.71781  1.0000
  C   C1657     1.0  0.89210  0.33324  0.50878  1.0000
  H   H2659     1.0  0.69662  0.37167  0.50568  1.0000
  C   C1658     1.0  0.97882  0.64660  0.69830  1.0000
  H   H2660     1.0  0.96749  0.55529  0.56768  1.0000
  C   C1659     1.0  0.90924  0.41501  0.50001  1.0000
  H   H2661     1.0  0.90446  0.33288  0.49570  1.0000
  S   S661      1.0  0.96330  0.52071  0.59807  1.0000
  C   C1660     1.0  0.83914  0.43557  0.49334  1.0000
  H   H2662     1.0  0.97467  0.53295  0.71463  1.0000
  N   N170      1.0  0.96775  0.50282  0.72283  1.0000
  C   C1661     1.0  0.90429  0.63045  0.68632  1.0000
  H   H2663     1.0  0.95571  0.61945  0.66886  1.0000
  H   H2664     1.0  0.94160  0.60714  0.69107  1.0000
  C   C1662     1.0  0.91345  0.51551  0.69418  1.0000
  H   H2665     1.0  0.98505  0.44484  0.69408  1.0000
  C   C1663     1.0  0.96244  0.48886  0.71407  1.0000
  C   C1664     1.0  0.92970  0.64760  0.68787  1.0000
  H   H2666     1.0  0.88529  0.39799  0.50719  1.0000
  H   H2667     1.0  0.81120  0.47133  0.49515  1.0000
  H   H2668     1.0  0.99158  0.50295  0.73611  1.0000
  C   C1665     1.0  0.85586  0.33568  0.52255  1.0000
  H   H2669     1.0  0.92091  0.63845  0.64892  1.0000
  H   H2670     1.0  0.89923  0.50881  0.72392  1.0000
  C   C1666     1.0  0.92454  0.64730  0.65746  1.0000
  C   C1667     1.0  0.98690  0.49280  0.72962  1.0000
  H   H2671     1.0  0.89916  0.54280  0.72871  1.0000
  H   H2672     1.0  0.84527  0.42044  0.48938  1.0000
  Fe  Fe333     1.0  0.91424  0.57764  0.73256  1.0000
  C   C1668     1.0  0.97975  0.57544  0.57684  1.0000
  H   H2673     1.0  0.97980  0.58692  0.56374  1.0000
  H   H2674     1.0  0.69807  0.43363  0.48918  1.0000
  H   H2675     1.0  0.69708  0.65029  0.73866  1.0000
  H   H2676     1.0  0.90771  0.58655  0.97262  1.0000
  H   H2677     1.0  0.95471  0.51782  0.74617  1.0000
  C   C1669     1.0  0.97323  0.49791  0.78378  1.0000
  H   H2678     1.0  0.94825  0.49348  0.75001  1.0000
  H   H2679     1.0  0.96795  0.48545  0.78181  1.0000
  C   C1670     1.0  0.98703  0.53006  0.78884  1.0000
  C   C1671     1.0  0.68856  0.64897  0.84144  1.0000
  S   S662      1.0  0.89296  0.63945  0.84442  1.0000
  C   C1672     1.0  0.85143  0.63318  0.96521  1.0000
  H   H2680     1.0  0.74218  0.63828  0.96387  1.0000
  Fe  Fe334     1.0  0.92456  0.55158  0.76940  1.0000
  N   N171      1.0  0.84302  0.64639  0.97916  1.0000
  S   S663      1.0  0.93378  0.51952  0.78533  1.0000
  C   C1673     1.0  0.70320  0.65506  0.74868  1.0000
  S   S664      1.0  0.89504  0.56281  0.75954  1.0000
  Fe  Fe335     1.0  0.89335  0.59105  0.76939  1.0000
  H   H2681     1.0  0.78350  0.63181  0.97475  1.0000
  H   H2682     1.0  0.71701  0.61776  0.76961  1.0000
  H   H2683     1.0  0.84920  0.61720  0.97158  1.0000
  H   H2684     1.0  0.70102  0.64569  0.84862  1.0000
  H   H2685     1.0  0.77930  0.62186  0.95674  1.0000
  C   C1674     1.0  0.70009  0.62342  0.77188  1.0000
  H   H2686     1.0  0.90872  0.65746  0.93500  1.0000
  C   C1675     1.0  0.90736  0.61758  0.97338  1.0000
  S   S665      1.0  0.92147  0.57855  0.78144  1.0000
  C   C1676     1.0  0.95942  0.51626  0.78630  1.0000
  H   H2687     1.0  0.98505  0.47850  0.74064  1.0000
  C   C1677     1.0  0.99405  0.49584  0.78329  1.0000
  H   H2688     1.0  0.92604  0.55873  0.82099  1.0000
  H   H2689     1.0  0.91999  0.56234  0.84483  1.0000
  C   C1678     1.0  0.79618  0.65346  0.81982  1.0000
  Fe  Fe336     1.0  0.87942  0.62523  0.87423  1.0000
  S   S666      1.0  0.88772  0.59183  0.88734  1.0000
  H   H2690     1.0  0.72023  0.65019  0.74522  1.0000
  Fe  Fe337     1.0  0.84761  0.63488  0.90911  1.0000
  S   S667      1.0  0.85218  0.60220  0.92513  1.0000
  Fe  Fe338     1.0  0.88570  0.60236  0.91360  1.0000
  S   S668      1.0  0.90628  0.58806  0.93427  1.0000
  Fe  Fe339     1.0  0.85372  0.59477  0.89751  1.0000
  S   S669      1.0  0.84033  0.57123  0.89260  1.0000
  S   S670      1.0  0.88096  0.63568  0.89922  1.0000
  S   S671      1.0  0.84546  0.62761  0.88261  1.0000
  H   H2691     1.0  0.90520  0.57878  0.82814  1.0000
  H   H2692     1.0  0.90026  0.51593  0.84834  1.0000
  H   H2693     1.0  0.69447  0.61766  0.76219  1.0000
  H   H2694     1.0  0.74667  0.64784  0.98203  1.0000
  C   C1679     1.0  0.70259  0.65298  0.78147  1.0000
  S   S672      1.0  0.86519  0.60381  0.78917  1.0000
  C   C1680     1.0  0.90808  0.60201  0.96442  1.0000
  H   H2695     1.0  0.66473  0.64561  0.78701  1.0000
  H   H2696     1.0  0.80444  0.65086  0.80545  1.0000
  C   C1681     1.0  0.78280  0.63539  0.95952  1.0000
  C   C1682     1.0  0.81370  0.62087  0.83551  1.0000
  C   C1683     1.0  0.74684  0.65116  0.96662  1.0000
  C   C1684     1.0  0.81573  0.58223  0.88831  1.0000
  C   C1685     1.0  0.80746  0.57315  0.87849  1.0000
  C   C1686     1.0  0.78849  0.58266  0.87365  1.0000
  C   C1687     1.0  0.77772  0.60123  0.87867  1.0000
  C   C1688     1.0  0.80467  0.60047  0.89391  1.0000
  H   H2697     1.0  0.81590  0.55899  0.87428  1.0000
  H   H2698     1.0  0.78235  0.57584  0.86565  1.0000
  H   H2699     1.0  0.81077  0.60721  0.90198  1.0000
  H   H2700     1.0  0.88114  0.56618  0.81804  1.0000
  N   N172      1.0  0.80907  0.64329  0.83389  1.0000
  C   C1689     1.0  0.90850  0.60662  0.94497  1.0000
  C   C1690     1.0  0.90932  0.62650  0.93436  1.0000
  C   C1691     1.0  0.90846  0.64203  0.94327  1.0000
  H   H2701     1.0  0.91085  0.62987  0.91922  1.0000
  C   C1692     1.0  0.87350  0.61331  0.80437  1.0000
  C   C1693     1.0  0.86663  0.60727  0.82395  1.0000
  C   C1694     1.0  0.87330  0.61465  0.83629  1.0000
  C   C1695     1.0  0.88628  0.62869  0.82903  1.0000
  C   C1696     1.0  0.89339  0.63453  0.80942  1.0000
  C   C1697     1.0  0.88723  0.62659  0.79709  1.0000
  H   H2702     1.0  0.85644  0.59658  0.82958  1.0000
  H   H2703     1.0  0.86820  0.60960  0.85139  1.0000
  H   H2704     1.0  0.91819  0.52517  0.85557  1.0000
  C   C1698     1.0  0.96635  0.53238  0.78869  1.0000
  H   H2705     1.0  0.90369  0.64514  0.80376  1.0000
  H   H2706     1.0  0.92266  0.52278  0.83145  1.0000
  N   N173      1.0  0.89895  0.54838  0.83872  1.0000
  H   H2707     1.0  0.90109  0.54580  0.81033  1.0000
  C   C1699     1.0  0.91316  0.56267  0.83293  1.0000
  C   C1700     1.0  0.95101  0.50759  0.73907  1.0000
  H   H2708     1.0  0.95578  0.54661  0.79060  1.0000
  C   C1701     1.0  0.88282  0.55341  0.85532  1.0000
  H   H2709     1.0  0.80695  0.63999  0.86361  1.0000
  C   C1702     1.0  0.91053  0.52712  0.84378  1.0000
  C   C1703     1.0  0.90698  0.63771  0.96282  1.0000
  C   C1704     1.0  0.78558  0.60991  0.88918  1.0000
  C   C1705     1.0  0.88938  0.55021  0.82283  1.0000
  H   H2710     1.0  0.89285  0.63103  0.78192  1.0000
  H   H2711     1.0  0.86559  0.65913  0.92603  1.0000
  H   H2712     1.0  0.79836  0.63705  0.95082  1.0000
  Fe  Fe340     1.0  0.93830  0.59178  0.75261  1.0000
  H   H2713     1.0  0.87163  0.54312  0.86006  1.0000
  H   H2714     1.0  0.86819  0.63227  0.95964  1.0000
  H   H2715     1.0  0.82250  0.61670  0.82180  1.0000
  C   C1706     1.0  0.68275  0.63282  0.83766  1.0000
  H   H2716     1.0  0.81286  0.65419  0.97336  1.0000
  H   H2717     1.0  0.79936  0.61477  0.83973  1.0000
  H   H2718     1.0  0.87391  0.56938  0.85213  1.0000
  S   S673      1.0  0.75533  0.61387  0.87035  1.0000
  H   H2719     1.0  0.88944  0.55203  0.86766  1.0000
  H   H2720     1.0  0.77710  0.62398  0.89347  1.0000
  S   S674      1.0  0.96334  0.60827  0.74860  1.0000
  H   H2721     1.0  0.87810  0.54010  0.82687  1.0000
  H   H2722     1.0  0.69085  0.61721  0.84196  1.0000
  C   C1707     1.0  0.79794  0.64790  0.85251  1.0000
  H   H2723     1.0  0.71965  0.64879  0.77868  1.0000
  H   H2724     1.0  0.69683  0.64580  0.79655  1.0000
  H   H2725     1.0  0.82283  0.61262  0.84649  1.0000
  H   H2726     1.0  0.69326  0.61613  0.78669  1.0000
  Fe  Fe341     1.0  0.74258  0.64657  0.87275  1.0000
  C   C1708     1.0  0.67187  0.65267  0.77232  1.0000
  N   N174      1.0  0.76721  0.65414  0.95484  1.0000
  N   N175      1.0  0.69446  0.64604  0.76859  1.0000
  S   S675      1.0  0.90982  0.60719  0.74145  1.0000
  H   H2727     1.0  0.66527  0.64814  0.76252  1.0000
  S   S676      1.0  0.94414  0.56357  0.74149  1.0000
  H   H2728     1.0  0.84401  0.63909  0.95286  1.0000
  H   H2729     1.0  0.99228  0.54250  0.79088  1.0000
  C   C1709     1.0  0.82835  0.65096  0.82781  1.0000
  S   S677      1.0  0.70882  0.65644  0.88302  1.0000
  H   H2730     1.0  0.83802  0.64423  0.83852  1.0000
  C   C1710     1.0  0.66679  0.63669  0.82817  1.0000
  H   H2731     1.0  0.83762  0.64704  0.81413  1.0000
  C   C1711     1.0  0.82062  0.64779  0.98549  1.0000
  H   H2732     1.0  0.78300  0.64295  0.85722  1.0000
  H   H2733     1.0  0.76281  0.64539  0.93111  1.0000
  C   C1712     1.0  0.76673  0.65829  0.93457  1.0000
  H   H2734     1.0  0.78183  0.64745  0.82368  1.0000
  S   S678      1.0  0.90244  0.65820  0.97378  1.0000
  H   H2735     1.0  0.90652  0.61410  0.98847  1.0000
  H   H2736     1.0  0.91756  0.66562  0.10189  1.0000
  Fe  Fe342     1.0  0.90408  0.67659  0.02937  1.0000
  H   H2737     1.0  0.90309  0.68771  0.08867  1.0000
  Fe  Fe343     1.0  0.72903  0.70696  0.00209  1.0000
  H   H2738     1.0  0.95161  0.67513  0.05375  1.0000
  C   C1713     1.0  0.91708  0.68203  0.09471  1.0000
  H   H2739     1.0  0.96886  0.90483  0.19387  1.0000
  C   C1714     1.0  0.82915  0.70214  0.05734  1.0000
  S   S679      1.0  0.89076  0.97261  0.10966  1.0000
  H   H2740     1.0  0.86065  0.71415  0.08420  1.0000
  S   S680      1.0  0.75758  0.70010  0.01329  1.0000
  C   C1715     1.0  0.87091  0.90465  0.21295  1.0000
  C   C1716     1.0  0.95402  0.67632  0.08853  1.0000
  H   H2741     1.0  0.66714  0.71188  0.07064  1.0000
  H   H2742     1.0  0.96918  0.91828  0.16981  1.0000
  C   C1717     1.0  0.87251  0.93929  0.21279  1.0000
  H   H2743     1.0  0.67910  0.67480  0.10341  1.0000
  H   H2744     1.0  0.81799  0.69469  0.06921  1.0000
  C   C1718     1.0  0.87152  0.91031  0.19340  1.0000
  H   H2745     1.0  0.69489  0.68331  0.08083  1.0000
  N   N176      1.0  0.93588  0.68466  0.07989  1.0000
  C   C1719     1.0  0.93485  0.70672  0.07118  1.0000
  Fe  Fe344     1.0  0.70517  0.68459  0.03870  1.0000
  C   C1720     1.0  0.83512  0.73247  0.03326  1.0000
  H   H2746     1.0  0.93367  0.71562  0.08182  1.0000
  H   H2747     1.0  0.93732  0.94022  0.16064  1.0000
  Fe  Fe345     1.0  0.73641  0.70767  0.04004  1.0000
  S   S681      1.0  0.67332  0.67873  0.05319  1.0000
  C   C1721     1.0  0.89023  0.74245  0.03669  1.0000
  C   C1722     1.0  0.69315  0.72096  0.08567  1.0000
  H   H2748     1.0  0.88172  0.72412  0.99604  1.0000
  S   S682      1.0  0.91086  0.70744  0.02483  1.0000
  S   S683      1.0  0.73184  0.67539  0.05280  1.0000
  C   C1723     1.0  0.90027  0.98629  0.12085  1.0000
  Fe  Fe346     1.0  0.75077  0.66869  0.02494  1.0000
  H   H2749     1.0  0.88499  0.69439  0.06134  1.0000
  S   S684      1.0  0.70821  0.71760  0.02786  1.0000
  C   C1724     1.0  0.89340  0.72111  0.04094  1.0000
  S   S685      1.0  0.74377  0.72243  0.06002  1.0000
  H   H2750     1.0  0.84766  0.73442  0.03881  1.0000
  H   H2751     1.0  0.87056  0.88896  0.22044  1.0000
  H   H2752     1.0  0.92424  0.67958  0.05825  1.0000
  C   C1725     1.0  0.87147  0.91914  0.22267  1.0000
  N   N177      1.0  0.81964  0.72317  0.04871  1.0000
  C   C1726     1.0  0.96162  0.91898  0.18476  1.0000
  C   C1727     1.0  0.86899  0.72202  0.07099  1.0000
  H   H2753     1.0  0.80107  0.67252  0.06042  1.0000
  S   S686      1.0  0.86577  0.80623  0.99372  1.0000
  H   H2754     1.0  0.84231  0.70198  0.06316  1.0000
  S   S687      1.0  0.87634  0.95734  0.22324  1.0000
  C   C1728     1.0  0.80247  0.72245  0.04097  1.0000
  H   H2755     1.0  0.70302  0.68137  0.10204  1.0000
  H   H2756     1.0  0.83500  0.69227  0.04678  1.0000
  C   C1729     1.0  0.88269  0.71086  0.05802  1.0000
  C   C1730     1.0  0.81182  0.73559  0.06329  1.0000
  H   H2757     1.0  0.82413  0.73559  0.07015  1.0000
  H   H2758     1.0  0.69963  0.71942  0.07072  1.0000
  H   H2759     1.0  0.79933  0.72969  0.07469  1.0000
  C   C1731     1.0  0.80464  0.66040  0.05285  1.0000
  C   C1732     1.0  0.99545  0.90397  0.13669  1.0000
  C   C1733     1.0  0.91589  0.97645  0.13073  1.0000
  H   H2760     1.0  0.94242  0.90206  0.16842  1.0000
  C   C1734     1.0  0.99295  0.93971  0.13596  1.0000
  H   H2761     1.0  0.68563  0.73734  0.08533  1.0000
  C   C1735     1.0  0.87234  0.94502  0.19346  1.0000
  H   H2762     1.0  0.80565  0.75187  0.05707  1.0000
  H   H2763     1.0  0.79046  0.71555  0.05228  1.0000
  H   H2764     1.0  0.96530  0.93237  0.18762  1.0000
  N   N178      1.0  0.67864  0.70719  0.09565  1.0000
  S   S688      1.0  0.72376  0.67484  0.01179  1.0000
  H   H2765     1.0  0.92274  0.96055  0.13096  1.0000
  H   H2766     1.0  0.88098  0.85326  0.14457  1.0000
  H   H2767     1.0  0.81827  0.85747  0.14474  1.0000
  H   H2768     1.0  0.80773  0.71310  0.03000  1.0000
  Fe  Fe347     1.0  0.89882  0.93793  0.11805  1.0000
  H   H2769     1.0  0.82457  0.86248  0.16449  1.0000
  C   C1736     1.0  0.87599  0.75360  0.04931  1.0000
  C   C1737     1.0  0.83011  0.85322  0.15341  1.0000
  N   N179      1.0  0.93923  0.92075  0.18808  1.0000
  S   S689      1.0  0.87322  0.89189  0.18065  1.0000
  Fe  Fe348     1.0  0.83553  0.78765  0.06253  1.0000
  S   S690      1.0  0.80634  0.81000  0.07058  1.0000
  S   S691      1.0  0.84626  0.75753  0.08130  1.0000
  Fe  Fe349     1.0  0.84495  0.81124  0.02175  1.0000
  S   S692      1.0  0.81690  0.83607  0.02663  1.0000
  H   H2770     1.0  0.94137  0.88827  0.19254  1.0000
  Fe  Fe350     1.0  0.82548  0.83370  0.05421  1.0000
  S   S693      1.0  0.82305  0.86161  0.06583  1.0000
  Fe  Fe351     1.0  0.80063  0.81017  0.04244  1.0000
  S   S694      1.0  0.77257  0.80743  0.03400  1.0000
  S   S695      1.0  0.85504  0.81099  0.04785  1.0000
  S   S696      1.0  0.82823  0.78580  0.03601  1.0000
  Fe  Fe352     1.0  0.88937  0.90216  0.15035  1.0000
  S   S697      1.0  0.91192  0.87919  0.13506  1.0000
  Fe  Fe353     1.0  0.93290  0.90124  0.12651  1.0000
  S   S698      1.0  0.96590  0.88978  0.12922  1.0000
  Fe  Fe354     1.0  0.89916  0.89722  0.10946  1.0000
  S   S699      1.0  0.89743  0.87617  0.09167  1.0000
  H   H2771     1.0  0.91838  0.90404  0.18544  1.0000
  C   C1738     1.0  0.97662  0.90905  0.13119  1.0000
  H   H2772     1.0  0.74622  0.75289  0.02417  1.0000
  C   C1739     1.0  0.93518  0.90301  0.18345  1.0000
  H   H2773     1.0  0.87302  0.96060  0.18575  1.0000
  C   C1740     1.0  0.97428  0.94477  0.13026  1.0000
  C   C1741     1.0  0.96622  0.92948  0.12771  1.0000
  H   H2774     1.0  0.96604  0.96056  0.12770  1.0000
  H   H2775     1.0  0.93197  0.93466  0.21206  1.0000
  H   H2776     1.0  0.95194  0.93349  0.12302  1.0000
  C   C1742     1.0  0.84406  0.86604  0.07222  1.0000
  C   C1743     1.0  0.86293  0.85215  0.07104  1.0000
  C   C1744     1.0  0.87921  0.85587  0.07657  1.0000
  C   C1745     1.0  0.87681  0.87343  0.08348  1.0000
  C   C1746     1.0  0.85802  0.88750  0.08449  1.0000
  C   C1747     1.0  0.84171  0.88376  0.07894  1.0000
  H   H2777     1.0  0.86502  0.83850  0.06588  1.0000
  H   H2778     1.0  0.89370  0.84494  0.07564  1.0000
  H   H2779     1.0  0.85608  0.90128  0.08944  1.0000
  H   H2780     1.0  0.82721  0.89470  0.07973  1.0000
  S   S700      1.0  0.92211  0.91783  0.09972  1.0000
  H   H2781     1.0  0.91297  0.92199  0.21122  1.0000
  C   C1748     1.0  0.75154  0.75802  0.03397  1.0000
  C   C1749     1.0  0.75811  0.77678  0.02841  1.0000
  C   C1750     1.0  0.76521  0.78350  0.04100  1.0000
  C   C1751     1.0  0.76542  0.77150  0.05927  1.0000
  C   C1752     1.0  0.75846  0.75299  0.06495  1.0000
  H   H2782     1.0  0.84368  0.88862  0.14281  1.0000
  H   H2783     1.0  0.75770  0.78616  0.01434  1.0000
  H   H2784     1.0  0.77048  0.77678  0.06916  1.0000
  C   C1753     1.0  0.86538  0.74344  0.06646  1.0000
  S   S701      1.0  0.87475  0.91878  0.12560  1.0000
  S   S702      1.0  0.91143  0.92271  0.14407  1.0000
  C   C1754     1.0  0.87190  0.93059  0.18379  1.0000
  H   H2785     1.0  0.87254  0.84604  0.11821  1.0000
  H   H2786     1.0  0.84640  0.84941  0.11678  1.0000
  H   H2787     1.0  0.87183  0.93524  0.16884  1.0000
  H   H2788     1.0  0.83097  0.83680  0.16070  1.0000
  H   H2789     1.0  0.85754  0.82789  0.13319  1.0000
  H   H2790     1.0  0.83670  0.88394  0.12324  1.0000
  H   H2791     1.0  0.93282  0.95368  0.17913  1.0000
  H   H2792     1.0  0.96851  0.67809  0.07780  1.0000
  H   H2793     1.0  0.84224  0.72287  0.02257  1.0000
  H   H2794     1.0  0.91353  0.94162  0.17775  1.0000
  H   H2795     1.0  0.87328  0.77012  0.04568  1.0000
  H   H2796     1.0  0.86730  0.83455  0.16081  1.0000
  H   H2797     1.0  0.86138  0.86040  0.16422  1.0000
  N   N180      1.0  0.85022  0.85684  0.14147  1.0000
  C   C1755     1.0  0.85691  0.84448  0.12683  1.0000
  C   C1756     1.0  0.84829  0.87882  0.13223  1.0000
  C   C1757     1.0  0.86559  0.85096  0.15335  1.0000
  H   H2798     1.0  0.90646  0.98712  0.21457  1.0000
  C   C1758     1.0  0.93036  0.93991  0.17589  1.0000
  C   C1759     1.0  0.93758  0.67355  0.06516  1.0000
  H   H2799     1.0  0.86314  0.88196  0.12288  1.0000
  H   H2800     1.0  0.79491  0.73812  0.03441  1.0000
  C   C1760     1.0  0.92977  0.92113  0.20819  1.0000
  S   S703      1.0  0.87786  0.67467  0.01867  1.0000
  H   H2801     1.0  0.92122  0.71350  0.06468  1.0000
  H   H2802     1.0  0.93635  0.90708  0.21785  1.0000
  H   H2803     1.0  0.82817  0.74796  0.02580  1.0000
  H   H2804     1.0  0.75841  0.74396  0.07922  1.0000
  C   C1761     1.0  0.75159  0.74615  0.05234  1.0000
  H   H2805     1.0  0.89844  0.75047  0.02348  1.0000
  C   C1762     1.0  0.92297  0.98734  0.13996  1.0000
  H   H2806     1.0  0.91511  0.69053  0.10588  1.0000
  H   H2807     1.0  0.70644  0.71740  0.09252  1.0000
  H   H2808     1.0  0.68319  0.70546  0.12324  1.0000
  H   H2809     1.0  0.93508  0.97962  0.14752  1.0000
  H   H2810     1.0  0.87161  0.91461  0.23761  1.0000
  C   C1763     1.0  0.68940  0.68573  0.09554  1.0000
  H   H2811     1.0  0.94863  0.70928  0.05971  1.0000
  H   H2812     1.0  0.95314  0.68415  0.09990  1.0000
  C   C1764     1.0  0.67059  0.70954  0.11546  1.0000
  H   H2813     1.0  0.77600  0.66981  0.04401  1.0000
  H   H2814     1.0  0.67141  0.74230  0.43297  1.0000
  C   C1765     1.0  0.69197  0.89574  0.40344  1.0000
  Fe  Fe355     1.0  0.87524  0.98470  0.27469  1.0000
  H   H2815     1.0  0.77622  0.79028  0.35433  1.0000
  H   H2816     1.0  0.87714  0.89043  0.32682  1.0000
  H   H2817     1.0  0.90494  0.92531  0.33432  1.0000
  S   S704      1.0  0.80701  0.85982  0.36990  1.0000
  C   C1766     1.0  0.86480  0.90267  0.35977  1.0000
  C   C1767     1.0  0.80062  0.81780  0.34372  1.0000
  C   C1768     1.0  0.76855  0.80667  0.35038  1.0000
  Fe  Fe356     1.0  0.85479  0.94852  0.29627  1.0000
  S   S705      1.0  0.87829  0.92645  0.27993  1.0000
  S   S706      1.0  0.82818  0.94535  0.32154  1.0000
  H   H2818     1.0  0.89639  0.90560  0.31603  1.0000
  C   C1769     1.0  0.89052  0.92333  0.34520  1.0000
  Fe  Fe357     1.0  0.90097  0.94189  0.28422  1.0000
  S   S707      1.0  0.93000  0.92543  0.29430  1.0000
  S   S708      1.0  0.87779  0.96210  0.30203  1.0000
  S   S709      1.0  0.85031  0.97297  0.27022  1.0000
  H   H2819     1.0  0.79058  0.90155  0.37517  1.0000
  H   H2820     1.0  0.71725  0.77262  0.42087  1.0000
  C   C1770     1.0  0.76841  0.84191  0.34901  1.0000
  H   H2821     1.0  0.76861  0.84649  0.33357  1.0000
  H   H2822     1.0  0.89655  0.87173  0.35184  1.0000
  C   C1771     1.0  0.71625  0.81924  0.39050  1.0000
  H   H2823     1.0  0.75204  0.84442  0.35674  1.0000
  H   H2824     1.0  0.85234  0.91602  0.35602  1.0000
  H   H2825     1.0  0.86614  0.90217  0.37430  1.0000
  H   H2826     1.0  0.92283  0.96951  0.28293  1.0000
  C   C1772     1.0  0.93886  0.96378  0.28321  1.0000
  C   C1773     1.0  0.90061  0.88640  0.35134  1.0000
  H   H2827     1.0  0.75230  0.80818  0.35853  1.0000
  C   C1774     1.0  0.97287  0.97054  0.27819  1.0000
  N   N181      1.0  0.88444  0.90422  0.34585  1.0000
  H   H2828     1.0  0.70740  0.86415  0.41043  1.0000
  C   C1775     1.0  0.77878  0.81514  0.37500  1.0000
  C   C1776     1.0  0.81241  0.88370  0.35624  1.0000
  C   C1777     1.0  0.80219  0.90192  0.36214  1.0000
  C   C1778     1.0  0.80702  0.92071  0.35120  1.0000
  C   C1779     1.0  0.82199  0.92147  0.33424  1.0000
  C   C1780     1.0  0.83203  0.90328  0.32816  1.0000
  C   C1781     1.0  0.82737  0.88443  0.33923  1.0000
  H   H2829     1.0  0.84324  0.90376  0.31488  1.0000
  H   H2830     1.0  0.83520  0.87040  0.33450  1.0000
  H   H2831     1.0  0.76831  0.81024  0.33507  1.0000
  H   H2832     1.0  0.71831  0.81213  0.45898  1.0000
  H   H2833     1.0  0.87843  0.93704  0.34149  1.0000
  C   C1782     1.0  0.88186  0.90453  0.32692  1.0000
  S   S710      1.0  0.73725  0.80434  0.41948  1.0000
  H   H2834     1.0  0.78642  0.79891  0.37976  1.0000
  H   H2835     1.0  0.71288  0.94273  0.48298  1.0000
  H   H2836     1.0  0.91557  0.88723  0.34100  1.0000
  H   H2837     1.0  0.90303  0.88565  0.36557  1.0000
  S   S711      1.0  0.68013  0.79824  0.36905  1.0000
  H   H2838     1.0  0.77581  0.85266  0.35219  1.0000
  H   H2839     1.0  0.72192  0.83313  0.38758  1.0000
  C   C1783     1.0  0.70377  0.81751  0.37932  1.0000
  C   C1784     1.0  0.69595  0.79972  0.38322  1.0000
  H   H2840     1.0  0.86989  0.91789  0.32231  1.0000
  C   C1785     1.0  0.73688  0.90517  0.48305  1.0000
  C   C1786     1.0  0.70066  0.78364  0.39835  1.0000
  H   H2841     1.0  0.80924  0.80177  0.34761  1.0000
  H   H2842     1.0  0.85950  0.88864  0.36032  1.0000
  N   N182      1.0  0.77909  0.82037  0.35451  1.0000
  Fe  Fe358     1.0  0.87579  0.95248  0.25422  1.0000
  C   C1787     1.0  0.95203  0.97759  0.27781  1.0000
  H   H2843     1.0  0.80883  0.82807  0.34661  1.0000
  H   H2844     1.0  0.69993  0.83012  0.36779  1.0000
  S   S712      1.0  0.90056  0.96576  0.25727  1.0000
  C   C1788     1.0  0.96721  0.93567  0.28978  1.0000
  H   H2845     1.0  0.79909  0.93472  0.35595  1.0000
  C   C1789     1.0  0.94645  0.94275  0.28887  1.0000
  Fe  Fe359     1.0  0.74805  0.83356  0.41538  1.0000
  H   H2846     1.0  0.76279  0.81718  0.38357  1.0000
  H   H2847     1.0  0.89318  0.92345  0.35909  1.0000
  H   H2848     1.0  0.78680  0.82501  0.37861  1.0000
  H   H2849     1.0  0.75503  0.81064  0.45598  1.0000
  C   C1790     1.0  0.98045  0.94957  0.28445  1.0000
  C   C1791     1.0  0.67475  0.90907  0.39742  1.0000
  H   H2850     1.0  0.80152  0.82160  0.32817  1.0000
  H   H2851     1.0  0.72615  0.89732  0.48043  1.0000
  H   H2852     1.0  0.97317  0.91942  0.29417  1.0000
  H   H2853     1.0  0.76015  0.78337  0.45886  1.0000
  S   S713      1.0  0.76810  0.88127  0.41564  1.0000
  H   H2854     1.0  0.75091  0.89343  0.48541  1.0000
  S   S714      1.0  0.73328  0.85284  0.43679  1.0000
  Fe  Fe360     1.0  0.76516  0.85253  0.43842  1.0000
  S   S715      1.0  0.76811  0.84204  0.46887  1.0000
  C   C1792     1.0  0.79629  0.88038  0.48019  1.0000
  C   C1793     1.0  0.78910  0.87020  0.47029  1.0000
  C   C1794     1.0  0.77690  0.85584  0.48035  1.0000
  H   H2855     1.0  0.80599  0.89125  0.47245  1.0000
  H   H2856     1.0  0.79328  0.87313  0.45498  1.0000
  N   N183      1.0  0.73563  0.79531  0.48020  1.0000
  H   H2857     1.0  0.67302  0.92546  0.39541  1.0000
  H   H2858     1.0  0.69470  0.76987  0.40146  1.0000
  H   H2859     1.0  0.66708  0.80118  0.45684  1.0000
  H   H2860     1.0  0.68151  0.85040  0.40395  1.0000
  H   H2861     1.0  0.70438  0.79705  0.47949  1.0000
  S   S716      1.0  0.71019  0.90529  0.40886  1.0000
  H   H2862     1.0  0.76799  0.79461  0.47406  1.0000
  H   H2863     1.0  0.81606  0.99210  0.30246  1.0000
  Fe  Fe361     1.0  0.78031  0.85983  0.39542  1.0000
  C   C1795     1.0  0.67950  0.86676  0.40208  1.0000
  C   C1796     1.0  0.69431  0.87460  0.40569  1.0000
  C   C1797     1.0  0.75562  0.79592  0.46669  1.0000
  H   H2864     1.0  0.74139  0.91663  0.46988  1.0000
  S   S717      1.0  0.74959  0.86030  0.39060  1.0000
  H   H2865     1.0  0.67092  0.91793  0.44113  1.0000
  H   H2866     1.0  0.74108  0.76234  0.48718  1.0000
  H   H2867     1.0  0.83827  0.98498  0.32490  1.0000
  C   C1798     1.0  0.67881  0.74919  0.45631  1.0000
  C   C1799     1.0  0.71343  0.78523  0.40931  1.0000
  H   H2868     1.0  0.67804  0.89077  0.44284  1.0000
  H   H2869     1.0  0.69464  0.74947  0.44916  1.0000
  Fe  Fe362     1.0  0.73729  0.87948  0.41241  1.0000
  S   S718      1.0  0.77987  0.83119  0.41857  1.0000
  H   H2870     1.0  0.72320  0.78479  0.46218  1.0000
  C   C1800     1.0  0.71966  0.79746  0.46976  1.0000
  C   C1801     1.0  0.72123  0.80302  0.40545  1.0000
  H   H2871     1.0  0.67768  0.90100  0.46239  1.0000
  C   C1802     1.0  0.67150  0.75309  0.47457  1.0000
  S   S719      1.0  0.66648  0.74101  0.39347  1.0000
  C   C1803     1.0  0.66954  0.90281  0.45096  1.0000
  H   H2872     1.0  0.72903  0.82749  0.48008  1.0000
  H   H2873     1.0  0.66654  0.83351  0.33916  1.0000
  H   H2874     1.0  0.99655  0.94405  0.28476  1.0000
  C   C1804     1.0  0.66856  0.80414  0.44124  1.0000
  S   S720      1.0  0.68822  0.75875  0.48532  1.0000
  S   S721      1.0  0.98884  0.98851  0.27021  1.0000
  H   H2875     1.0  0.67504  0.78915  0.43706  1.0000
  H   H2876     1.0  0.68011  0.81393  0.43413  1.0000
  C   C1805     1.0  0.66569  0.74514  0.44713  1.0000
  C   C1806     1.0  0.70636  0.95458  0.61930  1.0000
  H   H2877     1.0  0.71135  0.96234  0.62786  1.0000
  H   H2878     1.0  0.70698  0.90548  0.61898  1.0000
  S   S722      1.0  0.80960  0.86745  0.60286  1.0000
  S   S723      1.0  0.68057  0.98214  0.51582  1.0000
  H   H2879     1.0  0.90080  0.94377  0.71971  1.0000
  H   H2880     1.0  0.95346  0.94453  0.69058  1.0000
  H   H2881     1.0  0.94460  0.97384  0.64581  1.0000
  C   C1807     1.0  0.83710  0.86581  0.55093  1.0000
  H   H2882     1.0  0.69279  0.83197  0.58513  1.0000
  Fe  Fe363     1.0  0.78303  0.88695  0.54285  1.0000
  S   S724      1.0  0.78289  0.85835  0.56595  1.0000
  C   C1808     1.0  0.70906  0.93049  0.49571  1.0000
  H   H2883     1.0  0.68484  0.85123  0.52536  1.0000
  S   S725      1.0  0.74909  0.89858  0.54984  1.0000
  S   S726      1.0  0.78965  0.90528  0.55994  1.0000
  S   S727      1.0  0.98183  0.96768  0.65782  1.0000
  C   C1809     1.0  0.97330  0.91765  0.64534  1.0000
  H   H2884     1.0  0.91301  0.66197  0.65723  1.0000
  H   H2885     1.0  0.93674  0.92850  0.70664  1.0000
  H   H2886     1.0  0.77430  0.85941  0.52535  1.0000
  H   H2887     1.0  0.69274  0.80640  0.56767  1.0000
  H   H2888     1.0  0.82915  0.87538  0.53941  1.0000
  C   C1810     1.0  0.72107  0.97759  0.54730  1.0000
  C   C1811     1.0  0.69662  0.97244  0.53213  1.0000
  S   S728      1.0  0.87138  0.98492  0.66903  1.0000
  H   H2889     1.0  0.68694  0.92785  0.61512  1.0000
  N   N184      1.0  0.92382  0.96085  0.70278  1.0000
  H   H2890     1.0  0.82518  0.86385  0.56429  1.0000
  C   C1812     1.0  0.72373  0.95700  0.55686  1.0000
  H   H2891     1.0  0.85112  0.86074  0.58230  1.0000
  H   H2892     1.0  0.86982  0.84657  0.56627  1.0000
  H   H2893     1.0  0.83139  0.89502  0.56996  1.0000
  C   C1813     1.0  0.74000  0.81686  0.54619  1.0000
  C   C1814     1.0  0.69896  0.95200  0.54213  1.0000
  N   N185      1.0  0.85303  0.87527  0.55280  1.0000
  C   C1815     1.0  0.86879  0.87710  0.53494  1.0000
  C   C1816     1.0  0.84353  0.89587  0.55671  1.0000
  H   H2894     1.0  0.84370  0.85036  0.54771  1.0000
  S   S729      1.0  0.72202  0.85581  0.58223  1.0000
  C   C1817     1.0  0.86265  0.86232  0.56860  1.0000
  Fe  Fe364     1.0  0.74904  0.87137  0.57426  1.0000
  H   H2895     1.0  0.83619  0.90615  0.54506  1.0000
  H   H2896     1.0  0.74213  0.81120  0.49806  1.0000
  H   H2897     1.0  0.71070  0.89098  0.51448  1.0000
  N   N186      1.0  0.71072  0.93206  0.62617  1.0000
  H   H2898     1.0  0.70156  0.93819  0.50777  1.0000
  H   H2899     1.0  0.82673  0.97005  0.64437  1.0000
  H   H2900     1.0  0.98124  0.90194  0.64528  1.0000
  C   C1818     1.0  0.70376  0.92250  0.61437  1.0000
  H   H2901     1.0  0.87636  0.86180  0.53162  1.0000
  C   C1819     1.0  0.81739  0.88614  0.60977  1.0000
  H   H2902     1.0  0.83602  0.98174  0.65801  1.0000
  H   H2903     1.0  0.74188  0.92834  0.61006  1.0000
  H   H2904     1.0  0.91541  0.99350  0.69251  1.0000
  H   H2905     1.0  0.93239  0.94077  0.68336  1.0000
  H   H2906     1.0  0.73881  0.93137  0.63364  1.0000
  H   H2907     1.0  0.69085  0.94191  0.54011  1.0000
  S   S730      1.0  0.69617  0.74731  0.53623  1.0000
  H   H2908     1.0  0.85497  0.90335  0.55860  1.0000
  Fe  Fe365     1.0  0.78672  0.87791  0.58386  1.0000
  H   H2909     1.0  0.92971  0.94875  0.73079  1.0000
  H   H2910     1.0  0.89192  0.97118  0.71492  1.0000
  C   C1820     1.0  0.70581  0.82810  0.57401  1.0000
  C   C1821     1.0  0.82630  0.98497  0.64753  1.0000
  Fe  Fe366     1.0  0.67681  0.76409  0.51502  1.0000
  H   H2911     1.0  0.87469  0.86901  0.57050  1.0000
  C   C1822     1.0  0.71246  0.94429  0.55448  1.0000
  H   H2912     1.0  0.75301  0.83868  0.55242  1.0000
  H   H2913     1.0  0.70439  0.93376  0.65543  1.0000
  C   C1823     1.0  0.72275  0.83735  0.56975  1.0000
  S   S731      1.0  0.74174  0.94692  0.57115  1.0000
  Fe  Fe367     1.0  0.75560  0.91426  0.56920  1.0000
  Fe  Fe368     1.0  0.69498  0.77824  0.54093  1.0000
  C   C1824     1.0  0.73981  0.83180  0.55570  1.0000
  C   C1825     1.0  0.72167  0.89892  0.51651  1.0000
  C   C1826     1.0  0.72302  0.80768  0.55040  1.0000
  H   H2914     1.0  0.75344  0.81226  0.53565  1.0000
  S   S732      1.0  0.67780  0.79482  0.51806  1.0000
  H   H2915     1.0  0.94681  0.96468  0.71500  1.0000
  C   C1827     1.0  0.92519  0.97958  0.68759  1.0000
  C   C1828     1.0  0.94331  0.94473  0.64171  1.0000
  C   C1829     1.0  0.70580  0.81353  0.56420  1.0000
  S   S733      1.0  0.72408  0.78853  0.53861  1.0000
  H   H2916     1.0  0.67379  0.86071  0.55851  1.0000
  C   C1830     1.0  0.77843  0.86251  0.51003  1.0000
  H   H2917     1.0  0.71406  0.92852  0.56221  1.0000
  H   H2918     1.0  0.88095  0.88437  0.53577  1.0000
  S   S734      1.0  0.75284  0.88816  0.59441  1.0000
  H   H2919     1.0  0.79727  0.91201  0.59619  1.0000
  S   S735      1.0  0.79996  0.88931  0.51238  1.0000
  C   C1831     1.0  0.81620  0.92166  0.60924  1.0000
  H   H2920     1.0  0.75660  0.91317  0.50561  1.0000
  S   S736      1.0  0.94123  0.90744  0.63751  1.0000
  C   C1832     1.0  0.70766  0.98525  0.53480  1.0000
  C   C1833     1.0  0.83151  0.91555  0.61984  1.0000
  H   H2921     1.0  0.97944  0.66267  0.69319  1.0000
  Fe  Fe369     1.0  0.86307  0.92716  0.64417  1.0000
  S   S737      1.0  0.88352  0.89806  0.65666  1.0000
  S   S738      1.0  0.84003  0.93461  0.62547  1.0000
  Fe  Fe370     1.0  0.87746  0.95406  0.66186  1.0000
  S   S739      1.0  0.89896  0.92772  0.67547  1.0000
  Fe  Fe371     1.0  0.90732  0.91756  0.64814  1.0000
  Fe  Fe372     1.0  0.87378  0.91052  0.68321  1.0000
  S   S740      1.0  0.86684  0.89496  0.71409  1.0000
  S   S741      1.0  0.88792  0.94558  0.63356  1.0000
  S   S742      1.0  0.85134  0.93771  0.67163  1.0000
  C   C1834     1.0  0.69966  0.92668  0.64612  1.0000
  H   H2922     1.0  0.71163  0.92642  0.59920  1.0000
  C   C1835     1.0  0.88661  0.89658  0.72371  1.0000
  C   C1836     1.0  0.90711  0.88981  0.71521  1.0000
  C   C1837     1.0  0.92294  0.89132  0.72272  1.0000
  C   C1838     1.0  0.67054  0.87455  0.56444  1.0000
  H   H2923     1.0  0.89645  0.95753  0.69671  1.0000
  C   C1839     1.0  0.79100  0.87649  0.50008  1.0000
  H   H2924     1.0  0.91078  0.88338  0.70280  1.0000
  H   H2925     1.0  0.93878  0.88605  0.71604  1.0000
  C   C1840     1.0  0.98243  0.93095  0.64996  1.0000
  H   H2926     1.0  0.73695  0.90751  0.62986  1.0000
  C   C1841     1.0  0.83972  0.89463  0.62543  1.0000
  H   H2927     1.0  0.85150  0.88973  0.63361  1.0000
  H   H2928     1.0  0.68336  0.87300  0.57132  1.0000
  Fe  Fe373     1.0  0.66620  0.74791  0.55767  1.0000
  C   C1842     1.0  0.93717  0.94288  0.69554  1.0000
  H   H2929     1.0  0.69751  0.92358  0.49327  1.0000
  S   S743      1.0  0.66691  0.77732  0.56451  1.0000
  H   H2930     1.0  0.86188  0.88663  0.52275  1.0000
  C   C1843     1.0  0.73305  0.92447  0.62491  1.0000
  C   C1844     1.0  0.95357  0.92444  0.64155  1.0000
  H   H2931     1.0  0.83918  0.86385  0.62470  1.0000
  C   C1845     1.0  0.91836  0.89978  0.73865  1.0000
  H   H2932     1.0  0.92821  0.95014  0.63857  1.0000
  C   C1846     1.0  0.97192  0.95114  0.65041  1.0000
  H   H2933     1.0  0.76215  0.84099  0.50803  1.0000
  C   C1847     1.0  0.93061  0.96271  0.71912  1.0000
  H   H2934     1.0  0.70261  0.90979  0.65174  1.0000
  H   H2935     1.0  0.80976  0.93780  0.60486  1.0000
  C   C1848     1.0  0.95259  0.95812  0.64586  1.0000
  C   C1849     1.0  0.83271  0.88000  0.62036  1.0000
  H   H2936     1.0  0.66550  0.69344  0.55242  1.0000
  C   C1850     1.0  0.80911  0.90705  0.60429  1.0000
  C   C1851     1.0  0.66851  0.85395  0.52613  1.0000
  H   H2937     1.0  0.71444  0.95914  0.60426  1.0000
  S   S744      1.0  0.67122  0.89327  0.50825  1.0000
  H   H2938     1.0  0.68276  0.93213  0.64759  1.0000
  H   H2939     1.0  0.68967  0.96081  0.61998  1.0000
  H   H2940     1.0  0.92090  0.97609  0.72502  1.0000
  H   H2941     1.0  0.71425  0.90565  0.52919  1.0000
  H   H2942     1.0  0.67113  0.88799  0.55228  1.0000
  H   H2943     1.0  0.85532  0.97624  0.61724  1.0000
  H   H2944     1.0  0.91996  0.97862  0.67518  1.0000
  H   H2945     1.0  0.72982  0.98745  0.54911  1.0000
  H   H2946     1.0  0.66387  0.66332  0.54200  1.0000
  H   H2947     1.0  0.74723  0.93660  0.49015  1.0000
  H   H2948     1.0  0.73530  0.88689  0.51981  1.0000
  H   H2949     1.0  0.73582  0.93207  0.51503  1.0000
  C   C1852     1.0  0.90232  0.95819  0.70884  1.0000
  H   H2950     1.0  0.74872  0.77354  0.50253  1.0000
  H   H2951     1.0  0.67428  0.70665  0.52847  1.0000
  H   H2952     1.0  0.91755  0.66155  0.68963  1.0000
  C   C1853     1.0  0.77160  0.85206  0.50020  1.0000
  H   H2953     1.0  0.71544  0.81222  0.50069  1.0000
  C   C1854     1.0  0.74244  0.92459  0.50271  1.0000
  H   H2954     1.0  0.67380  0.67554  0.51799  1.0000
  H   H2955     1.0  0.98692  0.90200  0.73220  1.0000
  N   N187      1.0  0.72751  0.91481  0.49951  1.0000
  H   H2956     1.0  0.90231  0.98485  0.63383  1.0000
  C   C1855     1.0  0.73704  0.77553  0.49416  1.0000
  H   H2957     1.0  0.94126  0.98195  0.68239  1.0000
  H   H2958     1.0  0.72218  0.77455  0.50450  1.0000
  H   H2959     1.0  0.81972  0.98958  0.61303  1.0000
  C   C1856     1.0  0.73027  0.81231  0.49015  1.0000
  H   H2960     1.0  0.86537  0.98759  0.63069  1.0000
  H   H2961     1.0  0.66625  0.82308  0.54081  1.0000
  H   H2962     1.0  0.81027  0.99089  0.65461  1.0000
  C   C1857     1.0  0.85467  0.99088  0.62105  1.0000
  H   H2963     1.0  0.92051  0.99331  0.84100  1.0000
  C   C1858     1.0  0.74109  0.77552  0.93999  1.0000
  H   H2964     1.0  0.77978  0.75441  0.93282  1.0000
  Fe  Fe374     1.0  0.90693  0.90971  0.81566  1.0000
  H   H2965     1.0  0.91245  0.74509  0.94899  1.0000
  C   C1859     1.0  0.85761  0.67490  0.92299  1.0000
  C   C1860     1.0  0.69848  0.69208  0.95721  1.0000
  H   H2966     1.0  0.85906  0.82872  0.91246  1.0000
  H   H2967     1.0  0.88789  0.86159  0.79291  1.0000
  C   C1861     1.0  0.70581  0.70154  0.96757  1.0000
  C   C1862     1.0  0.84410  0.86877  0.90953  1.0000
  H   H2968     1.0  0.87648  0.68413  0.88370  1.0000
  C   C1863     1.0  0.88614  0.73440  0.98200  1.0000
  C   C1864     1.0  0.77849  0.72238  0.86278  1.0000
  H   H2969     1.0  0.73338  0.76230  0.94671  1.0000
  H   H2970     1.0  0.89339  0.86504  0.76765  1.0000
  H   H2971     1.0  0.88296  0.68662  0.92435  1.0000
  H   H2972     1.0  0.74717  0.77506  0.92475  1.0000
  C   C1865     1.0  0.85160  0.81008  0.97647  1.0000
  H   H2973     1.0  0.66691  0.66960  0.77060  1.0000
  C   C1866     1.0  0.76244  0.72771  0.87770  1.0000
  H   H2974     1.0  0.78017  0.79230  0.94628  1.0000
  S   S745      1.0  0.93856  0.90216  0.74727  1.0000
  H   H2975     1.0  0.72912  0.78979  0.94075  1.0000
  H   H2976     1.0  0.73479  0.66511  0.96361  1.0000
  H   H2977     1.0  0.81038  0.75219  0.86328  1.0000
  S   S746      1.0  0.73158  0.72344  0.97147  1.0000
  C   C1867     1.0  0.85711  0.71095  0.91893  1.0000
  H   H2978     1.0  0.97907  0.87741  0.76219  1.0000
  H   H2979     1.0  0.82521  0.66794  0.82587  1.0000
  C   C1868     1.0  0.72897  0.71475  0.93887  1.0000
  H   H2980     1.0  0.68665  0.68334  0.96438  1.0000
  H   H2981     1.0  0.88610  0.83001  0.77350  1.0000
  H   H2982     1.0  0.88597  0.70329  0.95407  1.0000
  H   H2983     1.0  0.84325  0.68092  0.88022  1.0000
  H   H2984     1.0  0.86370  0.66659  0.96366  1.0000
  N   N188      1.0  0.89498  0.72273  0.96684  1.0000
  S   S747      1.0  0.77688  0.70531  0.84996  1.0000
  H   H2985     1.0  0.87229  0.74629  0.97908  1.0000
  H   H2986     1.0  0.76097  0.77447  0.97698  1.0000
  H   H2987     1.0  0.69787  0.66989  0.78007  1.0000
  H   H2988     1.0  0.72820  0.70626  0.91353  1.0000
  H   H2989     1.0  0.82884  0.73156  0.91365  1.0000
  H   H2990     1.0  0.86120  0.82519  0.78652  1.0000
  H   H2991     1.0  0.81137  0.70417  0.91550  1.0000
  H   H2992     1.0  0.74083  0.72347  0.93172  1.0000
  S   S748      1.0  0.86975  0.73037  0.91725  1.0000
  C   C1869     1.0  0.85537  0.71674  0.86286  1.0000
  C   C1870     1.0  0.87963  0.71227  0.96538  1.0000
  H   H2993     1.0  0.88449  0.70865  0.83231  1.0000
  C   C1871     1.0  0.72119  0.71274  0.95846  1.0000
  S   S749      1.0  0.69835  0.68005  0.92559  1.0000
  Fe  Fe375     1.0  0.71044  0.68166  0.85705  1.0000
  C   C1872     1.0  0.74890  0.77507  0.96952  1.0000
  C   C1873     1.0  0.70675  0.69346  0.93778  1.0000
  H   H2994     1.0  0.80824  0.72713  0.84608  1.0000
  S   S750      1.0  0.68522  0.68974  0.84071  1.0000
  C   C1874     1.0  0.84921  0.68356  0.86458  1.0000
  N   N189      1.0  0.86575  0.85817  0.90914  1.0000
  Fe  Fe376     1.0  0.74986  0.68970  0.86227  1.0000
  N   N190      1.0  0.86480  0.69643  0.85826  1.0000
  Fe  Fe377     1.0  0.71702  0.67751  0.89636  1.0000
  H   H2995     1.0  0.87873  0.82814  0.79872  1.0000
  C   C1875     1.0  0.83742  0.67978  0.92049  1.0000
  H   H2996     1.0  0.69946  0.70023  0.98260  1.0000
  C   C1876     1.0  0.98452  0.95959  0.82033  1.0000
  C   C1877     1.0  0.82697  0.70024  0.91753  1.0000
  S   S751      1.0  0.71639  0.70380  0.87104  1.0000
  C   C1878     1.0  0.86737  0.69045  0.92238  1.0000
  C   C1879     1.0  0.67839  0.66921  0.83582  1.0000
  H   H2997     1.0  0.89388  0.69586  0.86380  1.0000
  C   C1880     1.0  0.72189  0.70497  0.92857  1.0000
  H   H2998     1.0  0.74144  0.76176  0.97703  1.0000
  S   S752      1.0  0.93598  0.89104  0.80152  1.0000
  H   H2999     1.0  0.98443  0.92160  0.74451  1.0000
  C   C1881     1.0  0.83688  0.71581  0.91653  1.0000
  C   C1882     1.0  0.83286  0.82413  0.97700  1.0000
  H   H3000     1.0  0.74892  0.72120  0.88158  1.0000
  H   H3001     1.0  0.88957  0.67117  0.86474  1.0000
  S   S753      1.0  0.98342  0.90644  0.80820  1.0000
  H   H3002     1.0  0.86679  0.72674  0.85869  1.0000
  C   C1883     1.0  0.79592  0.73103  0.85777  1.0000
  C   C1884     1.0  0.85670  0.86316  0.76445  1.0000
  C   C1885     1.0  0.76356  0.74205  0.88723  1.0000
  C   C1886     1.0  0.87304  0.83392  0.78530  1.0000
  H   H3003     1.0  0.75620  0.80722  0.94078  1.0000
  C   C1887     1.0  0.76740  0.79248  0.93983  1.0000
  C   C1888     1.0  0.89786  0.90675  0.74706  1.0000
  S   S754      1.0  0.89912  0.92982  0.78835  1.0000
  H   H3004     1.0  0.84030  0.87173  0.89544  1.0000
  H   H3005     1.0  0.87492  0.70131  0.97885  1.0000
  H   H3006     1.0  0.85578  0.66829  0.86094  1.0000
  Fe  Fe378     1.0  0.92948  0.91283  0.77463  1.0000
  C   C1889     1.0  0.91629  0.98912  0.81506  1.0000
  H   H3007     1.0  0.83578  0.69087  0.85787  1.0000
  H   H3008     1.0  0.79158  0.67034  0.81890  1.0000
  S   S755      1.0  0.74385  0.67034  0.84560  1.0000
  Fe  Fe379     1.0  0.91738  0.95025  0.79200  1.0000
  H   H3009     1.0  0.97632  0.89650  0.77509  1.0000
  S   S756      1.0  0.94699  0.93500  0.77584  1.0000
  C   C1890     1.0  0.84759  0.86073  0.79831  1.0000
  C   C1891     1.0  0.99168  0.92668  0.81174  1.0000
  N   N191      1.0  0.86453  0.85624  0.78210  1.0000
  H   H3010     1.0  0.83515  0.85247  0.80029  1.0000
  C   C1892     1.0  0.88083  0.86716  0.78035  1.0000
  C   C1893     1.0  0.86963  0.83872  0.90302  1.0000
  H   H3011     1.0  0.88010  0.68389  0.83364  1.0000
  S   S757      1.0  0.75092  0.66494  0.88877  1.0000
  C   C1894     1.0  0.98762  0.88441  0.76845  1.0000
  H   H3012     1.0  0.90740  0.72858  0.93677  1.0000
  H   H3013     1.0  0.83824  0.67526  0.95928  1.0000
  C   C1895     1.0  0.78088  0.75086  0.88212  1.0000
  C   C1896     1.0  0.87272  0.69897  0.83756  1.0000
  H   H3014     1.0  0.69929  0.67213  0.74580  1.0000
  H   H3015     1.0  0.85963  0.84387  0.93885  1.0000
  H   H3016     1.0  0.89590  0.86376  0.89480  1.0000
  H   H3017     1.0  0.75085  0.74651  0.89843  1.0000
  H   H3018     1.0  0.85013  0.87994  0.76158  1.0000
  C   C1897     1.0  0.87944  0.87138  0.89566  1.0000
  H   H3019     1.0  0.85308  0.85594  0.81179  1.0000
  H   H3020     1.0  0.86019  0.70631  0.82972  1.0000
  H   H3021     1.0  0.88562  0.82996  0.90309  1.0000
  C   C1898     1.0  0.79719  0.74515  0.86751  1.0000
  H   H3022     1.0  0.76634  0.74174  0.95498  1.0000
  H   H3023     1.0  0.87466  0.88391  0.77912  1.0000
  Fe  Fe380     1.0  0.85164  0.76026  0.90399  1.0000
  S   S758      1.0  0.84272  0.76419  0.87652  1.0000
  H   H3024     1.0  0.80770  0.83907  0.96310  1.0000
  Fe  Fe381     1.0  0.82782  0.80224  0.90967  1.0000
  S   S759      1.0  0.81641  0.80997  0.88287  1.0000
  S   S760      1.0  0.81642  0.82338  0.92975  1.0000
  Fe  Fe382     1.0  0.81133  0.77770  0.89153  1.0000
  S   S761      1.0  0.78122  0.76958  0.89374  1.0000
  Fe  Fe383     1.0  0.84882  0.79596  0.87031  1.0000
  S   S762      1.0  0.86736  0.80975  0.84216  1.0000
  S   S763      1.0  0.81991  0.77141  0.91953  1.0000
  S   S764      1.0  0.86070  0.79070  0.89658  1.0000
  H   H3025     1.0  0.83336  0.85943  0.91991  1.0000
  S   S765      1.0  0.92283  0.93168  0.82047  1.0000
  H   H3026     1.0  0.86568  0.72345  0.96169  1.0000
  H   H3027     1.0  0.87706  0.88618  0.89984  1.0000
  C   C1899     1.0  0.86977  0.85377  0.92835  1.0000
  C   C1900     1.0  0.96762  0.97975  0.77691  1.0000
  C   C1901     1.0  0.88193  0.68647  0.86805  1.0000
  S   S766      1.0  0.88238  0.89678  0.83928  1.0000
  H   H3028     1.0  0.86695  0.86808  0.93348  1.0000
  H   H3029     1.0  0.99362  0.87256  0.78014  1.0000
  C   C1902     1.0  0.97755  0.94360  0.81756  1.0000
  C   C1903     1.0  0.77316  0.75548  0.94785  1.0000
  H   H3030     1.0  0.88591  0.84563  0.92870  1.0000
  N   N192      1.0  0.75764  0.77465  0.94930  1.0000
  H   H3031     1.0  0.84072  0.88375  0.91365  1.0000
  S   S767      1.0  0.91052  0.98453  0.78180  1.0000
  C   C1904     1.0  0.82200  0.82785  0.96276  1.0000
  H   H3032     1.0  0.76098  0.68610  0.95530  1.0000
  H   H3033     1.0  0.96127  0.94426  0.82015  1.0000
  H   H3034     1.0  0.84260  0.72489  0.85550  1.0000
  C   C1905     1.0  0.82959  0.81718  0.94815  1.0000
  C   C1906     1.0  0.84810  0.80265  0.94783  1.0000
  C   C1907     1.0  0.85927  0.79937  0.96182  1.0000
  H   H3035     1.0  0.77394  0.79270  0.92449  1.0000
  Fe  Fe384     1.0  0.95117  0.91478  0.80385  1.0000
  H   H3036     1.0  0.86722  0.84145  0.88843  1.0000
  H   H3037     1.0  0.85400  0.79428  0.93664  1.0000
  H   H3038     1.0  0.87378  0.78850  0.96137  1.0000
  H   H3039     1.0  0.87665  0.87516  0.88105  1.0000
  C   C1908     1.0  0.87202  0.83350  0.84199  1.0000
  C   C1909     1.0  0.88953  0.84007  0.82991  1.0000
  C   C1910     1.0  0.89288  0.85948  0.82894  1.0000
  C   C1911     1.0  0.87865  0.87245  0.83995  1.0000
  C   C1912     1.0  0.86112  0.86587  0.85201  1.0000
  C   C1913     1.0  0.85786  0.84640  0.85312  1.0000
  H   H3040     1.0  0.90062  0.83006  0.82139  1.0000
  H   H3041     1.0  0.90653  0.86434  0.81975  1.0000
  H   H3042     1.0  0.84992  0.87597  0.86034  1.0000
  H   H3043     1.0  0.84417  0.84155  0.86229  1.0000
  H   H3044     1.0  0.97351  0.97256  0.82497  1.0000
  H   H3045     1.0  0.91431  0.97357  0.82102  1.0000
  H   H3046     1.0  0.88728  0.74869  0.94464  1.0000
  H   H3047     1.0  0.84891  0.71533  0.87833  1.0000
  H   H3048     1.0  0.84446  0.85519  0.76513  1.0000
  H   H3049     1.0  0.97620  0.96355  0.77961  1.0000
  H   H3050     1.0  0.89421  0.91360  0.75914  1.0000
  C   C1914     1.0  0.90084  0.73692  0.94853  1.0000
  C   C1915     1.0  0.84715  0.66717  0.97040  1.0000
  H   H3051     1.0  0.84070  0.87743  0.79635  1.0000
  H   H3052     1.0  0.67634  0.69326  0.88229  1.0000
  H   H3053     1.0  0.73707  0.78928  0.97119  1.0000
  H   H3054     1.0  0.92029  0.69796  0.96040  1.0000
  H   H3055     1.0  0.78604  0.75445  0.95445  1.0000
  H   H3056     1.0  0.79466  0.66457  0.85203  1.0000
  C   C1916     1.0  0.99058  0.98757  0.74654  1.0000
  H   H3057     1.0  0.84287  0.67682  0.98105  1.0000
  C   C1917     1.0  0.91332  0.70728  0.97139  1.0000
  H   H3058     1.0  0.78768  0.67446  0.94997  1.0000
  H   H3059     1.0  0.75510  0.67232  0.93058  1.0000
  H   H3060     1.0  0.86913  0.86024  0.75185  1.0000
  H   H3061     1.0  0.95498  0.98035  0.77015  1.0000
  H   H3062     1.0  0.96035  0.98383  0.79092  1.0000
  H   H3063     1.0  0.92528  0.71456  0.97261  1.0000
  C   C1918     1.0  0.77243  0.67170  0.95871  1.0000
  H   H3064     1.0  0.66601  0.66305  0.87934  1.0000
  H   H3065     1.0  0.77269  0.66920  0.97394  1.0000
  H   H3066     1.0  0.67039  0.66485  0.91047  1.0000
  H   H3067     1.0  0.89739  0.74241  0.98350  1.0000
  H   H3068     1.0  0.86615  0.91086  0.74592  1.0000
  H   H3069     1.0  0.90942  0.69635  0.98515  1.0000
  H   H3070     1.0  0.78184  0.66072  0.92523  1.0000
  S   S768      1.0  0.82507  0.66054  0.92105  1.0000
  H   H3071     1.0  0.82692  0.83257  0.98813  1.0000
  C   C1919     1.0  0.99542  0.90860  0.73888  1.0000
  C   C1920     1.0  0.88199  0.90510  0.73962  1.0000
  H   H3072     1.0  0.97869  0.98840  0.73881  1.0000
