data_image0
_chemical_formula_structural       FeS2FeS2FeSFeS3FeS2FeS2FeSFeS3FeS2FeS2FeSFeS3FeS2FeS2FeSFeS3FeS2FeS2FeSFeS3FeS2FeS2FeSFeS3FeS2FeS2FeSFeS3FeS2FeS2FeSFeS3FeS2FeS2FeSFeS3FeS2FeS2FeSFeS3FeS2FeS2FeSFeS3FeS2FeS2FeSFeS3FeS2FeS2FeSFeS3FeS2FeS2FeSFeS3FeS2FeS2FeSFeS3FeS2FeS2FeSFeS3FeS2FeS2FeSFeS3FeS2FeS2FeSFeS3FeS2FeS2FeSFeS3FeS2FeS2FeSFeS3FeS2FeS2FeSFeS3FeS2FeS2FeSFeS3FeS2FeS2FeSFeS3FeS2FeS2FeSFeS3FeS2FeS2FeSFeS3FeS2FeS2FeSFeS3FeS2FeS2FeSFeS3FeS2FeS2FeSFeS3FeS2FeS2FeSFeS3FeS2FeS2FeSFeS3FeS2FeS2FeSFeS3FeS2FeS2FeSFeS3C6H4C6H4C6H4C6H4C6H4C6H4C6H4C6H4C6H4C6H4C6H4C6H4C6H4C6H4C6H4C6H4C6H4C6H4C6H4C6H4C6H4C6H4C6H4C6H4C6H4C6H4C6H4C6H4C6H4C6H4C6H4C6H4C6H4C6H4C6H4C6H4C6H4C6H4C6H4C6H4C6H4C6H4C6H4C6H4C6H4C6H4C6H4C6H4C6H4C6H4C6H4C6H4C6H4C6H4C6H4C6H4C6H4C6H4C6H4C6H4C6H4C6H4C6H4C6H4NC4H12NC4H12NC4H12NC4H12NC4H12NC4H12NC4H12NC4H12NC4H12NC4H12NC4H12NC4H12NC4H12NC4H12NC4H12NC4H12NC4H12NC4H12NC4H12NC4H12NC4H12NC4H12NC4H12NC4H12NC4H12NC4H12NC4H12NC4H12NC4H12NC4H12NC4H12NC4H12NC4H12NC4H12NC4H12NC4H12NC4H12NC4H12NC4H12NC4H12NC4H12NC4H12NC4H12NC4H12NC4H12NC4H12NC4H12NC4H12NC4H12NC4H12NC4H12NC4H12NC4H12NC4H12NC4H12NC4H12NC4H12NC4H12NC4H12NC4H12NC4H12NC4H12NC4H12NC4H12
_chemical_formula_sum              "Fe128 S256 C640 H1024 N64"
_cell_length_a       36.83665992258634
_cell_length_b       35.9782510368679
_cell_length_c       76.77486431394618
_cell_angle_alpha    90.2218504679117
_cell_angle_beta     90.04375189540241
_cell_angle_gamma    87.13746836391698

_space_group_name_H-M_alt    "P 1"
_space_group_IT_number       1

loop_
  _space_group_symop_operation_xyz
  'x, y, z'

loop_
  _atom_site_type_symbol
  _atom_site_label
  _atom_site_symmetry_multiplicity
  _atom_site_fract_x
  _atom_site_fract_y
  _atom_site_fract_z
  _atom_site_occupancy
  Fe  Fe1       1.0  0.581947918088752  0.47334571715876245  0.42571637371617244  1.0000
  S   S1        1.0  0.5803938998669361  0.4118144922678986  0.4300865008602598  1.0000
  S   S2        1.0  0.6178745106162726  0.5071962918785063  0.44245104512931693  1.0000
  Fe  Fe2       1.0  0.5374770800712855  0.47128332920487415  0.39294143439160684  1.0000
  S   S3        1.0  0.5329089670068607  0.40945821771685287  0.3940720053971935  1.0000
  S   S4        1.0  0.5122613231014965  0.5016834588361844  0.37024077363629543  1.0000
  Fe  Fe3       1.0  0.5219340457405682  0.41966905145498495  0.4223233856096225  1.0000
  S   S5        1.0  0.4798319503320378  0.3860983836271293  0.43494457824952254  1.0000
  Fe  Fe4       1.0  0.591468543795699  0.4072985987309627  0.40143599269699515  1.0000
  S   S6        1.0  0.6286912992216852  0.36342335946048987  0.3891142378813229  1.0000
  S   S7        1.0  0.5219774652893757  0.4819773853759492  0.4208179946636225  1.0000
  S   S8        1.0  0.5975258895892224  0.4681769643896177  0.3975231478797033  1.0000
  Fe  Fe5       1.0  0.8145901531478237  0.18336344170473162  0.4486480709954982  1.0000
  S   S9        1.0  0.7855298698964626  0.13913439750931955  0.4343579754661022  1.0000
  S   S10       1.0  0.8671856832191329  0.16989346730309776  0.46232285338814855  1.0000
  Fe  Fe6       1.0  0.7581893721923901  0.2441243278300142  0.44003691755410324  1.0000
  S   S11       1.0  0.7239296718548726  0.2055591051578991  0.42495802253891507  1.0000
  S   S12       1.0  0.7424690276531338  0.3042575100184002  0.445061801419613  1.0000
  Fe  Fe7       1.0  0.7356998688918893  0.16572813631883423  0.4467623408787853  1.0000
  S   S13       1.0  0.688917177554295  0.13621657499726197  0.4577329611668893  1.0000
  Fe  Fe8       1.0  0.7767241832341978  0.18299560404280069  0.41389913308399806  1.0000
  S   S14       1.0  0.7823338084819667  0.17121087372273378  0.3852921086409137  1.0000
  S   S15       1.0  0.7653471136408391  0.20613883500015623  0.4629024161205438  1.0000
  S   S16       1.0  0.8103103271954799  0.22509711781326555  0.42712311476790554  1.0000
  Fe  Fe9       1.0  0.6259811905720012  0.6900891469044443  0.5231817273321248  1.0000
  S   S17       1.0  0.5786160371831021  0.666438061128177  0.5367948425803555  1.0000
  S   S18       1.0  0.6133963179150607  0.7432056565426796  0.5086830991123102  1.0000
  Fe  Fe10      1.0  0.6770539758038833  0.6252521433759478  0.53357081529024  1.0000
  S   S19       1.0  0.6335804161538183  0.5961820215500049  0.5476795510064566  1.0000
  S   S20       1.0  0.7331506832137882  0.5984502299589596  0.5350288328120577  1.0000
  Fe  Fe11      1.0  0.5985206484891766  0.6123605944406253  0.52484186073543  1.0000
  S   S21       1.0  0.5569614007472583  0.5762761863776065  0.512761256935564  1.0000
  Fe  Fe12      1.0  0.6186449004364115  0.6530359286938145  0.5580812172715209  1.0000
  S   S22       1.0  0.6122764825370122  0.660291648055925  0.5868508998508594  1.0000
  S   S23       1.0  0.6434665714994324  0.6369278556163179  0.5096037512380942  1.0000
  S   S24       1.0  0.664424083818496  0.6812576303813792  0.545583647771499  1.0000
  Fe  Fe13      1.0  0.6362634065493936  0.9693659354096676  0.5581255256671489  1.0000
  S   S25       1.0  0.6223019667946543  0.926973626306093  0.5382141854678525  1.0000
  S   S26       1.0  0.6201651698348846  0.9585671250113813  0.5857388896269736  1.0000
  Fe  Fe14      1.0  0.6801883322049899  0.012639422607848116  0.5326503790305509  1.0000
  S   S27       1.0  0.6716354282157437  0.9731118875920431  0.5105185075444768  1.0000
  S   S28       1.0  0.7167647483769289  0.0604294355933066  0.5305806601622929  1.0000
  Fe  Fe15      1.0  0.6141028433859212  0.9753419846067668  0.5201967036112933  1.0000
  S   S29       1.0  0.5691544978266063  0.9747231852843635  0.5005634299027333  1.0000
  Fe  Fe16      1.0  0.6805397179051454  0.9280520622717289  0.5303470018978741  1.0000
  S   S30       1.0  0.7137672359265843  0.8743261965869046  0.528236215927406  1.0000
  S   S31       1.0  0.6217382935392628  0.018392972427919485  0.5410196915537462  1.0000
  S   S32       1.0  0.6953750727641456  0.9672448098930052  0.5514382144001015  1.0000
  Fe  Fe17      1.0  0.7568419709334523  0.3928865296378001  0.5203014696909551  1.0000
  S   S33       1.0  0.8095787136095693  0.4007063973541231  0.5341998198052264  1.0000
  S   S34       1.0  0.7258091386399761  0.435770050243866  0.5042507095019477  1.0000
  Fe  Fe18      1.0  0.7503253848999571  0.3142090887633774  0.5336077980157359  1.0000
  S   S35       1.0  0.8022997700070884  0.3149756900369293  0.5485337455318084  1.0000
  S   S36       1.0  0.716593121781412  0.2644309403864374  0.5359344681715422  1.0000
  Fe  Fe19      1.0  0.7828228810213052  0.3724978697984485  0.5564408520346066  1.0000
  S   S37       1.0  0.7856222420677087  0.38889429006093434  0.5846002305994206  1.0000
  Fe  Fe20      1.0  0.8240187898781769  0.34260722708466107  0.5248894803532962  1.0000
  S   S38       1.0  0.8765584724263032  0.32107631290247096  0.5129227029926474  1.0000
  S   S39       1.0  0.7287254462257471  0.369464278357349  0.5433012711821894  1.0000
  S   S40       1.0  0.7733439720518412  0.3368954968741021  0.5090919255301122  1.0000
  Fe  Fe21      1.0  0.5272730987194706  0.16687268604843858  0.4792398780925033  1.0000
  S   S41       1.0  0.4788548364163332  0.1539040010547056  0.49525715258949843  1.0000
  S   S42       1.0  0.5484779261089238  0.12540360203388204  0.45959932234904677  1.0000
  Fe  Fe22      1.0  0.5356608178194855  0.24174533065684062  0.49622430562505815  1.0000
  S   S43       1.0  0.48751605514935936  0.23615769496118266  0.5137004912350261  1.0000
  S   S44       1.0  0.5693300550114829  0.2921031727498847  0.4947211294190827  1.0000
  Fe  Fe23      1.0  0.5099637684334127  0.17750330558673477  0.5174326482962625  1.0000
  S   S45       1.0  0.514011469061555  0.1482530591533682  0.5432225925649115  1.0000
  Fe  Fe24      1.0  0.4606996249224737  0.2130585196042685  0.49001841318040196  1.0000
  S   S46       1.0  0.4025132950701354  0.2293463048152965  0.48392198945545584  1.0000
  S   S47       1.0  0.5603982656531665  0.18483719790371303  0.5018416225684623  1.0000
  S   S48       1.0  0.5067818295255736  0.22433101349251566  0.4720713546633778  1.0000
  Fe  Fe25      1.0  0.9762135390142124  0.31899839759151166  0.41990187500973686  1.0000
  S   S49       1.0  0.920566871031828  0.34705191536534824  0.4187760778728353  1.0000
  S   S50       1.0  0.9905497815040664  0.2599497610783755  0.42752848529212295  1.0000
  Fe  Fe26      1.0  0.013450969767782706  0.38665128636194684  0.40680698165559676  1.0000
  S   S51       1.0  0.961428928327983  0.42134725670602846  0.4050166247996274  1.0000
  S   S52       1.0  0.06659194989388384  0.409037631928005  0.3985840755148781  1.0000
  Fe  Fe27      1.0  0.9480083961032116  0.3953350759469339  0.4305559822761413  1.0000
  S   S53       1.0  0.9203226411309978  0.42732568231787166  0.4522149232794949  1.0000
  Fe  Fe28      1.0  0.9387176809141866  0.3701958985729697  0.3934235239978728  1.0000
  S   S54       1.0  0.9066145675799283  0.36767095061411065  0.3687162827314079  1.0000
  S   S55       1.0  0.0025573617401326576  0.36561750213261046  0.4336458215516287  1.0000
  S   S56       1.0  0.9917414484441006  0.33741487749659527  0.39325009549783824  1.0000
  Fe  Fe29      1.0  0.24665861258586888  0.2998853515193187  0.39284511313859816  1.0000
  S   S57       1.0  0.28127818675537186  0.2596334824168689  0.37681794999837653  1.0000
  S   S58       1.0  0.19133995362096062  0.28281716083538244  0.4007801168886214  1.0000
  Fe  Fe30      1.0  0.3033913897097671  0.3576061376620564  0.3935547280394293  1.0000
  S   S59       1.0  0.34222875057501134  0.32259901567337357  0.377379370733794  1.0000
  S   S60       1.0  0.3229197823025646  0.41284434537815534  0.40231810107452876  1.0000
  Fe  Fe31      1.0  0.29365678939492623  0.30995079709229134  0.36129616947109255  1.0000
  S   S61       1.0  0.29772016215237357  0.3103327485431481  0.33205329801897626  1.0000
  Fe  Fe32      1.0  0.3263425166757771  0.2758534598041214  0.39453503679257196  1.0000
  S   S62       1.0  0.3708294457019473  0.2345118663492042  0.4029685350480479  1.0000
  S   S63       1.0  0.2556820664655366  0.34921403795526385  0.3758885557740161  1.0000
  S   S64       1.0  0.2906180575011969  0.3119668334433156  0.411989488244252  1.0000
  Fe  Fe33      1.0  0.48928575851126094  0.7936766940274542  0.6362992391570371  1.0000
  S   S65       1.0  0.5356981620204676  0.7854835593673615  0.6551068489102857  1.0000
  S   S66       1.0  0.4966601283173156  0.7880443033226201  0.6073723549186076  1.0000
  Fe  Fe34      1.0  0.43499112402945256  0.8152051110329281  0.6647610648441296  1.0000
  S   S67       1.0  0.4767966863829357  0.8082939843044452  0.6857647401056611  1.0000
  S   S68       1.0  0.37722710500118756  0.8352744620146624  0.669828014631047  1.0000
  Fe  Fe35      1.0  0.5125126693019854  0.837850536229612  0.6674676298769613  1.0000
  S   S69       1.0  0.5452158708916371  0.8834022833524211  0.6781477291486232  1.0000
  Fe  Fe36      1.0  0.49509384190281297  0.7567336706477844  0.6713094772465715  1.0000
  S   S70       1.0  0.5089638098507364  0.7069209740669254  0.6879088303984094  1.0000
  S   S71       1.0  0.4694888134817605  0.8487128692484566  0.6473652926189701  1.0000
  S   S72       1.0  0.450102463099164  0.7608365702606016  0.6516241101903014  1.0000
  Fe  Fe37      1.0  0.7399735435350477  0.8558647214485359  0.6758219217282325  1.0000
  S   S73       1.0  0.7887788907116837  0.8419989094060423  0.6593725330343657  1.0000
  S   S74       1.0  0.7041223455140098  0.8130572864363355  0.6861402713590917  1.0000
  Fe  Fe38      1.0  0.7544693004348554  0.9380261622223433  0.6779006276871281  1.0000
  S   S75       1.0  0.8057139469714384  0.9313843898124379  0.6622803780109441  1.0000
  S   S76       1.0  0.7330911742539621  0.9925923787550881  0.6887478626737266  1.0000
  Fe  Fe39      1.0  0.7724489537908308  0.8949028724297399  0.6454348733427169  1.0000
  S   S77       1.0  0.7710572537380256  0.903016270053127  0.6166157125262393  1.0000
  Fe  Fe40      1.0  0.8167480109103411  0.8794661906269067  0.6779171986759261  1.0000
  S   S78       1.0  0.8675077968635302  0.8582436984590206  0.691484676686804  1.0000
  S   S79       1.0  0.7204280731075077  0.9049556452183523  0.6600763199327423  1.0000
  S   S80       1.0  0.7685587133534145  0.8899027483705982  0.6952407293530525  1.0000
  Fe  Fe41      1.0  0.263974944431106  0.8266402526806327  0.7488449057721548  1.0000
  S   S81       1.0  0.2334809520273346  0.865141126572171  0.7304374303646033  1.0000
  S   S82       1.0  0.30643327152301875  0.7837470030128434  0.7401726113101134  1.0000
  Fe  Fe42      1.0  0.23391641951804767  0.866501219568822  0.7810195954761721  1.0000
  S   S83       1.0  0.20263603821599466  0.9095568202599146  0.7654636298648432  1.0000
  S   S84       1.0  0.23256469084618459  0.873801888092051  0.8100040545010593  1.0000
  Fe  Fe43      1.0  0.18739909827098183  0.8608239115138946  0.7492280366861301  1.0000
  S   S85       1.0  0.12899765425775486  0.8583932266248728  0.7415639950908892  1.0000
  Fe  Fe44      1.0  0.2513197578689633  0.9096700165479964  0.7483700133029958  1.0000
  S   S86       1.0  0.2734986545865239  0.9620825784249586  0.7384214932628953  1.0000
  S   S87       1.0  0.2157175087640553  0.8173866904865971  0.7658502055368661  1.0000
  S   S88       1.0  0.2848805612004905  0.8717126949754517  0.7657256214905763  1.0000
  Fe  Fe45      1.0  0.9072301605166293  0.9160268746466367  0.7846190853249079  1.0000
  S   S89       1.0  0.95008147391785  0.8695164432703995  0.7820078309470342  1.0000
  S   S90       1.0  0.8766476946696465  0.9452936766132358  0.7628817951077159  1.0000
  Fe  Fe46      1.0  0.9082002017582734  0.9140441897668266  0.8241333844088832  1.0000
  S   S91       1.0  0.9503689789293592  0.8673438629954491  0.8249044673389456  1.0000
  S   S92       1.0  0.886618406964021  0.9314954274116386  0.8502900658275218  1.0000
  Fe  Fe47      1.0  0.9775025896319686  0.8987192448995494  0.8039218858972864  1.0000
  S   S93       1.0  0.03703895721692074  0.9051394453961056  0.8080608524800782  1.0000
  Fe  Fe48      1.0  0.9189166186711667  0.8431034523694033  0.8032316447114497  1.0000
  S   S94       1.0  0.9038953209904527  0.7839193334165655  0.8040140837223917  1.0000
  S   S95       1.0  0.9377234033754663  0.9477445713739945  0.8047633862823022  1.0000
  S   S96       1.0  0.8738835159905396  0.8871082244752825  0.8042469410426777  1.0000
  Fe  Fe49      1.0  0.7193241173012971  0.7483751150289029  0.770604428921251  1.0000
  S   S97       1.0  0.7313029217751297  0.6914357140301819  0.7818253498861525  1.0000
  S   S98       1.0  0.7597022794671288  0.7864516079646554  0.7595841894887049  1.0000
  Fe  Fe50      1.0  0.6388596594758048  0.7476629157774263  0.7780559109922308  1.0000
  S   S99       1.0  0.6435614606830985  0.6917154792585043  0.7905846607612955  1.0000
  S   S100      1.0  0.5857778487673767  0.779766092182593  0.7747932492044275  1.0000
  Fe  Fe51      1.0  0.693862705495426  0.7122009873644324  0.8031761359443281  1.0000
  S   S101      1.0  0.7053878280627995  0.705422940578904  0.8317716731589462  1.0000
  Fe  Fe52      1.0  0.6801983809458955  0.6765581008880006  0.76807468265404  1.0000
  S   S102      1.0  0.6696878175004543  0.6236856237810915  0.7538087131341603  1.0000
  S   S103      1.0  0.6851697977643572  0.7699995185541428  0.7928140489306182  1.0000
  S   S104      1.0  0.6720486430305999  0.7313402442085943  0.7546553173093551  1.0000
  Fe  Fe53      1.0  0.5078887399430884  0.019645854412463137  0.7546509609901333  1.0000
  S   S105      1.0  0.5186546660092958  0.9583355276391748  0.7574516689190186  1.0000
  S   S106      1.0  0.49329157437443594  0.04394662307272634  0.7808857399744596  1.0000
  Fe  Fe54      1.0  0.5137879017221879  0.015261598852399194  0.7152544199805242  1.0000
  S   S107      1.0  0.5233215078842467  0.9533514954583628  0.7154744298022621  1.0000
  S   S108      1.0  0.5100613191393718  0.03722798188670606  0.6879993136660004  1.0000
  Fe  Fe55      1.0  0.47954162919320975  0.9543940318527965  0.7354967470533059  1.0000
  S   S109      1.0  0.43898138768562484  0.9101820698943767  0.7356959656510806  1.0000
  Fe  Fe56      1.0  0.561337689270777  0.9641126013615241  0.7372793602389209  1.0000
  S   S110      1.0  0.6151451466401154  0.9325178290785905  0.7391773762625393  1.0000
  S   S111      1.0  0.4663686144721902  0.01557693487981493  0.7334209545444073  1.0000
  S   S112      1.0  0.5548480824969546  0.026332870190680868  0.736181556231414  1.0000
  Fe  Fe57      1.0  0.6252544830599629  0.2209721607585085  0.618486510587523  1.0000
  S   S113      1.0  0.6855450808391549  0.21121473211344038  0.6201879689557634  1.0000
  S   S114      1.0  0.6061243474776551  0.24622377980226898  0.5933027950224121  1.0000
  Fe  Fe58      1.0  0.6137540016027575  0.19846047656935595  0.6559489453092205  1.0000
  S   S115      1.0  0.673346151057391  0.1873483586697014  0.6606551471526436  1.0000
  S   S116      1.0  0.5772661676604628  0.19417115623747627  0.6792341258925787  1.0000
  Fe  Fe59      1.0  0.679867912100158  0.24018987586944227  0.6459006530284312  1.0000
  S   S117      1.0  0.7195181544518345  0.28209054027146624  0.6543723597258995  1.0000
  Fe  Fe60      1.0  0.6727872184003136  0.15930796811613765  0.6345284429367094  1.0000
  S   S118      1.0  0.699263649436958  0.10409312266117639  0.6265796231929244  1.0000
  S   S119      1.0  0.6203670468079162  0.25383949314730014  0.6433066808972592  1.0000
  S   S120      1.0  0.6125402136883401  0.1666944226595205  0.6307267926632018  1.0000
  Fe  Fe61      1.0  0.6452359474666595  0.513179887825666  0.630211234912434  1.0000
  S   S121      1.0  0.6037103599211916  0.47808274495314823  0.6424501704527803  1.0000
  S   S122      1.0  0.658296778447135  0.5067125815455781  0.601814258467456  1.0000
  Fe  Fe62      1.0  0.652090061627434  0.5628696963436343  0.6623507587824671  1.0000
  S   S123      1.0  0.6108637325840807  0.5317741058377856  0.6771035061268108  1.0000
  S   S124      1.0  0.6813956249716193  0.6121396219305775  0.6726179031806442  1.0000
  Fe  Fe63      1.0  0.6396395041029618  0.4806478932190596  0.6660436508634374  1.0000
  S   S125      1.0  0.6559649136783455  0.43498789345787736  0.6847767351579024  1.0000
  Fe  Fe64      1.0  0.5793522006560983  0.5326431089430291  0.6521714895508469  1.0000
  S   S126      1.0  0.5208748687556137  0.551981331914504  0.6491553169225666  1.0000
  S   S127      1.0  0.6834707162619997  0.5115695590330863  0.6529605094233296  1.0000
  S   S128      1.0  0.6183929964667431  0.5676573463194171  0.6382069835143785  1.0000
  Fe  Fe65      1.0  0.9799440570818053  0.8229210398999949  0.9938515385084428  1.0000
  S   S129      1.0  0.04044659864972533  0.8157165022213367  0.9938252628683195  1.0000
  S   S130      1.0  0.9564389934698104  0.8516692603311078  0.9702157714333361  1.0000
  Fe  Fe66      1.0  0.9741560307471077  0.7894467110959072  0.02947660847095324  1.0000
  S   S131      1.0  0.03435641621104435  0.7786181074668032  0.03266377246743013  1.0000
  S   S132      1.0  0.9364466330357628  0.7806888554915337  0.05175527255148406  1.0000
  Fe  Fe67      1.0  0.03812476676269161  0.8354925871662467  0.02143201166468578  1.0000
  S   S133      1.0  0.07528412488501135  0.8761149594769121  0.033512158297530625  1.0000
  Fe  Fe68      1.0  0.03195770393892827  0.759619074119981  0.00488634508135255  1.0000
  S   S134      1.0  0.06894749475817652  0.7161296270905873  0.9925405710464393  1.0000
  S   S135      1.0  0.9780781121969188  0.8483143791283367  0.02054056070482191  1.0000
  S   S136      1.0  0.9712024933199023  0.7646603420671927  0.002563931976954592  1.0000
  Fe  Fe69      1.0  0.28411361766487225  0.9583512322042894  0.9777903969023164  1.0000
  S   S137      1.0  0.24622834338793392  0.9954885773451037  0.9620195431200809  1.0000
  S   S138      1.0  0.3177614605247722  0.9118179604576253  0.9653040926217722  1.0000
  Fe  Fe70      1.0  0.2563492707820572  0.9902842962434675  0.012128684412343384  1.0000
  S   S139      1.0  0.21582226223941603  0.030183795177411987  0.9993703216789258  1.0000
  S   S140      1.0  0.2617906948939421  0.9858966191110059  0.04119569116441113  1.0000
  Fe  Fe71      1.0  0.20487948152629956  0.9820366090827126  0.9819928927786141  1.0000
  S   S141      1.0  0.15009029541177957  0.9645607233980519  0.973909005027211  1.0000
  Fe  Fe72      1.0  0.26101187782620683  0.03996927506483061  0.9808061751179304  1.0000
  S   S142      1.0  0.27074740395957864  0.09744182759212561  0.9715058720185787  1.0000
  S   S143      1.0  0.24118003053061154  0.9411535542061618  0.9962997650424061  1.0000
  S   S144      1.0  0.30305275226978695  0.004147360391405508  0.994958008226493  1.0000
  Fe  Fe73      1.0  0.7480658484015594  0.8670960705492153  0.8914165239497293  1.0000
  S   S145      1.0  0.7119196662305538  0.9167762753265847  0.8983523257898617  1.0000
  S   S146      1.0  0.7577250427226825  0.8567966725605  0.8628337899240086  1.0000
  Fe  Fe74      1.0  0.7671212584115249  0.8505779856261731  0.9292025409407563  1.0000
  S   S147      1.0  0.7313235923533937  0.8982524860358637  0.9392297528175326  1.0000
  S   S148      1.0  0.797175267838514  0.813541219178811  0.948590329314022  1.0000
  Fe  Fe75      1.0  0.6911299796249307  0.8803035937396166  0.919306692284322  1.0000
  S   S149      1.0  0.6313949409098398  0.8771650034458486  0.9249919543052244  1.0000
  Fe  Fe76      1.0  0.7553549833229857  0.9298743626118636  0.9174070516101684  1.0000
  S   S150      1.0  0.772314147355695  0.9886500535749648  0.9198561988774664  1.0000
  S   S151      1.0  0.7245414507472338  0.8293995742991479  0.9112111976495187  1.0000
  S   S152      1.0  0.7939237285322291  0.883506438643651  0.9085670391461127  1.0000
  Fe  Fe77      1.0  0.41447668230606866  0.9033219922118892  0.84132856338121  1.0000
  S   S153      1.0  0.43927720755401556  0.8455818329445824  0.8430162024516938  1.0000
  S   S154      1.0  0.39805816764357244  0.9219045006207639  0.8145414235262884  1.0000
  Fe  Fe78      1.0  0.4184360917443674  0.9150504072584369  0.8801657111885604  1.0000
  S   S155      1.0  0.4440944169664602  0.8581625801372144  0.885456337194758  1.0000
  S   S156      1.0  0.4077129453319365  0.9600729585797363  0.9000139736833719  1.0000
  Fe  Fe79      1.0  0.4780527379716882  0.869363931287057  0.8618905706037386  1.0000
  S   S157      1.0  0.5376355184690321  0.857462739955977  0.8570063944157315  1.0000
  Fe  Fe80      1.0  0.4029549153632976  0.8394802890872312  0.8660898416350978  1.0000
  S   S158      1.0  0.3714791503716709  0.7877354139162791  0.8666749467558805  1.0000
  S   S159      1.0  0.45618361244174743  0.9279665702375435  0.8583659299718297  1.0000
  S   S160      1.0  0.3743703852366517  0.8954053644579416  0.8627073484687917  1.0000
  Fe  Fe81      1.0  0.11530090757800318  0.7927948197676149  0.9091517663896332  1.0000
  S   S161      1.0  0.10113076082291445  0.7431483774638649  0.8934768644624438  1.0000
  S   S162      1.0  0.06908488540657555  0.8315001542352635  0.9176435688309817  1.0000
  Fe  Fe82      1.0  0.1948034629197741  0.7670322935156306  0.9116768666577469  1.0000
  S   S163      1.0  0.18726407408731188  0.7146325135043757  0.8963806057024548  1.0000
  S   S164      1.0  0.24681009570207474  0.7856122045789802  0.9232906785852278  1.0000
  Fe  Fe83      1.0  0.15266528727987305  0.752151334493221  0.8789703650994658  1.0000
  S   S165      1.0  0.1534016963209859  0.7471546823384045  0.8497063948665702  1.0000
  Fe  Fe84      1.0  0.1365541726604127  0.7109222747205809  0.9123322245006232  1.0000
  S   S166      1.0  0.11354206568675035  0.6614848265661025  0.9252093182972967  1.0000
  S   S167      1.0  0.16404227877995198  0.8048293160195558  0.8931758342483435  1.0000
  S   S168      1.0  0.14704256410167674  0.7601011773240861  0.9291626230887491  1.0000
  Fe  Fe85      1.0  0.9737497901458145  0.07457006629649432  0.8990635903671111  1.0000
  S   S169      1.0  0.9859529433637626  0.01566300907013618  0.9072986488603265  1.0000
  S   S170      1.0  0.9473237027217687  0.08443665507435139  0.8730630050172494  1.0000
  Fe  Fe86      1.0  0.007798562038937806  0.10603113542355502  0.9313539628557017  1.0000
  S   S171      1.0  0.02242271674695684  0.04973968950170149  0.9424088182205734  1.0000
  S   S172      1.0  0.025979629723169362  0.15740738095112805  0.9447146494734517  1.0000
  Fe  Fe87      1.0  0.040114006168538774  0.03513635028711004  0.9153321241688392  1.0000
  S   S173      1.0  0.09277233003662944  0.0029429919785577408  0.9101482895731481  1.0000
  Fe  Fe88      1.0  0.9666244855100586  0.03591230411138868  0.9334279653242328  1.0000
  S   S174      1.0  0.9317517983517283  0.998904511880345  0.949025503969296  1.0000
  S   S175      1.0  0.02997407337149638  0.09248313058331226  0.9047698693375475  1.0000
  S   S176      1.0  0.9502396555958303  0.0937392495811542  0.9246983859694037  1.0000
  Fe  Fe89      1.0  0.19308025257060427  0.5583755770867939  0.0018033071156948743  1.0000
  S   S177      1.0  0.15269113803206052  0.5146814084981309  0.9973581559529079  1.0000
  S   S178      1.0  0.22158751583577557  0.5853366025042009  0.9795818885436182  1.0000
  Fe  Fe90      1.0  0.1897084799273932  0.550694762488623  0.041333880328234596  1.0000
  S   S179      1.0  0.15105735147976004  0.5047266556662771  0.040040180750728904  1.0000
  S   S180      1.0  0.20064502967066855  0.5719582747768728  0.0681552140296311  1.0000
  Fe  Fe91      1.0  0.18517809861950388  0.4833865881308616  0.01767343279980027  1.0000
  S   S181      1.0  0.2042632449447612  0.4243638015898629  0.012498627898053005  1.0000
  Fe  Fe92      1.0  0.12283843954964176  0.540791624248565  0.020082356721419226  1.0000
  S   S182      1.0  0.0635515842056562  0.5556616441308262  0.023140305730837696  1.0000
  S   S183      1.0  0.22731869618053385  0.5256025835496618  0.02110638433269929  1.0000
  S   S184      1.0  0.1599459483841956  0.5881857403964053  0.02241038066918266  1.0000
  Fe  Fe93      1.0  0.17808905967983296  0.21167327724799775  0.04041384938006409  1.0000
  S   S185      1.0  0.15180330375823048  0.16405191352651258  0.053265992382203864  1.0000
  S   S186      1.0  0.23675894187314162  0.2104432761226902  0.03300738464277275  1.0000
  Fe  Fe94      1.0  0.1087699356575785  0.2593621175760034  0.03895311145241287  1.0000
  S   S187      1.0  0.07600909024858393  0.21592906524162594  0.05137257522757954  1.0000
  S   S188      1.0  0.08243962600859067  0.3143153908896643  0.03133991727714758  1.0000
  Fe  Fe95      1.0  0.12350381347406336  0.20858223447308274  0.06949984443171897  1.0000
  S   S189      1.0  0.11655593874016978  0.20171355272680494  0.09829783073893705  1.0000
  Fe  Fe96      1.0  0.10698246321269655  0.1758412496087304  0.03398656524304555  1.0000
  S   S190      1.0  0.07588334548131259  0.12958245350199132  0.022341518655600412  1.0000
  S   S191      1.0  0.1539448793545193  0.25527811755054447  0.05844706737856997  1.0000
  S   S192      1.0  0.1357422806293167  0.2201459898976407  0.019758665121271335  1.0000
  Fe  Fe97      1.0  0.20516405515821662  0.19930765511430576  0.2650831776612765  1.0000
  S   S193      1.0  0.23205678763055343  0.24316237747957373  0.24988276808278104  1.0000
  S   S194      1.0  0.197463675682691  0.19834320961642005  0.2940319074253663  1.0000
  Fe  Fe98      1.0  0.18073974836329182  0.15891357571619985  0.233038624369157  1.0000
  S   S195      1.0  0.205488465627681  0.1984093616795256  0.2145717799981122  1.0000
  S   S196      1.0  0.14246633022205393  0.11509307493048777  0.2256415935661402  1.0000
  Fe  Fe99      1.0  0.2526117116565336  0.19568334663023276  0.23310805875665838  1.0000
  S   S197      1.0  0.30907712949938176  0.20182499054688  0.22340956511734886  1.0000
  Fe  Fe100     1.0  0.18348767201996552  0.2427520116118761  0.23255627701596684  1.0000
  S   S198      1.0  0.15761943183594015  0.29478061052558635  0.22165600157178  1.0000
  S   S199      1.0  0.23036801526132508  0.15123047529583736  0.24994466034711554  1.0000
  S   S200      1.0  0.15402654715112796  0.20397680196952245  0.249329975936321  1.0000
  Fe  Fe101     1.0  0.9826126526771289  0.47678110260075346  0.293928907350025  1.0000
  S   S201      1.0  0.9871311971483548  0.4170639613447107  0.2856691160615979  1.0000
  S   S202      1.0  0.9609147483773941  0.4947075068366164  0.32017312678930854  1.0000
  Fe  Fe102     1.0  0.01758026227952847  0.5033238813239  0.2607234585388605  1.0000
  S   S203      1.0  0.0238639839371797  0.4458388046561955  0.24956737557293251  1.0000
  S   S204      1.0  0.04360179681791121  0.549334590241996  0.2463425140531888  1.0000
  Fe  Fe103     1.0  0.9677582167106044  0.439333354230534  0.25996073654552904  1.0000
  S   S205      1.0  0.9278920768359696  0.4062811728013209  0.24535642166959615  1.0000
  Fe  Fe104     1.0  0.04260171985711381  0.4292161395463834  0.27632278029111995  1.0000
  S   S206      1.0  0.09022585244504167  0.3907890165457115  0.2835763184803452  1.0000
  S   S207      1.0  0.9592844933422612  0.4986746552532815  0.2687148752152987  1.0000
  S   S208      1.0  0.04025786028790557  0.4872514550113479  0.28688538122362894  1.0000
  Fe  Fe105     1.0  0.07016497306141865  0.6418815406509606  0.13853741553573162  1.0000
  S   S209      1.0  0.03063328983152047  0.5987966787282591  0.13241315194834902  1.0000
  S   S210      1.0  0.12961505738282317  0.6272962086276724  0.13647754782798424  1.0000
  Fe  Fe106     1.0  0.012280699387059888  0.702744638510998  0.14459470294140658  1.0000
  S   S211      1.0  0.9665486750844872  0.6649419025518845  0.13921883537834942  1.0000
  S   S212      1.0  0.004551610883891663  0.7633996200074382  0.1520919955268181  1.0000
  Fe  Fe107     1.0  0.9993186348552052  0.6228165923834011  0.1551305931602944  1.0000
  S   S213      1.0  0.97415410590026  0.5803034140253585  0.17218353057603628  1.0000
  Fe  Fe108     1.0  0.0014947683349768592  0.6437750217086572  0.11710123558330846  1.0000
  S   S214      1.0  0.9853049560223234  0.631467034733331  0.0897347995887853  1.0000
  S   S215      1.0  0.04167428128219174  0.6626498658708001  0.1626716809939292  1.0000
  S   S216      1.0  0.04429977835867006  0.6848579423667461  0.12099471033217371  1.0000
  Fe  Fe109     1.0  0.10811190693011256  0.9355306548608843  0.12851016381517483  1.0000
  S   S217      1.0  0.15335720477583065  0.9692417042224164  0.11882939233155196  1.0000
  S   S218      1.0  0.11840203425152364  0.8739943251174331  0.12381620697429341  1.0000
  Fe  Fe110     1.0  0.06007365183461079  0.0045646399102647894  0.13625383001256638  1.0000
  S   S219      1.0  0.10120576956522224  0.04372625913253492  0.12711873366597062  1.0000
  S   S220      1.0  0.004871948612298782  0.030503549765588334  0.14191461633963673  1.0000
  Fe  Fe111     1.0  0.10997346730545551  0.0034505782880547287  0.10518833883107144  1.0000
  S   S221      1.0  0.11042438943904315  0.020688356795461438  0.07721590023235823  1.0000
  Fe  Fe112     1.0  0.14062514599399942  0.006245848249047281  0.1417950233084198  1.0000
  S   S222      1.0  0.18698406640526796  0.03135956791009398  0.15581035387144018  1.0000
  S   S223      1.0  0.06550249619679116  0.9670415011417259  0.112952566573384  1.0000
  S   S224      1.0  0.09869171587778008  0.9695982124196928  0.15294899174519175  1.0000
  Fe  Fe113     1.0  0.9498402765857153  0.2554247358526159  0.14615676967836705  1.0000
  S   S225      1.0  0.0020109682095497128  0.2551403423213863  0.1610188698473528  1.0000
  S   S226      1.0  0.9538576420335682  0.24730166529261155  0.11733626750149527  1.0000
  Fe  Fe114     1.0  0.9044595340207585  0.269339596978041  0.17859689519380334  1.0000
  S   S227      1.0  0.9534264069724967  0.2701262451596602  0.19600165026472255  1.0000
  S   S228      1.0  0.8467742573255493  0.2771204082183024  0.18795465646816298  1.0000
  Fe  Fe115     1.0  0.9766850315557593  0.30453904522703246  0.17490432562476996  1.0000
  S   S229      1.0  0.007480642041267194  0.35531382496031366  0.18095382326107193  1.0000
  Fe  Fe116     1.0  0.9734170597807733  0.22074735330497555  0.1801778967141504  1.0000
  S   S230      1.0  0.0032231606766484067  0.17066771782837675  0.19168881598380344  1.0000
  S   S231      1.0  0.9263390729246987  0.3076859384154327  0.15858013512371605  1.0000
  S   S232      1.0  0.9225317930618163  0.21729551193478688  0.16435369116305404  1.0000
  Fe  Fe117     1.0  0.20412570784827075  0.4487130993337732  0.17108294984851136  1.0000
  S   S233      1.0  0.2623550800147025  0.4544136958144324  0.16299445725897171  1.0000
  S   S234      1.0  0.16793263745852804  0.4905177953503583  0.1853271134270463  1.0000
  Fe  Fe118     1.0  0.1999311425176431  0.37131016060967925  0.15689312478825282  1.0000
  S   S235      1.0  0.25702002052413325  0.3694073366996972  0.14742663823073293  1.0000
  S   S236      1.0  0.16576396446546074  0.32293669207933334  0.15192232896071742  1.0000
  Fe  Fe119     1.0  0.2700630885503877  0.39592924693995973  0.17287079468531066  1.0000
  S   S237      1.0  0.31827465136322036  0.37040579166846516  0.1870704286637207  1.0000
  Fe  Fe120     1.0  0.2444995900044931  0.4273765884766044  0.13817145429346755  1.0000
  S   S238      1.0  0.2656158246073213  0.4355676489281509  0.11120300873405192  1.0000
  S   S239      1.0  0.2136330399143895  0.39259862843279547  0.18334709149276907  1.0000
  S   S240      1.0  0.1855467482681941  0.42700387046519706  0.14530064036602064  1.0000
  Fe  Fe121     1.0  0.7546732374073722  0.36426675329797703  0.28334782039864587  1.0000
  S   S241      1.0  0.8016275595719098  0.3316171452684709  0.295250753292185  1.0000
  S   S242      1.0  0.767012396743801  0.42109960924654277  0.2737658411280383  1.0000
  Fe  Fe122     1.0  0.701877178491791  0.3044528868623194  0.29063593794963405  1.0000
  S   S243      1.0  0.7449860375976629  0.2665788807057866  0.30262705814744223  1.0000
  S   S244      1.0  0.6459696699508465  0.2825785689494376  0.29264995804884314  1.0000
  Fe  Fe123     1.0  0.7623986456809299  0.3178753560977237  0.31605423796900234  1.0000
  S   S245      1.0  0.7742263522688853  0.3230514758725042  0.34456315771375956  1.0000
  Fe  Fe124     1.0  0.7798336306993027  0.2837628799611145  0.2804777395210039  1.0000
  S   S246      1.0  0.8203715904218526  0.2438577505478668  0.2675891822642923  1.0000
  S   S247      1.0  0.7169166740923995  0.3548821376581668  0.30564718959840304  1.0000
  S   S248      1.0  0.7351117192277495  0.3173254214619666  0.26703260150648067  1.0000
  Fe  Fe125     1.0  0.41259038623397715  0.37254551408161146  0.3141531722283476  1.0000
  S   S249      1.0  0.4562195137784044  0.33244777848915213  0.30456432474052714  1.0000
  S   S250      1.0  0.40884130065179997  0.38114297207585285  0.3429071360017453  1.0000
  Fe  Fe126     1.0  0.379599409690985  0.38469064489025884  0.27831813176440295  1.0000
  S   S251      1.0  0.42088545704129493  0.3457172723789292  0.2653331719963861  1.0000
  S   S252      1.0  0.33392118761547745  0.4177479480518712  0.2653213969981613  1.0000
  Fe  Fe127     1.0  0.41198218892847654  0.3093316858968153  0.2884108906977954  1.0000
  S   S253      1.0  0.4023490760680323  0.24859669634606651  0.2881057183373923  1.0000
  Fe  Fe128     1.0  0.4611878875098343  0.3727296664133251  0.2825815195861791  1.0000
  S   S254      1.0  0.5141833238975385  0.3933763216488206  0.27304677955731554  1.0000
  S   S255      1.0  0.36755945409191215  0.3460827001172969  0.3000123407061522  1.0000
  S   S256      1.0  0.42067054661181114  0.4151059177100479  0.29350602506751067  1.0000
  C   C1        1.0  0.6100987398300798  0.31319114496171685  0.28613296850763775  1.0000
  C   C2        1.0  0.5744906335085264  0.30169015535685123  0.2874771333894068  1.0000
  C   C3        1.0  0.5450817524417183  0.32598388487295527  0.28304619683648796  1.0000
  C   C4        1.0  0.5510972837620778  0.36202923740209547  0.27740998207563416  1.0000
  C   C5        1.0  0.5867847138679144  0.3734185504975982  0.27576323676359316  1.0000
  C   C6        1.0  0.6163420402582044  0.3490166771045212  0.2801727899559738  1.0000
  H   H1        1.0  0.5696205881336003  0.2737988694466557  0.29182072588034375  1.0000
  H   H2        1.0  0.5178161174717946  0.3164823277137301  0.28370891750592064  1.0000
  H   H3        1.0  0.5915878676606809  0.4012181805194591  0.2712706616008015  1.0000
  H   H4        1.0  0.6438626534612428  0.35793256367934395  0.2790030340043694  1.0000
  C   C7        1.0  0.3182877269778503  0.3816455601571068  0.20918313358442364  1.0000
  C   C8        1.0  0.30084155091802495  0.41458175141561415  0.21525788674533788  1.0000
  C   C9        1.0  0.30464230844338924  0.4250613041931012  0.23276023088683606  1.0000
  C   C10       1.0  0.3256223184307799  0.40243705165819127  0.2441032230521229  1.0000
  C   C11       1.0  0.34114239335882335  0.36848290671348694  0.23820286017179707  1.0000
  C   C12       1.0  0.33769828772430655  0.35820224618602986  0.22072821541587342  1.0000
  H   H5        1.0  0.2857005223903098  0.43266209413826934  0.20631505887939008  1.0000
  H   H6        1.0  0.29242748421201603  0.4512893379640577  0.23732471130744687  1.0000
  H   H7        1.0  0.3559429033211938  0.3500954846503898  0.24703609453286962  1.0000
  H   H8        1.0  0.35059025777511243  0.33231539304422386  0.21610093567496183  1.0000
  C   C13       1.0  0.05123116661235039  0.34868880526532486  0.17226210119173577  1.0000
  C   C14       1.0  0.05674693593044977  0.32820099465018243  0.15689896734435382  1.0000
  C   C15       1.0  0.09202547161972369  0.32008214795724543  0.15074321548336625  1.0000
  C   C16       1.0  0.12176962801146249  0.33380612734504017  0.1595533232722904  1.0000
  C   C17       1.0  0.116203699506169  0.3558180246311654  0.1744823198351331  1.0000
  C   C18       1.0  0.08091423829767289  0.36300724905979104  0.18091999018357682  1.0000
  H   H9        1.0  0.03380252457503352  0.3188497764329284  0.14961942994709382  1.0000
  H   H10       1.0  0.0961864538959929  0.3035829168998819  0.1390161231638121  1.0000
  H   H11       1.0  0.13914349293229344  0.3660878105164773  0.1814611501942561  1.0000
  H   H12       1.0  0.07672462230307331  0.37864820644002106  0.19287316377627978  1.0000
  C   C19       1.0  0.839836041080886  0.2687722247988186  0.21020748303640166  1.0000
  C   C20       1.0  0.8052636643785105  0.2756368619725581  0.21741774947192194  1.0000
  C   C21       1.0  0.7992159045380929  0.2687118968078102  0.23513333920108173  1.0000
  C   C22       1.0  0.827665241286325  0.25457213566916903  0.24563942196170782  1.0000
  C   C23       1.0  0.8622253453400657  0.2477601783475346  0.2384230259304788  1.0000
  C   C24       1.0  0.8683643182962498  0.2552233198602181  0.22079138454988173  1.0000
  H   H13       1.0  0.7830324851612636  0.28610449788713177  0.2092996695647522  1.0000
  H   H14       1.0  0.7723006249727717  0.27332616506276425  0.24051849949415735  1.0000
  H   H15       1.0  0.8843384024519428  0.2372065760663171  0.24658443284199846  1.0000
  H   H16       1.0  0.8950391257234805  0.250042897128039  0.21541544166773716  1.0000
  C   C25       1.0  0.0074723081537084735  0.07033246386136138  0.1550254598913507  1.0000
  C   C26       1.0  0.028670672194319957  0.06972240093491422  0.1701743282879044  1.0000
  C   C27       1.0  0.02782292039446821  0.10087517892345982  0.1813045662115895  1.0000
  C   C28       1.0  0.006783697474791461  0.13302348822715365  0.17699149675220033  1.0000
  C   C29       1.0  0.9873903946074931  0.13424579132470169  0.1613244510322563  1.0000
  C   C30       1.0  0.9870327872978222  0.10271550542590802  0.1505725658127611  1.0000
  H   H17       1.0  0.04469849026314444  0.0447943928023784  0.1736177510630479  1.0000
  H   H18       1.0  0.04318952548385924  0.09987445514789851  0.1933198847565008  1.0000
  H   H19       1.0  0.9720571246756797  0.15915415707793  0.15756188890841205  1.0000
  H   H20       1.0  0.970943389767528  0.103448751943783  0.13877094586166902  1.0000
  C   C31       1.0  0.08757876044802275  0.8437704507849142  0.13266976107117137  1.0000
  C   C32       1.0  0.05954187367162355  0.8564987368089307  0.14377337989915506  1.0000
  C   C33       1.0  0.03432968208289577  0.8315263982132816  0.1499002966688124  1.0000
  C   C34       1.0  0.0371027977560765  0.7939603723931515  0.1448944676841011  1.0000
  C   C35       1.0  0.0654283047932749  0.781434937111632  0.13394503199400984  1.0000
  C   C36       1.0  0.09054154809968593  0.8062337912866243  0.1278283302302761  1.0000
  H   H21       1.0  0.05711256212046601  0.8855493602279673  0.14754059293929922  1.0000
  H   H22       1.0  0.01247600627123235  0.8413989293107662  0.15842028907916095  1.0000
  H   H23       1.0  0.06788495746660672  0.7527434963267925  0.13003908594708558  1.0000
  H   H24       1.0  0.11206424295902728  0.7964044047164324  0.11912661883134362  1.0000
  C   C37       1.0  0.1407340344086098  0.5898255455888199  0.15029887081500376  1.0000
  C   C38       1.0  0.11903206411364527  0.5831265894017605  0.16479939700075008  1.0000
  C   C39       1.0  0.12820731346795647  0.5533198985345514  0.17591861854172156  1.0000
  C   C40       1.0  0.15821823943948435  0.5292564104109382  0.1721183116905874  1.0000
  C   C41       1.0  0.17961689412351908  0.5356324422598019  0.1575018964186332  1.0000
  C   C42       1.0  0.17125455942055565  0.5663306936507986  0.14677713919833651  1.0000
  H   H25       1.0  0.09535574614243501  0.6010474466381467  0.16757983772406979  1.0000
  H   H26       1.0  0.11160725474797022  0.5485922433898648  0.18724701308565003  1.0000
  H   H27       1.0  0.2028929418597643  0.5171761395732567  0.15454439320996963  1.0000
  H   H28       1.0  0.18816282870232634  0.5715116060521639  0.1356157828681137  1.0000
  C   C43       1.0  0.8834648041447699  0.41088469647674286  0.2535960830292777  1.0000
  C   C44       1.0  0.8685515407357413  0.4455411928511763  0.25903480577590543  1.0000
  C   C45       1.0  0.8320724813334652  0.4491685929175327  0.2643817957502525  1.0000
  C   C46       1.0  0.8107925743830013  0.41795683630156316  0.2646891458586673  1.0000
  C   C47       1.0  0.8257112519631237  0.3834453025655959  0.25912039364610306  1.0000
  C   C48       1.0  0.8618759891654465  0.3799658052137763  0.2535057882194137  1.0000
  H   H29       1.0  0.8848873862833763  0.46968519118222524  0.25876993788643515  1.0000
  H   H30       1.0  0.8205918616758302  0.4760059864661694  0.2685240720166223  1.0000
  H   H31       1.0  0.8094110519773183  0.35925397461039954  0.2591506628462829  1.0000
  H   H32       1.0  0.8732495474253797  0.35302748149987223  0.24941229782491348  1.0000
  C   C49       1.0  0.024929322306051827  0.5569699267566419  0.22556130905963317  1.0000
  C   C50       1.0  0.04072072058190934  0.5820357039674704  0.21427690765770888  1.0000
  C   C51       1.0  0.025559298284593135  0.5890838495653928  0.19777118851872522  1.0000
  C   C52       1.0  0.9944001215042373  0.5713213085858595  0.19257465928183376  1.0000
  C   C53       1.0  0.9792778484256026  0.5454325721924722  0.20368338783605222  1.0000
  C   C54       1.0  0.9945757165404948  0.5381556155766899  0.22014226506287551  1.0000
  H   H33       1.0  0.0643407641476299  0.5964531507662529  0.21840292609158096  1.0000
  H   H34       1.0  0.03765336645389339  0.6086560387224363  0.1892317082707687  1.0000
  H   H35       1.0  0.9552664191123212  0.5314878599183798  0.19968726115785407  1.0000
  H   H36       1.0  0.9823323037059012  0.5186616478613907  0.2287783243009973  1.0000
  C   C55       1.0  0.33500683650442953  0.2152000113456479  0.24130278137397707  1.0000
  C   C56       1.0  0.3632397987538214  0.2393915753729676  0.23907690118034736  1.0000
  C   C57       1.0  0.3834479721532225  0.25056234246653375  0.253526214453258  1.0000
  C   C58       1.0  0.3760834033133637  0.2366446427757672  0.27008693657697097  1.0000
  C   C59       1.0  0.3478676804845316  0.21247742504280068  0.2722767657501796  1.0000
  C   C60       1.0  0.32693348824272017  0.20228530723198568  0.2579466964251277  1.0000
  H   H37       1.0  0.3694303979473229  0.24951975296809695  0.226226678324195  1.0000
  H   H38       1.0  0.4055199012691083  0.2688693961777269  0.25176288008596687  1.0000
  H   H39       1.0  0.34204521080783135  0.20174675315010732  0.28506569768213497  1.0000
  H   H40       1.0  0.3051365186185318  0.18361938271532086  0.25972806546558624  1.0000
  C   C61       1.0  0.13707919104073235  0.32010328279965505  0.23878958339832748  1.0000
  C   C62       1.0  0.14314837877339684  0.30905366818898267  0.2560543406527047  1.0000
  C   C63       1.0  0.1278320823443865  0.3303383323610876  0.26976977708743594  1.0000
  C   C64       1.0  0.10625789245295283  0.3625099443196299  0.26625964469165875  1.0000
  C   C65       1.0  0.09922918184524657  0.3726736335561612  0.24898445575895323  1.0000
  C   C66       1.0  0.11497105183159956  0.3518270924798932  0.23525315136712657  1.0000
  H   H41       1.0  0.15982509055103175  0.2842885067456417  0.2588946118456418  1.0000
  H   H42       1.0  0.13231913570517823  0.32162483234689304  0.2831004866969162  1.0000
  H   H43       1.0  0.0818109914615266  0.396615447639808  0.246150010571867  1.0000
  H   H44       1.0  0.10970809558237908  0.3600091860983957  0.22189883296921756  1.0000
  C   C67       1.0  0.1546846641469782  0.09257508136283016  0.20604891738469477  1.0000
  C   C68       1.0  0.18941389753177718  0.09573379681008531  0.19904787717691294  1.0000
  C   C69       1.0  0.19911553721640238  0.07691346062482474  0.1835647414748064  1.0000
  C   C70       1.0  0.17394075536007556  0.055462472905714044  0.17490565516984544  1.0000
  C   C71       1.0  0.13890313485998204  0.05310351703577276  0.18169687923145397  1.0000
  C   C72       1.0  0.12941543318028162  0.07135263824553718  0.19735510508782783  1.0000
  H   H45       1.0  0.20911303028492573  0.11189305461942034  0.20575709394441535  1.0000
  H   H46       1.0  0.2262408438133107  0.0787064543436704  0.17834129738646656  1.0000
  H   H47       1.0  0.11930733678407136  0.03675549474690998  0.1750332620456945  1.0000
  H   H48       1.0  0.10250921780373033  0.06892803627510369  0.20271987509714715  1.0000
  C   C73       1.0  0.07232444792150838  0.21667206454882823  0.10433016000660933  1.0000
  C   C74       1.0  0.05660798567967462  0.2021745931696675  0.11925885107519418  1.0000
  C   C75       1.0  0.020104914499128546  0.21141287933839512  0.12323763637309437  1.0000
  C   C76       1.0  0.9993675422793334  0.23534856384742925  0.1123580687861845  1.0000
  C   C77       1.0  0.015239214902783127  0.250143047152678  0.0975571538454543  1.0000
  C   C78       1.0  0.0518173921131988  0.2412091621800907  0.09369004682791249  1.0000
  H   H49       1.0  0.0723007644361453  0.18298278354133768  0.1274525305544798  1.0000
  H   H50       1.0  0.007683068998375342  0.19907559523829738  0.13442741454750817  1.0000
  H   H51       1.0  0.9994687371441453  0.26918468075136337  0.08930887977209437  1.0000
  H   H52       1.0  0.0642980607592849  0.25393699215323146  0.08265500918319768  1.0000
  C   C79       1.0  0.1697334487530501  0.39378446532808925  0.016554619524508096  1.0000
  C   C80       1.0  0.17829962961132567  0.3555273828381954  0.017571330522583972  1.0000
  C   C81       1.0  0.15140727020309946  0.33099997977081896  0.021978721576290328  1.0000
  C   C82       1.0  0.11580904719385075  0.34467520229005144  0.02516470751494637  1.0000
  C   C83       1.0  0.10709639058547085  0.382875860236318  0.02385621984360431  1.0000
  C   C84       1.0  0.13410504332603676  0.407475895421374  0.019650954663844145  1.0000
  H   H53       1.0  0.20587522492350016  0.3448609143343945  0.015239848400650402  1.0000
  H   H54       1.0  0.1583347440279046  0.3015175217625726  0.022930761930215926  1.0000
  H   H55       1.0  0.0795768000889403  0.3935305655124463  0.026330019734071453  1.0000
  H   H56       1.0  0.12729345788692897  0.4370076813817528  0.01883407602363607  1.0000
  C   C85       1.0  0.21967475697044592  0.5351939854593113  0.08055768757134718  1.0000
  C   C86       1.0  0.24172512895448742  0.5075404306973439  0.07247546714500785  1.0000
  C   C87       1.0  0.25673813756497144  0.47783470896953434  0.08223813058564157  1.0000
  C   C88       1.0  0.24862876417678928  0.47488799819703775  0.0999525583266817  1.0000
  C   C89       1.0  0.22616591296094304  0.50225444229879  0.10807543641751463  1.0000
  C   C90       1.0  0.21210536667895363  0.5327789775498267  0.09839515169556878  1.0000
  H   H57       1.0  0.24787862122412768  0.5094611741919587  0.05875502107205022  1.0000
  H   H58       1.0  0.27442453452014537  0.4568800051650729  0.07599636022944119  1.0000
  H   H59       1.0  0.21991275169306349  0.5000578669020592  0.12178538241135459  1.0000
  H   H60       1.0  0.19503394837380916  0.5541933360127634  0.10464829249637342  1.0000
  C   C91       1.0  0.039596913148006285  0.1490939370791018  0.9662210186181283  1.0000
  C   C92       1.0  0.06481407772801817  0.17193659641409909  0.9738198529073843  1.0000
  C   C93       1.0  0.07664057338284502  0.16546019544840063  0.9909082487651657  1.0000
  C   C94       1.0  0.06290326743694208  0.1365250070326159  0.0005858369114977169  1.0000
  C   C95       1.0  0.037762935686252996  0.11348553170361349  0.9929545326341038  1.0000
  C   C96       1.0  0.026067369590716316  0.11978884984430826  0.9757690216898114  1.0000
  H   H61       1.0  0.0756079354526884  0.19437093454564347  0.9663755558584721  1.0000
  H   H62       1.0  0.09646894963693886  0.18282639487370525  0.9964872123940579  1.0000
  H   H63       1.0  0.026896834020943006  0.09114729139730327  0.0004247073098770926  1.0000
  H   H64       1.0  0.0058827114151434046  0.10262351869931297  0.9700899098873077  1.0000
  C   C97       1.0  0.07686827348450054  0.878938550285428  0.9158918357262003  1.0000
  C   C98       1.0  0.11011810027276614  0.8911830804600844  0.9099589870303613  1.0000
  C   C99       1.0  0.11520376190805434  0.929411482535826  0.9083482343700753  1.0000
  C   C100      1.0  0.08725804641633114  0.9553198049807577  0.9129765612310418  1.0000
  C   C101      1.0  0.054349617576128884  0.943021024146987  0.9191881700221806  1.0000
  C   C102      1.0  0.04899319036100569  0.9049074502603616  0.9204332287023227  1.0000
  H   H65       1.0  0.13168473590636004  0.871311276529537  0.9064174662366662  1.0000
  H   H66       1.0  0.1404961385419667  0.9388844665308507  0.9032767102817962  1.0000
  H   H67       1.0  0.03287154137495163  0.9628369709617199  0.9229090916102616  1.0000
  H   H68       1.0  0.02307081953711654  0.8954525870205668  0.9247265324853434  1.0000
  C   C103      1.0  0.14444185921167405  0.6376901148512345  0.939095839389863  1.0000
  C   C104      1.0  0.13162608353728947  0.6126203431140865  0.9512585404675742  1.0000
  C   C105      1.0  0.15543225481110043  0.5958237989816296  0.9634893131000289  1.0000
  C   C106      1.0  0.19219933014775156  0.6035319311774882  0.9633990866539504  1.0000
  C   C107      1.0  0.20538846504167763  0.6272654087533719  0.9507186021678211  1.0000
  C   C108      1.0  0.181462173086931  0.6445991862082077  0.9386537669635961  1.0000
  H   H69       1.0  0.10301434164506777  0.6070824769869348  0.9515986116459588  1.0000
  H   H70       1.0  0.14517050145712057  0.577371985070683  0.9731345189676186  1.0000
  H   H71       1.0  0.23395347483970616  0.632967382294373  0.9504761990570463  1.0000
  H   H72       1.0  0.1916135248174459  0.6634996313572293  0.9291004189218875  1.0000
  C   C109      1.0  0.3366481957856774  0.78847088699513  0.8823126179077153  1.0000
  C   C110      1.0  0.30658721732492344  0.7668437146157078  0.879583668631305  1.0000
  C   C111      1.0  0.2786465048347373  0.7665853472593265  0.8919727155382086  1.0000
  C   C112      1.0  0.28125860366220945  0.7868746798968222  0.9074517410245281  1.0000
  C   C113      1.0  0.3114118519502753  0.8084767035028544  0.9102248393200402  1.0000
  C   C114      1.0  0.33878679033292264  0.8098015496272926  0.8975251662320544  1.0000
  H   H73       1.0  0.30486687275910984  0.7501773241828886  0.8678868775198741  1.0000
  H   H74       1.0  0.25554467661295827  0.7499032797072355  0.8896907913871187  1.0000
  H   H75       1.0  0.3137649409344695  0.8240757459029179  0.9221898142364726  1.0000
  H   H76       1.0  0.3620485281648231  0.826396083147875  0.8997398890977288  1.0000
  C   C115      1.0  0.6060802861015739  0.8697586637994691  0.9060196554190093  1.0000
  C   C116      1.0  0.569771014127242  0.8603729351152432  0.9073780084543828  1.0000
  C   C117      1.0  0.5485074480046364  0.8567812166884279  0.8923590672508638  1.0000
  C   C118      1.0  0.5636815573819152  0.862120607211234  0.8759303758480046  1.0000
  C   C119      1.0  0.6002289916244442  0.8705235447109356  0.8745316618832617  1.0000
  C   C120      1.0  0.6214420532764242  0.8741126227658417  0.8895483301241759  1.0000
  H   H77       1.0  0.5582964925002991  0.8554102158550052  0.9200604416485493  1.0000
  H   H78       1.0  0.5206730157173778  0.8490992801517877  0.8934968710876503  1.0000
  H   H79       1.0  0.612150773135943  0.8747003197387595  0.861862980225203  1.0000
  H   H80       1.0  0.6495584817220962  0.8806047180294044  0.888333708232897  1.0000
  C   C121      1.0  0.817315374862387  0.9908034450307235  0.9271268851484682  1.0000
  C   C122      1.0  0.8351139919071922  0.024130811689782927  0.9257027414270453  1.0000
  C   C123      1.0  0.8707929590323034  0.02642492456606882  0.9318798370734265  1.0000
  C   C124      1.0  0.8883674909871879  0.9956571752261573  0.9398819113374908  1.0000
  C   C125      1.0  0.8706708134550313  0.9622476098383468  0.9411666370360257  1.0000
  C   C126      1.0  0.835364381668121  0.9596457102608755  0.9345805947484649  1.0000
  H   H81       1.0  0.8212657394249517  0.04830820927623791  0.9199433941132777  1.0000
  H   H82       1.0  0.8841964426570867  0.05236799048295082  0.930933629689676  1.0000
  H   H83       1.0  0.8844486603352428  0.9383253120587483  0.9471235333313732  1.0000
  H   H84       1.0  0.8219368533375806  0.9337416084498351  0.9355347843531535  1.0000
  C   C127      1.0  0.21957424775528936  0.9938100559424481  0.05131165485294996  1.0000
  C   C128      1.0  0.2176054676948432  0.9973552206914514  0.06943563099203563  1.0000
  C   C129      1.0  0.1842232495236397  0.006706716316621675  0.07747570759968911  1.0000
  C   C130      1.0  0.15274943720697215  0.01184082598432612  0.06740351531035486  1.0000
  C   C131      1.0  0.15467374787074348  0.007916247888298367  0.04932431839011061  1.0000
  C   C132      1.0  0.18798666363559965  0.9984613697993797  0.041318529137372995  1.0000
  H   H85       1.0  0.24196845052962865  0.9934539620853939  0.07723841542434391  1.0000
  H   H86       1.0  0.18299671836019854  0.010476875735573765  0.09142294808539672  1.0000
  H   H87       1.0  0.1302799910636907  0.011585184753698297  0.04152306250058002  1.0000
  H   H88       1.0  0.1890177782068782  0.9941222401911055  0.027454026564595058  1.0000
  C   C133      1.0  0.26006825327080596  0.1301759384595702  0.9879206651448619  1.0000
  C   C134      1.0  0.2852328366713639  0.1564330458345602  0.9924270508247975  1.0000
  C   C135      1.0  0.27770544377203427  0.18158478325471838  0.006098358054045239  1.0000
  C   C136      1.0  0.2445368171383879  0.18125697358863008  0.014929858530900342  1.0000
  C   C137      1.0  0.2187889767001157  0.15586880209587672  0.010021311178780135  1.0000
  C   C138      1.0  0.22677359378255832  0.12996084303513866  0.996701614431287  1.0000
  H   H89       1.0  0.310942645188344  0.15671301899099643  0.9856277559007349  1.0000
  H   H90       1.0  0.297658118949997  0.20118123698339477  0.009870985780086272  1.0000
  H   H91       1.0  0.19304415723502516  0.15558208923883798  0.01674520768579213  1.0000
  H   H92       1.0  0.20699261516319992  0.11014465927602446  0.9931288004498917  1.0000
  C   C139      1.0  0.3427234472220123  0.9254881720172385  0.9472273354762328  1.0000
  C   C140      1.0  0.35722682270728884  0.8983917119486196  0.9356944999673884  1.0000
  C   C141      1.0  0.37632921235836325  0.908915572482161  0.9208613906465314  1.0000
  C   C142      1.0  0.3817224725361292  0.9465197978814318  0.9177971071142891  1.0000
  C   C143      1.0  0.3674058473566833  0.9735950247480339  0.9293888144265754  1.0000
  C   C144      1.0  0.34750458856427596  0.9631320709271477  0.9439903937773498  1.0000
  H   H93       1.0  0.35343775084903806  0.8692463252781092  0.9381683159505402  1.0000
  H   H94       1.0  0.3872577326574119  0.887893364516414  0.911950314674422  1.0000
  H   H95       1.0  0.37151101276249343  0.0027266212875314277  0.9270291383470497  1.0000
  H   H96       1.0  0.3362785298263745  0.9841590011691751  0.9528547158356047  1.0000
  C   C145      1.0  0.9486288503150704  0.7385840474570561  0.0620860575985844  1.0000
  C   C146      1.0  0.9374151811920153  0.7324080506016505  0.07921536220845934  1.0000
  C   C147      1.0  0.9492157707884067  0.6997638603211374  0.08790342140869799  1.0000
  C   C148      1.0  0.9708253775366975  0.6725947138525529  0.07917715423162966  1.0000
  C   C149      1.0  0.9813878733176032  0.6784698653967403  0.06195421034245729  1.0000
  C   C150      1.0  0.9707743903422408  0.7117050918016383  0.05349749616919916  1.0000
  H   H97       1.0  0.9198996656305436  0.7529000148150989  0.08584196102563127  1.0000
  H   H98       1.0  0.9407886015323562  0.6951279921349708  0.10118561209861056  1.0000
  H   H99       1.0  0.9980708302590802  0.657490563664916  0.055223478970841934  1.0000
  H   H100      1.0  0.9791550752894334  0.7162217057372889  0.040220367530956036  1.0000
  C   C151      1.0  0.062323552230404866  0.6710313164487407  0.9998181101628792  1.0000
  C   C152      1.0  0.03858365664297092  0.6641969613885753  0.013543669393782265  1.0000
  C   C153      1.0  0.0366077011622572  0.6278682132458705  0.02005283613655262  1.0000
  C   C154      1.0  0.05880729430557885  0.5989389282187889  0.01296958809053983  1.0000
  C   C155      1.0  0.08116398116405166  0.6057362653605082  0.9988098280671851  1.0000
  C   C156      1.0  0.08265260013944165  0.6416286733803762  0.9921386420037446  1.0000
  H   H101      1.0  0.022530366057317286  0.686890555152919  0.019401274978441352  1.0000
  H   H102      1.0  0.019116916887194302  0.6224223944063763  0.030943823878690546  1.0000
  H   H103      1.0  0.09781936727465061  0.5832518251006593  0.9932013969996879  1.0000
  H   H104      1.0  0.10015019818305415  0.6466732213297561  0.9812465417620175  1.0000
  C   C157      1.0  0.0993604013493738  0.899428032001775  0.017525208111210056  1.0000
  C   C158      1.0  0.1094548643052124  0.9358983904624093  0.02053978630938369  1.0000
  C   C159      1.0  0.12630169045345546  0.9556012890993778  0.007309456685514526  1.0000
  C   C160      1.0  0.1327378117242184  0.9389125797806577  0.9910450326506456  1.0000
  C   C161      1.0  0.12350585779283374  0.9021888141602771  0.988181747630894  1.0000
  C   C162      1.0  0.10744041762357119  0.8822906195242818  0.0015231947634171128  1.0000
  H   H105      1.0  0.10343785209347223  0.9492652261554528  0.032932540121879406  1.0000
  H   H106      1.0  0.13322258385027597  0.9841206410163221  0.009498492400275893  1.0000
  H   H107      1.0  0.12888469011089707  0.8890888860618397  0.975671585512982  1.0000
  H   H108      1.0  0.10163851985708554  0.853601247419169  0.9994396966489704  1.0000
  C   C163      1.0  0.9137503084864137  0.8380384037158223  0.9632065979328993  1.0000
  C   C164      1.0  0.8973778681564615  0.8555932565249944  0.9487426064788255  1.0000
  C   C165      1.0  0.8617994407959394  0.8477874604652211  0.9438918953844582  1.0000
  C   C166      1.0  0.8428997996115025  0.8215615411698991  0.9531864857436926  1.0000
  C   C167      1.0  0.8600419966857555  0.8026823164388839  0.967115081271741  1.0000
  C   C168      1.0  0.8951996601541171  0.8112882934061983  0.9722908731525934  1.0000
  H   H109      1.0  0.9118448396869779  0.8760424213538706  0.9415660774941149  1.0000
  H   H110      1.0  0.8490120400192318  0.8623319440126094  0.9330887867093427  1.0000
  H   H111      1.0  0.8455835977923906  0.7822305561016871  0.9743049939103764  1.0000
  H   H112      1.0  0.9075918199474474  0.7976055568453634  0.9834656672319901  1.0000
  C   C169      1.0  0.7020516531298513  0.3258009522760583  0.6615570571409547  1.0000
  C   C170      1.0  0.668760451999149  0.34124810629082225  0.655504533786829  1.0000
  C   C171      1.0  0.6552624329814105  0.37599235397032826  0.6618555227847018  1.0000
  C   C172      1.0  0.6745976999433977  0.39463656747561315  0.674651155259597  1.0000
  C   C173      1.0  0.7077336505982289  0.3790321253277866  0.6807172175355546  1.0000
  C   C174      1.0  0.7217154140883382  0.3450667581602827  0.6739552724280948  1.0000
  H   H113      1.0  0.6534370417951696  0.3264540927969548  0.6459847021428301  1.0000
  H   H114      1.0  0.6293865547848922  0.3877843838366528  0.6572954548802785  1.0000
  H   H115      1.0  0.7226552866451385  0.3931664320300369  0.6906757255939582  1.0000
  H   H116      1.0  0.747491406423332  0.33323565212799494  0.6786373856829764  1.0000
  C   C175      1.0  0.46375959993067906  0.01317810274901876  0.790669005424248  1.0000
  C   C176      1.0  0.4443985515921247  0.9891533664140223  0.7802201746610345  1.0000
  C   C177      1.0  0.42395670883801007  0.9617047092368443  0.7877171214065705  1.0000
  C   C178      1.0  0.42242203182295796  0.9581307560397452  0.8057962585175982  1.0000
  C   C179      1.0  0.44043594798880176  0.9830505155767706  0.8164134512784261  1.0000
  C   C180      1.0  0.46111155425732575  0.010632446841675414  0.8088357377707663  1.0000
  H   H117      1.0  0.44573161166386727  0.9910717835574603  0.7662585987556364  1.0000
  H   H118      1.0  0.4106740832689926  0.9422214696965097  0.7793661020931285  1.0000
  H   H119      1.0  0.4386632644729189  0.9810573856444886  0.8304165134226595  1.0000
  H   H120      1.0  0.47577459058656185  0.029338082209293903  0.8170111705010942  1.0000
  C   C181      1.0  0.5292460459998571  0.08055216137364907  0.6857520668028726  1.0000
  C   C182      1.0  0.5348833365335769  0.103021255296706  0.7003059105018505  1.0000
  C   C183      1.0  0.5495432444708808  0.13799879313817082  0.6982119890581797  1.0000
  C   C184      1.0  0.559433131762519  0.15010874653438744  0.681634161415496  1.0000
  C   C185      1.0  0.5543468351450679  0.1272882126331639  0.6671400652641116  1.0000
  C   C186      1.0  0.5389153682356912  0.09271911572703351  0.6691727512258459  1.0000
  H   H121      1.0  0.5272325058083667  0.09383889856594423  0.7131265774511117  1.0000
  H   H122      1.0  0.5533205441943758  0.15559516971448833  0.7094556140208059  1.0000
  H   H123      1.0  0.5612696987269689  0.13669449634855813  0.6542985681363638  1.0000
  H   H124      1.0  0.5344054243844261  0.07548741103783208  0.6578764577078918  1.0000
  C   C187      1.0  0.7222467354873117  0.7462270337941477  0.8406409076931268  1.0000
  C   C188      1.0  0.737755138245952  0.7723751608617553  0.8298849363474006  1.0000
  C   C189      1.0  0.7477841960926802  0.8065300994488774  0.8367393867555138  1.0000
  C   C190      1.0  0.7432553964756958  0.8143755634245936  0.8544980347158869  1.0000
  C   C191      1.0  0.7289731098742099  0.7876659258562287  0.865391474249128  1.0000
  C   C192      1.0  0.7185772970105734  0.7535976655641075  0.8584902105373142  1.0000
  H   H125      1.0  0.7424993029444752  0.7661640734516709  0.8162877346784732  1.0000
  H   H126      1.0  0.7591465902853868  0.8268101450694065  0.8282130876702084  1.0000
  H   H127      1.0  0.7258886693695221  0.7931034173484436  0.8791209525249948  1.0000
  H   H128      1.0  0.7072165497872067  0.73321478537575  0.866960782927454  1.0000
  C   C193      1.0  0.5941446257942178  0.8204612277460034  0.7633615066641445  1.0000
  C   C194      1.0  0.6297161837171449  0.8317801439214177  0.7615372177796533  1.0000
  C   C195      1.0  0.6362309019526197  0.8656512316394789  0.7535021764414147  1.0000
  C   C196      1.0  0.6072645242933026  0.8880332551099033  0.7470453362663068  1.0000
  C   C197      1.0  0.5718965456656973  0.8755776066315268  0.7478615735693629  1.0000
  C   C198      1.0  0.5652747141884116  0.8419666074959355  0.7561870089575876  1.0000
  H   H129      1.0  0.6522774951375133  0.814956708499084  0.7666285656590315  1.0000
  H   H130      1.0  0.6635830612362533  0.8748796046522505  0.7526894172913334  1.0000
  H   H131      1.0  0.5495556731459023  0.8918829807813963  0.7421695449860433  1.0000
  H   H132      1.0  0.5378273105033499  0.8327191964234459  0.7570506319351995  1.0000
  C   C199      1.0  0.6684554490000696  0.628401584506078  0.7311189690210969  1.0000
  C   C200      1.0  0.6421484727489489  0.6101785623163286  0.7216610019902309  1.0000
  C   C201      1.0  0.6443835428133432  0.6078338360670936  0.7034886917269588  1.0000
  C   C202      1.0  0.673639631662724  0.62245552656816  0.6947408697645171  1.0000
  C   C203      1.0  0.6987162924980155  0.6428143330855431  0.7040836514265381  1.0000
  C   C204      1.0  0.6959923385135597  0.6460240121161609  0.722295897892895  1.0000
  H   H133      1.0  0.6205030949125019  0.5969878554546099  0.7284379404574229  1.0000
  H   H134      1.0  0.6238819627644919  0.5939326535756516  0.6963233685336319  1.0000
  H   H135      1.0  0.7212044974880025  0.6545517903543491  0.697331201408672  1.0000
  H   H136      1.0  0.7164412800138112  0.6600611618030685  0.7295894627803834  1.0000
  C   C205      1.0  0.8999408695944386  0.975684502453576  0.8564695759254709  1.0000
  C   C206      1.0  0.9021544935307586  0.9847160867564502  0.8741633447809339  1.0000
  C   C207      1.0  0.914386303894796  0.0193275629505818  0.8792849163824004  1.0000
  C   C208      1.0  0.9251306161783263  0.04464560530823225  0.8667531484945545  1.0000
  C   C209      1.0  0.9213598422324146  0.03628865598854758  0.849057834403516  1.0000
  C   C210      1.0  0.9086958640076538  0.0018187219358660744  0.843920703806965  1.0000
  H   H137      1.0  0.8950350426422293  0.9648145243988024  0.8839725903553509  1.0000
  H   H138      1.0  0.9157456241287625  0.0263080748664144  0.8929705579305773  1.0000
  H   H139      1.0  0.9292616313064965  0.05602918097814813  0.8393307363171589  1.0000
  H   H140      1.0  0.905754989863937  0.995590874324914  0.8302537319208936  1.0000
  C   C211      1.0  0.8647690432093851  0.7829102387751385  0.7910949941209594  1.0000
  C   C212      1.0  0.8378847204714855  0.75813594336981  0.7949067651789109  1.0000
  C   C213      1.0  0.8053125038397358  0.7595870742636601  0.7854246171018623  1.0000
  C   C214      1.0  0.7999747613549378  0.7850596991321689  0.7718209127794708  1.0000
  C   C215      1.0  0.8270984905771221  0.809569186887567  0.7678882471754767  1.0000
  C   C216      1.0  0.8593227512665703  0.8086789290570476  0.7776137414967165  1.0000
  H   H141      1.0  0.8417864368024107  0.7384675849689292  0.8054476258518167  1.0000
  H   H142      1.0  0.7843372496378943  0.7411335270014077  0.7887871516041346  1.0000
  H   H143      1.0  0.823155909967342  0.8296244152366572  0.7575190528946308  1.0000
  H   H144      1.0  0.8800061653623811  0.8279523553438247  0.7746309788146196  1.0000
  C   C217      1.0  0.10306505058600983  0.8715484899725419  0.7599117620091173  1.0000
  C   C218      1.0  0.06586535455564912  0.8806867734864171  0.7582895523764261  1.0000
  C   C219      1.0  0.045509131930727476  0.8921202227203927  0.7729795066235224  1.0000
  C   C220      1.0  0.06240063937245166  0.8945655914784213  0.7892481188433799  1.0000
  C   C221      1.0  0.09965433891697963  0.8859130218720416  0.7907971752279129  1.0000
  C   C222      1.0  0.11977402777264953  0.8737139254206273  0.7762326816381728  1.0000
  H   H145      1.0  0.05278620028265668  0.8790769992655522  0.745701084844284  1.0000
  H   H146      1.0  0.01687994334018983  0.8994753225224031  0.7716320509672778  1.0000
  H   H147      1.0  0.11287731057964026  0.8877369920831629  0.8033438135390505  1.0000
  H   H148      1.0  0.14811359229601215  0.865389128379838  0.777784907000383  1.0000
  C   C223      1.0  0.20946894292505816  0.8389259195546583  0.8207048643161995  1.0000
  C   C224      1.0  0.19604750480587174  0.8455812509241887  0.8375132352654483  1.0000
  C   C225      1.0  0.1787063477832919  0.8175941597604299  0.8464776972479349  1.0000
  C   C226      1.0  0.17542635805130363  0.7825567481741029  0.8388539283967851  1.0000
  C   C227      1.0  0.1886198419243116  0.7759989368188098  0.821987170765045  1.0000
  C   C228      1.0  0.2056843457436676  0.8040682289635931  0.8129619636919294  1.0000
  H   H149      1.0  0.19881296505103738  0.8724908942326568  0.8435794962723758  1.0000
  H   H150      1.0  0.16731836752244192  0.8235314794655867  0.8591146337931126  1.0000
  H   H151      1.0  0.18621884442884662  0.7489435228949997  0.816009950249591  1.0000
  H   H152      1.0  0.21676006718974256  0.7981578070902678  0.800251281590503  1.0000
  C   C229      1.0  0.31947968549342576  0.9495772706195401  0.7350132789334868  1.0000
  C   C230      1.0  0.3459647760263478  0.9755533640657236  0.7375985812868694  1.0000
  C   C231      1.0  0.3828479962673097  0.9637287206440945  0.7379285955808078  1.0000
  C   C232      1.0  0.3932571057760296  0.9261763928019592  0.7352443777672376  1.0000
  C   C233      1.0  0.3667292844509703  0.9006001846236538  0.7321141183263598  1.0000
  C   C234      1.0  0.3299475324177431  0.9122232169637378  0.7320010303891635  1.0000
  H   H153      1.0  0.3379821922457502  0.004386143290697531  0.7401942397148468  1.0000
  H   H154      1.0  0.4029325043708038  0.983507680425724  0.7407894434159413  1.0000
  H   H155      1.0  0.3746104565538017  0.8715878909290468  0.7300204770910402  1.0000
  H   H156      1.0  0.30974117346081853  0.8919454993017825  0.7298181401008207  1.0000
  C   C235      1.0  0.7245249518482201  0.02370638910296763  0.6714785696125575  1.0000
  C   C236      1.0  0.7118929571755648  0.06027677555778577  0.6749785030094385  1.0000
  C   C237      1.0  0.7036950421335914  0.08490496839150796  0.6612467227272194  1.0000
  C   C238      1.0  0.7086483629071958  0.07331710281025239  0.643959868257313  1.0000
  C   C239      1.0  0.7212893686713757  0.03668427321457779  0.6404603865460757  1.0000
  C   C240      1.0  0.7291199080637197  0.011885979362840748  0.65418770003974  1.0000
  H   H157      1.0  0.7082627608095523  0.06955101051760426  0.6883150306556882  1.0000
  H   H158      1.0  0.6938676138726453  0.1128962578150111  0.6641089940780155  1.0000
  H   H159      1.0  0.7251034167585532  0.02743695837733129  0.6271272245113764  1.0000
  H   H160      1.0  0.7389032646667949  0.9837214003284197  0.6513202702976577  1.0000
  C   C241      1.0  0.8714500000294755  0.882781714583813  0.7111310192095156  1.0000
  C   C242      1.0  0.8901621228052886  0.8663034095678778  0.7252192966190495  1.0000
  C   C243      1.0  0.8918932049324079  0.8852726482684427  0.7411908115539924  1.0000
  C   C244      1.0  0.875656764335929  0.9210748667612966  0.7429824357743313  1.0000
  C   C245      1.0  0.8571840264382957  0.9375823870695161  0.7288313839861784  1.0000
  C   C246      1.0  0.854729868800758  0.9183269997096042  0.712992564199957  1.0000
  H   H161      1.0  0.9030469791121636  0.8387775636921787  0.7238595572696712  1.0000
  H   H162      1.0  0.905794985963688  0.8721529279892414  0.7520572032201588  1.0000
  H   H163      1.0  0.844756403797686  0.9653556370838624  0.7301128540724461  1.0000
  H   H164      1.0  0.8404968315588354  0.9313510353934947  0.7021052550606159  1.0000
  C   C247      1.0  0.5125030682602314  0.6644087392515473  0.6767199153211776  1.0000
  C   C248      1.0  0.4990622375219029  0.6610444220399446  0.659759831416959  1.0000
  C   C249      1.0  0.5000747781378502  0.6260923458498758  0.6515357791644034  1.0000
  C   C250      1.0  0.5160508808526332  0.5949178340945707  0.6599779698295009  1.0000
  C   C251      1.0  0.5299609487986376  0.5985331407723181  0.6768054571723703  1.0000
  C   C252      1.0  0.5276722544975017  0.6330978651203217  0.6852688452508633  1.0000
  H   H165      1.0  0.4876751764241091  0.685216697209059  0.6530154379511878  1.0000
  H   H166      1.0  0.4893645275867638  0.6234626137834192  0.6384986767000354  1.0000
  H   H167      1.0  0.5419779027154658  0.5744980268355031  0.6834368884659533  1.0000
  H   H168      1.0  0.5379877925191758  0.6355507978610683  0.6984025441277951  1.0000
  C   C253      1.0  0.5899730524866313  0.8654711191712859  0.6801389611755957  1.0000
  C   C254      1.0  0.6089452013260722  0.8697557654399332  0.6957505003479298  1.0000
  C   C255      1.0  0.6441404081815958  0.853599767137661  0.6976311120869587  1.0000
  C   C256      1.0  0.6602538635578022  0.833176311585086  0.6838894391405538  1.0000
  C   C257      1.0  0.6416137320332285  0.8295943661137773  0.6681527124081162  1.0000
  C   C258      1.0  0.6063850763247822  0.8456164595538149  0.6663047642895278  1.0000
  H   H169      1.0  0.5961937492915091  0.8848996233779041  0.7065193432872446  1.0000
  H   H170      1.0  0.6586728146642991  0.8568163022737564  0.7097609591509759  1.0000
  H   H171      1.0  0.6543207065422074  0.8142989815630819  0.6574289597618664  1.0000
  H   H172      1.0  0.5919823988005863  0.8427910233813047  0.6541274336735715  1.0000
  C   C259      1.0  0.35831579902338456  0.8226591948676464  0.6898406667225675  1.0000
  C   C260      1.0  0.3801873399593228  0.8097453898039579  0.7036774910365428  1.0000
  C   C261      1.0  0.36419589066668867  0.7980132031761624  0.719195891932662  1.0000
  C   C262      1.0  0.3263486745639537  0.7993666702048099  0.7209464673680227  1.0000
  C   C263      1.0  0.3045310536722739  0.8127781756596956  0.7072118323775277  1.0000
  C   C264      1.0  0.3204823661954125  0.8245072395886667  0.6917243830334059  1.0000
  H   H173      1.0  0.4093421281456291  0.8091561376554619  0.7025724348086964  1.0000
  H   H174      1.0  0.38114879481620306  0.7886644638638969  0.7299910270090555  1.0000
  H   H175      1.0  0.27528829292856744  0.8132436238976869  0.708342028926735  1.0000
  H   H176      1.0  0.3034249686638551  0.8344025160910626  0.6810616268365174  1.0000
  C   C265      1.0  0.2719220957278778  0.2761041987892217  0.3224072478799173  1.0000
  C   C266      1.0  0.28193723029546663  0.2615609265166703  0.30605418035905857  1.0000
  C   C267      1.0  0.2594424386648186  0.23716449181217533  0.29737275013469344  1.0000
  C   C268      1.0  0.22722099008072422  0.22673561170524933  0.305184694525831  1.0000
  C   C269      1.0  0.21811659779236356  0.23991129831161528  0.3218891909667914  1.0000
  C   C270      1.0  0.24039102229250056  0.2646752738938747  0.3304837526181466  1.0000
  H   H177      1.0  0.3070898245733143  0.2691670824975446  0.3000649280485447  1.0000
  H   H178      1.0  0.2671628045943783  0.22623973310482334  0.2846985417268531  1.0000
  H   H179      1.0  0.19336358150203176  0.23166965633401046  0.3280403993275037  1.0000
  H   H180      1.0  0.23260545560310952  0.2756358527988954  0.34316408133185355  1.0000
  C   C271      1.0  0.10145585322472073  0.3741066284878982  0.3979767014070238  1.0000
  C   C272      1.0  0.09317242010789123  0.33663296189810116  0.3979109991773182  1.0000
  C   C273      1.0  0.12106026790004577  0.30878050916932165  0.3981323698961367  1.0000
  C   C274      1.0  0.15737845877550963  0.318268535529959  0.398627869700611  1.0000
  C   C275      1.0  0.16582349756349965  0.35574769499971637  0.398433323893592  1.0000
  C   C276      1.0  0.13782818910998845  0.38368181854797223  0.39795462581926155  1.0000
  H   H181      1.0  0.06536710149850689  0.3289026520100038  0.3979635944388284  1.0000
  H   H182      1.0  0.11449239516718031  0.27978606162545366  0.3981922827703123  1.0000
  H   H183      1.0  0.19381530008274883  0.3632505759819605  0.3992124033114688  1.0000
  H   H184      1.0  0.14436146707838024  0.4126755040616864  0.3981261701694324  1.0000
  C   C277      1.0  0.9202454797771191  0.40320462030192544  0.35503602933804806  1.0000
  C   C278      1.0  0.9246012668084869  0.3965924923538539  0.33718609670678873  1.0000
  C   C279      1.0  0.9367516984469183  0.42468452812030605  0.32633714526240104  1.0000
  C   C280      1.0  0.9444900273094992  0.4594235456294271  0.33328438262002585  1.0000
  C   C281      1.0  0.9392618057362917  0.4662199859768905  0.351066053248083  1.0000
  C   C282      1.0  0.9271047209118969  0.43819323244233105  0.36190542435162065  1.0000
  H   H185      1.0  0.9189554496349115  0.36966005209747965  0.33177303985662543  1.0000
  H   H186      1.0  0.9393537438433491  0.41957932776195467  0.3125773594531087  1.0000
  H   H187      1.0  0.9446808339078092  0.49321087754554255  0.35649225227870757  1.0000
  H   H188      1.0  0.9222689348045409  0.4440459083542067  0.37551890374092384  1.0000
  C   C283      1.0  0.538979709253765  0.17522735351774762  0.5574967858685874  1.0000
  C   C284      1.0  0.5510785904280739  0.20932901215616437  0.5519147285693893  1.0000
  C   C285      1.0  0.5715915779092164  0.23093193637214568  0.5630373522911065  1.0000
  C   C286      1.0  0.5799129508473625  0.21858996474544112  0.5798743900543785  1.0000
  C   C287      1.0  0.5676192009137739  0.18451521863432588  0.5855812784244128  1.0000
  C   C288      1.0  0.5471962948930121  0.16274339946360344  0.5743601158037203  1.0000
  H   H189      1.0  0.5443683137020662  0.2192402248435432  0.5390378034915084  1.0000
  H   H190      1.0  0.5809724106275891  0.2572898392894543  0.5585673425590605  1.0000
  H   H191      1.0  0.5734094834612171  0.17514599116337004  0.5986601564707317  1.0000
  H   H192      1.0  0.5375142781659613  0.13651028384144948  0.5787904496645365  1.0000
  C   C289      1.0  0.37871246370182604  0.2320306307754332  0.425549908818739  1.0000
  C   C290      1.0  0.4109722397525904  0.2144487810984793  0.43171987697711  1.0000
  C   C291      1.0  0.41810078374849724  0.21275355809320073  0.4496709799997726  1.0000
  C   C292      1.0  0.39289001517674477  0.22850566934016142  0.46151992064765734  1.0000
  C   C293      1.0  0.36030643730615747  0.24537855262824929  0.4553970814695963  1.0000
  C   C294      1.0  0.35327094265763226  0.2471825886026481  0.43744742358384064  1.0000
  H   H193      1.0  0.43056193151152744  0.2022712623353885  0.4225956192986807  1.0000
  H   H194      1.0  0.44294249349531545  0.19894701303035578  0.45429404089903125  1.0000
  H   H195      1.0  0.3405832891846312  0.25732936611991813  0.4645161200788924  1.0000
  H   H196      1.0  0.3279181290019641  0.25976581503222407  0.4328753842556989  1.0000
  C   C295      1.0  0.7519661395747098  0.4233841005874622  0.5895138874403196  1.0000
  C   C296      1.0  0.7416866826063706  0.42992893938959387  0.6068561259875594  1.0000
  C   C297      1.0  0.7125951366683043  0.4552481264543931  0.6107597912317814  1.0000
  C   C298      1.0  0.6940000603504769  0.47415885586747225  0.5973117244644466  1.0000
  C   C299      1.0  0.7044840037866971  0.46780070711782523  0.5799960711742026  1.0000
  C   C300      1.0  0.7335316065307768  0.44256380453159616  0.576104402385682  1.0000
  H   H197      1.0  0.7558121275747532  0.41492497821700647  0.6172347638720667  1.0000
  H   H198      1.0  0.7045089159219188  0.45988869763397944  0.624143136756424  1.0000
  H   H199      1.0  0.6903116182760094  0.4825465867992724  0.5695506225374597  1.0000
  H   H200      1.0  0.7417351672832802  0.4380917448103722  0.5627088691561699  1.0000
  C   C301      1.0  0.6759328418044811  0.27177040612982045  0.52434243224362  1.0000
  C   C302      1.0  0.6461498930600905  0.25056951716555065  0.528121831085396  1.0000
  C   C303      1.0  0.6133135128880489  0.2569890469149845  0.5191216299683843  1.0000
  C   C304      1.0  0.6102909180696382  0.2841280090764078  0.506173582431186  1.0000
  C   C305      1.0  0.6403752004549774  0.30466854934262155  0.5021387740237235  1.0000
  C   C306      1.0  0.67302268239164  0.2988995713398313  0.5113500517776675  1.0000
  H   H201      1.0  0.6481693270106414  0.22971942161705805  0.5382501784308853  1.0000
  H   H202      1.0  0.5901819763718891  0.24138893665747257  0.5224620413605495  1.0000
  H   H203      1.0  0.6387446954548206  0.3245016256092066  0.49170716154561656  1.0000
  H   H204      1.0  0.696078640248691  0.3150565909652314  0.5082334139720848  1.0000
  C   C307      1.0  0.891435738810155  0.35105312195137145  0.49678469263993486  1.0000
  C   C308      1.0  0.8827583836912928  0.389281935954943  0.4977840811703959  1.0000
  C   C309      1.0  0.8932324823173454  0.4128534985893693  0.48439760931616965  1.0000
  C   C310      1.0  0.9115504090953253  0.3981454733236034  0.46977851620770034  1.0000
  C   C311      1.0  0.9207646666257902  0.359963044311894  0.4688840954004717  1.0000
  C   C312      1.0  0.9109282481305148  0.3364609553985719  0.48244968100330904  1.0000
  H   H205      1.0  0.8683297085890342  0.4007933088051331  0.5089547375061163  1.0000
  H   H206      1.0  0.8866776946384842  0.44246184522869186  0.4852612020389933  1.0000
  H   H207      1.0  0.9351766049056608  0.3484298479337575  0.45770166098779286  1.0000
  H   H208      1.0  0.9177300180857901  0.30688636059589625  0.4816382411253741  1.0000
  C   C313      1.0  0.6603137868208941  0.9471373864051331  0.5972735297328714  1.0000
  C   C314      1.0  0.6911861083997537  0.9672821466863936  0.5943549346137698  1.0000
  C   C315      1.0  0.7249313781880522  0.9545920254849639  0.6010168736232974  1.0000
  C   C316      1.0  0.7278868419595258  0.921859147897029  0.6107815034741737  1.0000
  C   C317      1.0  0.696605547881616  0.9029061412477662  0.6146695444979384  1.0000
  C   C318      1.0  0.662735873151722  0.9156727006662136  0.6079817845168399  1.0000
  H   H209      1.0  0.6890893211935492  0.9926324741255071  0.5868318532724982  1.0000
  H   H210      1.0  0.7486783825396666  0.9702878531333955  0.5986341757070126  1.0000
  H   H211      1.0  0.6987340463006642  0.8777318568839202  0.6223476170955066  1.0000
  H   H212      1.0  0.6388027699585083  0.9003659943068737  0.6105506290829051  1.0000
  C   C319      1.0  0.564929624908279  0.016265583282600637  0.48886414712238563  1.0000
  C   C320      1.0  0.5766811282369492  0.04919607623159151  0.4961313421200817  1.0000
  C   C321      1.0  0.5704656747357955  0.08289891228930557  0.48734587351787295  1.0000
  C   C322      1.0  0.5547973056988353  0.08337377047106999  0.4707497808791484  1.0000
  C   C323      1.0  0.5441538071678685  0.05021186690198709  0.46318844018541716  1.0000
  C   C324      1.0  0.5485619133454409  0.01672823931680134  0.47240961755793226  1.0000
  H   H213      1.0  0.5896505524273602  0.0489847689999916  0.5087408870182831  1.0000
  H   H214      1.0  0.578761581603176  0.10840701721763762  0.4932408074542903  1.0000
  H   H215      1.0  0.531658153380358  0.05062374015957971  0.4504199149975148  1.0000
  H   H216      1.0  0.5393385368569845  0.9912272712571563  0.4667858873468786  1.0000
  C   C325      1.0  0.6419511710235938  0.779228809134542  0.5138701518164621  1.0000
  C   C326      1.0  0.6754032007675835  0.7717995345727138  0.5221049506452277  1.0000
  C   C327      1.0  0.6976993169550241  0.8010693850679055  0.5262741538569962  1.0000
  C   C328      1.0  0.6864101592310189  0.8378122866981048  0.5223489703320274  1.0000
  C   C329      1.0  0.6530104779949524  0.8452340835075188  0.5140885761371182  1.0000
  C   C330      1.0  0.6309177161008211  0.8159474628965284  0.509760494304068  1.0000
  H   H217      1.0  0.6845179686621293  0.7434683452410547  0.5248947438808593  1.0000
  H   H218      1.0  0.7236800795221081  0.7951847913101273  0.5325149294177176  1.0000
  H   H219      1.0  0.6444514051715461  0.8734645081912704  0.5107026975371981  1.0000
  H   H220      1.0  0.6051731521142106  0.8217888540143578  0.5032781110138331  1.0000
  C   C331      1.0  0.5804828723070026  0.6961358294309671  0.5924373238585003  1.0000
  C   C332      1.0  0.5638767520899286  0.7185754126300604  0.5795909638968854  1.0000
  C   C333      1.0  0.5375626228912441  0.7463408203409565  0.5842349521895903  1.0000
  C   C334      1.0  0.5281181911920365  0.7519288543279561  0.6017340155789045  1.0000
  C   C335      1.0  0.5445784542964756  0.7292935182412693  0.614547269176626  1.0000
  C   C336      1.0  0.5710158358239485  0.7016900455449101  0.6099262331890127  1.0000
  H   H221      1.0  0.571283946253182  0.7146896821755561  0.5660991046658223  1.0000
  H   H222      1.0  0.5245301307221988  0.7635801165569218  0.5742953798953939  1.0000
  H   H223      1.0  0.5367950300442481  0.7327675435865489  0.6280104011894125  1.0000
  H   H224      1.0  0.5837630250754937  0.6843573470472233  0.6199220841902646  1.0000
  C   C337      1.0  0.7315657018221249  0.5529251492946556  0.5268737349082532  1.0000
  C   C338      1.0  0.6998197792371813  0.5416864163252306  0.5189313847585469  1.0000
  C   C339      1.0  0.698230097703515  0.5057939472793229  0.5119512276959322  1.0000
  C   C340      1.0  0.7282522674752544  0.4805698087842614  0.5132556323860358  1.0000
  C   C341      1.0  0.7599177952989434  0.4915233976971251  0.5215242854426  1.0000
  C   C342      1.0  0.7616712878701984  0.5277992863031391  0.528231855933404  1.0000
  H   H225      1.0  0.6765817884566342  0.5609043053520321  0.5180801644042566  1.0000
  H   H226      1.0  0.6735552207490231  0.49763345822090876  0.5057529999695336  1.0000
  H   H227      1.0  0.783419518989164  0.4724908378185064  0.5223602913389681  1.0000
  H   H228      1.0  0.786353396858822  0.5363735699213323  0.5343721841870419  1.0000
  C   C343      1.0  0.7789320515834375  0.21296073299279658  0.37368789035458033  1.0000
  C   C344      1.0  0.7837674899169159  0.21308103989019972  0.35561608362923697  1.0000
  C   C345      1.0  0.7824052561039758  0.2469088333330235  0.3465289307862067  1.0000
  C   C346      1.0  0.775933721837525  0.28049441015712007  0.3555191357746137  1.0000
  C   C347      1.0  0.7707797280893279  0.28024169372134894  0.37354815116467666  1.0000
  C   C348      1.0  0.7723412951534447  0.24650116904006136  0.38259249790104016  1.0000
  H   H229      1.0  0.7892835433610601  0.18713295071367286  0.3487024378253114  1.0000
  H   H230      1.0  0.7874417384851474  0.24700172918866808  0.33267409463521075  1.0000
  H   H231      1.0  0.7656761079627846  0.3061793467861464  0.3805438774554279  1.0000
  H   H232      1.0  0.7689103225740049  0.24644181389317982  0.39651076646519373  1.0000
  C   C349      1.0  0.9015963859372345  0.1960158274330696  0.45353120448495904  1.0000
  C   C350      1.0  0.8945143067123622  0.23320477550205582  0.4487847425545053  1.0000
  C   C351      1.0  0.9219881038967676  0.2534283474461671  0.4412120623752035  1.0000
  C   C352      1.0  0.9563389744480449  0.23630982883408788  0.4380959246381496  1.0000
  C   C353      1.0  0.9634845070317095  0.1993255438060488  0.44310867525180225  1.0000
  C   C354      1.0  0.936272946906182  0.1793274265537763  0.4509805020233064  1.0000
  H   H233      1.0  0.8680960315060218  0.24660256795794294  0.45125276857437135  1.0000
  H   H234      1.0  0.9165652536896276  0.282207859075313  0.43793310880469255  1.0000
  H   H235      1.0  0.9900310007190196  0.18598739715502344  0.4407955011868342  1.0000
  H   H236      1.0  0.9418526572053516  0.15062215439830642  0.45469405280462366  1.0000
  C   C355      1.0  0.6966244980779795  0.11973567265899507  0.4789251723554758  1.0000
  C   C356      1.0  0.6674713155436799  0.10676424249442255  0.48839488678383647  1.0000
  C   C357      1.0  0.6734763175209663  0.08891020622705659  0.5044048442814854  1.0000
  C   C358      1.0  0.7086421850857098  0.08513409457333254  0.5112301662907434  1.0000
  C   C359      1.0  0.7376182938006692  0.1000025164631122  0.5022254675818445  1.0000
  C   C360      1.0  0.7316893992284423  0.11696539645852533  0.48595375137305624  1.0000
  H   H237      1.0  0.6403152953838823  0.11003745744561501  0.4831487757248464  1.0000
  H   H238      1.0  0.6509357236128528  0.07805872696205318  0.511448121628011  1.0000
  H   H239      1.0  0.7648437845518765  0.09711003399761409  0.5075126487993121  1.0000
  H   H240      1.0  0.7543634842364656  0.12685490147736633  0.47865700046309195  1.0000
  C   C361      1.0  0.47843899296675574  0.47317398452396203  0.36280752873426203  1.0000
  C   C362      1.0  0.47168118906091844  0.4700587246853398  0.3449677057430959  1.0000
  C   C363      1.0  0.44984010863612856  0.44207565257042536  0.33879315325873743  1.0000
  C   C364      1.0  0.4346071237836615  0.4174473188845961  0.3504466349769465  1.0000
  C   C365      1.0  0.4396175342416376  0.42204850793536774  0.36834661587302886  1.0000
  C   C366      1.0  0.4614788286059052  0.4499651341206101  0.37451084059564616  1.0000
  H   H241      1.0  0.4845683152862664  0.4882013092821655  0.33590164594594457  1.0000
  H   H242      1.0  0.44556692148455834  0.4391954136458028  0.3250222340454035  1.0000
  H   H243      1.0  0.42725295688436643  0.40358285337223676  0.3774778441279581  1.0000
  H   H244      1.0  0.46580211682414446  0.45302539808527015  0.3883639492041289  1.0000
  C   C367      1.0  0.4372775006327983  0.39363223365798095  0.4247773733112621  1.0000
  C   C368      1.0  0.4248342022245322  0.42946354598340053  0.4198381491483078  1.0000
  C   C369      1.0  0.3896150843000871  0.4354825301320665  0.4129885178284238  1.0000
  C   C370      1.0  0.36702889591296634  0.4055892057787269  0.4108439106677579  1.0000
  C   C371      1.0  0.3798191869581331  0.3697354310591224  0.41549037919585396  1.0000
  C   C372      1.0  0.41473295735039845  0.3638044046814083  0.4225002706605745  1.0000
  H   H245      1.0  0.4420478883971471  0.4526666162311067  0.42160506850693863  1.0000
  H   H246      1.0  0.37995508683690643  0.46323926478943783  0.40932406476538336  1.0000
  H   H247      1.0  0.3627323076211713  0.346443048259836  0.4138466635459671  1.0000
  H   H248      1.0  0.42431199988144797  0.33587346702883675  0.4258310631625723  1.0000
  C   C373      1.0  0.7125766701367221  0.32212472873514353  0.4290626093806386  1.0000
  C   C374      1.0  0.693086309242741  0.35600195382590816  0.43182243123265474  1.0000
  C   C375      1.0  0.6680609172038239  0.36947329881745816  0.41929323207389085  1.0000
  C   C376      1.0  0.662346613047705  0.3489493385368928  0.40409049618567605  1.0000
  C   C377      1.0  0.6828400568098479  0.31584405829887474  0.4010983092530992  1.0000
  C   C378      1.0  0.7077574559987138  0.30240793993508447  0.4136099420740629  1.0000
  H   H249      1.0  0.6969978370450204  0.3716688814799507  0.44366245578801405  1.0000
  H   H250      1.0  0.6535044819341007  0.3959059255776867  0.42131900861486493  1.0000
  H   H251      1.0  0.6793452497892641  0.3005250571984112  0.389162093975124  1.0000
  H   H252      1.0  0.7234452314632115  0.2769753236240601  0.41120266347263956  1.0000
  C   C379      1.0  0.5999530827501761  0.5245132786960154  0.46210887543015483  1.0000
  C   C380      1.0  0.562589289248957  0.5257119171436049  0.4655282545269824  1.0000
  C   C381      1.0  0.5492800397373304  0.5408733501125866  0.48132883717932856  1.0000
  C   C382      1.0  0.5733531272109421  0.5548488496710282  0.4935916530898966  1.0000
  C   C383      1.0  0.6105692576236582  0.5528402839354025  0.490218932626736  1.0000
  C   C384      1.0  0.6238789032913179  0.53784418144159  0.47452396599342384  1.0000
  H   H253      1.0  0.5439896098640289  0.5154083453852385  0.4559537198997555  1.0000
  H   H254      1.0  0.5203645056006471  0.5423235113231284  0.4839138778312858  1.0000
  H   H255      1.0  0.6291766796809845  0.5629016203186097  0.4997174295839235  1.0000
  H   H256      1.0  0.6528380422451993  0.536724249993251  0.47198478233382574  1.0000
  N   N1        1.0  0.5005503018321598  0.9431820318191578  0.9309956340148003  1.0000
  C   C385      1.0  0.49310273431057167  0.9376458586619019  0.9497017131780459  1.0000
  C   C386      1.0  0.48344756369660674  0.9792076445320514  0.9253596539110788  1.0000
  C   C387      1.0  0.48520182174073534  0.9127374668798456  0.9208139021982524  1.0000
  C   C388      1.0  0.5402632018997521  0.9431301784442966  0.9281112179964833  1.0000
  H   H257      1.0  0.5055642908369506  0.9106644234731692  0.9543916515523054  1.0000
  H   H258      1.0  0.46330372606998366  0.9374298419672101  0.9522598752169039  1.0000
  H   H259      1.0  0.5041583100246978  0.9601960717324641  0.9577925540431433  1.0000
  H   H260      1.0  0.4536927698625589  0.9807455683357482  0.9280574063365066  1.0000
  H   H261      1.0  0.49529541705008584  0.003042272846250027  0.9322175996296543  1.0000
  H   H262      1.0  0.4866958011153022  0.9834086720520373  0.9110828360768176  1.0000
  H   H263      1.0  0.4897929790558348  0.9162779816849305  0.9065896757764924  1.0000
  H   H264      1.0  0.4553229773467957  0.911899571772195  0.9227755587618819  1.0000
  H   H265      1.0  0.49749457651941664  0.8851045387216986  0.9246252497984724  1.0000
  H   H266      1.0  0.546922303817393  0.9452192350324486  0.914003338701642  1.0000
  H   H267      1.0  0.5543634755039175  0.9171492409949461  0.9330349487233454  1.0000
  H   H268      1.0  0.5525882200655889  0.9667392985876548  0.9349427597663759  1.0000
  N   N2        1.0  0.8859185645595499  0.2572498972040115  0.3863522351833739  1.0000
  C   C389      1.0  0.8800682024967904  0.2193189430803793  0.3927789999561911  1.0000
  C   C390      1.0  0.9246290370623679  0.2652763570397436  0.3882938267211491  1.0000
  C   C391      1.0  0.8634187645014898  0.28462465643858975  0.39655944765103673  1.0000
  C   C392      1.0  0.8756468428729949  0.25999755152332654  0.36777394533968283  1.0000
  H   H269      1.0  0.8510650556631913  0.21233075977286506  0.39151718277424746  1.0000
  H   H270      1.0  0.887719466667249  0.21636903612096087  0.40677999723372155  1.0000
  H   H271      1.0  0.8965086006669835  0.1979140800683789  0.38533250444891254  1.0000
  H   H272      1.0  0.9331347643356259  0.2643932311205546  0.40219005342002184  1.0000
  H   H273      1.0  0.9425966243834044  0.2447326131901408  0.38111165561488014  1.0000
  H   H274      1.0  0.9299585605467791  0.2933773074412708  0.38318665588393297  1.0000
  H   H275      1.0  0.8671053811611044  0.3135563316378677  0.3919730641210768  1.0000
  H   H276      1.0  0.8704325889698661  0.28333484757803756  0.41065402827932374  1.0000
  H   H277      1.0  0.8340524806205943  0.27947053358832524  0.3953705838191612  1.0000
  H   H278      1.0  0.8925650312775991  0.24037726817737048  0.3595712091345694  1.0000
  H   H279      1.0  0.878756823557014  0.28866816152040986  0.36267770109789266  1.0000
  H   H280      1.0  0.8468556212906803  0.2533781304079928  0.3657958122738152  1.0000
  N   N3        1.0  0.5734904242846246  0.6613107292771274  0.46675258038733786  1.0000
  C   C393      1.0  0.5972316180991581  0.6288122804954593  0.4615663835575112  1.0000
  C   C394      1.0  0.5473116760080061  0.6703547202691411  0.45261306184102146  1.0000
  C   C395      1.0  0.5959599171021419  0.6935286794184715  0.47005814535157353  1.0000
  C   C396      1.0  0.5534153393694909  0.6525053766415434  0.48276512256543863  1.0000
  H   H281      1.0  0.6172978051066171  0.621119741128635  0.47194963471952756  1.0000
  H   H282      1.0  0.6128462571133287  0.634335614386807  0.44952760153670773  1.0000
  H   H283      1.0  0.5811963154697836  0.6039496138577513  0.45898742082541855  1.0000
  H   H284      1.0  0.5299267525614159  0.6465407149172091  0.44985591255307134  1.0000
  H   H285      1.0  0.5290158540728357  0.694832549816944  0.4560800264699382  1.0000
  H   H286      1.0  0.5615116018048111  0.6769560961755492  0.44029120260875915  1.0000
  H   H287      1.0  0.6110541795535928  0.701477789595743  0.4582096335184058  1.0000
  H   H288      1.0  0.6164557358086884  0.6873698943847014  0.48045303429957675  1.0000
  H   H289      1.0  0.5791482429219372  0.7183678519711795  0.47450732485702884  1.0000
  H   H290      1.0  0.5352663595057876  0.6763980521249231  0.48711957904369896  1.0000
  H   H291      1.0  0.572237228247128  0.645624545855616  0.4937259205454967  1.0000
  H   H292      1.0  0.5364593041068941  0.628021290531887  0.4808696637961257  1.0000
  N   N4        1.0  0.8081748621563628  0.7698286547494262  0.7101769042062664  1.0000
  C   C397      1.0  0.7939851669963187  0.8068439220371333  0.7160393066769914  1.0000
  C   C398      1.0  0.8086367263608921  0.7687325083900256  0.6909366667986003  1.0000
  C   C399      1.0  0.7844807073454921  0.741069364065168  0.7167981052440618  1.0000
  C   C400      1.0  0.8455035012772047  0.7630617590268823  0.7169389681656877  1.0000
  H   H293      1.0  0.7654665685855766  0.8126485767834565  0.7116271049602009  1.0000
  H   H294      1.0  0.8108566285319644  0.8291578265171962  0.7110228923651883  1.0000
  H   H295      1.0  0.794400611221022  0.8091516139766529  0.7304216136865941  1.0000
  H   H296      1.0  0.818803097223903  0.7410939173397256  0.6859535922943072  1.0000
  H   H297      1.0  0.780893770841684  0.7746230872313247  0.6854711181308726  1.0000
  H   H298      1.0  0.8265950662530802  0.7899373761187358  0.6855735949113393  1.0000
  H   H299      1.0  0.7558618240945355  0.7463142745377818  0.7123568845542505  1.0000
  H   H300      1.0  0.7841097308312224  0.7407258172380284  0.7312968601830233  1.0000
  H   H301      1.0  0.7938119483801984  0.7127871251415795  0.7122882124811166  1.0000
  H   H302      1.0  0.8572560799731064  0.73535739833697  0.7128157350842318  1.0000
  H   H303      1.0  0.8460260155991921  0.7642025798670075  0.7314557822826978  1.0000
  H   H304      1.0  0.8638648407143934  0.784536010474496  0.7121365367160143  1.0000
  N   N5        1.0  0.2426400412298198  0.34843996312457853  0.275609985529392  1.0000
  C   C401      1.0  0.22640554999408874  0.3518370935714523  0.25802877655987944  1.0000
  C   C402      1.0  0.21913987090579912  0.32687880499938077  0.28695817040062177  1.0000
  C   C403      1.0  0.2460827421605902  0.38593248244273565  0.28317190165036044  1.0000
  C   C404      1.0  0.2789949396497891  0.32929384495027225  0.2743980922051555  1.0000
  H   H305      1.0  0.2436924551286804  0.36779071003827457  0.24913253433173144  1.0000
  H   H306      1.0  0.19890552138966117  0.36611212398763965  0.2584756610605081  1.0000
  H   H307      1.0  0.2232278752613018  0.32408866790380036  0.2519441324415728  1.0000
  H   H308      1.0  0.23095485538216956  0.3234518680731113  0.3002324334704419  1.0000
  H   H309      1.0  0.19183144910794597  0.3409799186024326  0.2885439868912642  1.0000
  H   H310      1.0  0.2153250176862646  0.29851196339832214  0.28161428346119116  1.0000
  H   H311      1.0  0.26266635039818687  0.40341687388265823  0.2746799919790792  1.0000
  H   H312      1.0  0.25961694595068097  0.3843710893033499  0.29615157287436955  1.0000
  H   H313      1.0  0.21903186645377626  0.40067374409006606  0.28485933851930095  1.0000
  H   H314      1.0  0.2971765453038978  0.34419237368589106  0.2655982165268388  1.0000
  H   H315      1.0  0.27748998743296094  0.3003127709394702  0.2693985081914862  1.0000
  H   H316      1.0  0.29254974707890546  0.32777381746923795  0.2873452161233427  1.0000
  N   N6        1.0  0.7977986352334926  0.4002559315478865  0.45557055002054253  1.0000
  C   C405      1.0  0.8154017560265533  0.43514197322710396  0.4599281996034891  1.0000
  C   C406      1.0  0.7859496500144223  0.4012049413795349  0.43717551768622126  1.0000
  C   C407      1.0  0.7660069598908023  0.3965200945609427  0.46702739467273313  1.0000
  C   C408      1.0  0.823823209222526  0.3681573370227925  0.45823653432555067  1.0000
  H   H317      1.0  0.7968652175274842  0.4599852147557996  0.4575691571917283  1.0000
  H   H318      1.0  0.8404929013830218  0.4383242490182415  0.4520845821921012  1.0000
  H   H319      1.0  0.8233584678207612  0.435870496990231  0.4739073461005575  1.0000
  H   H320      1.0  0.7730452992110213  0.3750087429181749  0.4334164536408095  1.0000
  H   H321      1.0  0.7656963826502646  0.4246169916933262  0.4347539062752503  1.0000
  H   H322      1.0  0.8093758517550121  0.4045837899751041  0.4282578156860179  1.0000
  H   H323      1.0  0.7520824756718844  0.3704264003784584  0.4643152774247006  1.0000
  H   H324      1.0  0.745773172279807  0.420309799883485  0.465498215574866  1.0000
  H   H325      1.0  0.7742881622109271  0.3957918212923936  0.48096441594884787  1.0000
  H   H326      1.0  0.8115439882849862  0.34144086792988776  0.4547789177514001  1.0000
  H   H327      1.0  0.8326036937008695  0.3660636117400671  0.47207497479928245  1.0000
  H   H328      1.0  0.848726558562872  0.37055397101781845  0.45017914608353204  1.0000
  N   N7        1.0  0.39226795689905775  0.239021484282969  0.3413679623366436  1.0000
  C   C409      1.0  0.3600962498243467  0.22474293619995858  0.33252331031337284  1.0000
  C   C410      1.0  0.39454864875584084  0.2791314767360521  0.33766999639968515  1.0000
  C   C411      1.0  0.42549563876365626  0.2187088861575029  0.33496941928727025  1.0000
  C   C412      1.0  0.388879963171823  0.23351000692258955  0.3603362513150898  1.0000
  H   H329      1.0  0.3581771080038056  0.19431428515391772  0.3345068804478879  1.0000
  H   H330      1.0  0.36081345792786773  0.22988796346597426  0.3182413299813201  1.0000
  H   H331      1.0  0.3345206828823903  0.23855917872467458  0.3375621677478746  1.0000
  H   H332      1.0  0.4185352907370965  0.2910092672225494  0.34404209083714754  1.0000
  H   H333      1.0  0.3964569035236277  0.2842797423695711  0.3234422093338928  1.0000
  H   H334      1.0  0.37017432718007953  0.2954594139176931  0.3424744411504069  1.0000
  H   H335      1.0  0.4501979948967725  0.2288891385811669  0.3413973629500254  1.0000
  H   H336      1.0  0.4287801995079238  0.2223335154224019  0.32067035127894905  1.0000
  H   H337      1.0  0.424641509214533  0.1883331363385757  0.3374759811409768  1.0000
  H   H338      1.0  0.41171715442030105  0.24538632188895812  0.36765992666078107  1.0000
  H   H339      1.0  0.38816320578115765  0.20354558004263293  0.3637831371713829  1.0000
  H   H340      1.0  0.36335605473034943  0.24727371256219546  0.365432174494033  1.0000
  N   N8        1.0  0.53982979154901  0.5771836396581205  0.5973906493006458  1.0000
  C   C413      1.0  0.5515244387114262  0.6061454057863966  0.6095555316866592  1.0000
  C   C414      1.0  0.5591621534277278  0.541336022350212  0.6015550257735235  1.0000
  C   C415      1.0  0.5485365111401002  0.5879616983683457  0.5793610949174414  1.0000
  C   C416      1.0  0.5002503611401351  0.5734161636606095  0.5991697399327676  1.0000
  H   H341      1.0  0.5376013973695308  0.6336263116955344  0.6067914529247876  1.0000
  H   H342      1.0  0.581290206349868  0.6094954096446058  0.6087378708062304  1.0000
  H   H343      1.0  0.5456208867436437  0.599070823752313  0.6232699446819991  1.0000
  H   H344      1.0  0.5532235963044556  0.5323147545581861  0.6150739026980748  1.0000
  H   H345      1.0  0.5514096061016042  0.5188051616440515  0.5925372716819401  1.0000
  H   H346      1.0  0.5890919382011309  0.5434823773647451  0.6005352663317755  1.0000
  H   H347      1.0  0.5783680540754929  0.5901238948347254  0.5776375235798595  1.0000
  H   H348      1.0  0.5355467022536406  0.6156194469061241  0.5759784959546286  1.0000
  H   H349      1.0  0.5394348669752529  0.5672521095268629  0.5696955345056463  1.0000
  H   H350      1.0  0.4930606247307472  0.5654067421663226  0.6127145447300989  1.0000
  H   H351      1.0  0.49042668708371356  0.5516730816660949  0.5902320344946116  1.0000
  H   H352      1.0  0.4849070258204865  0.6000764392855451  0.5961906831840494  1.0000
  N   N9        1.0  0.19351375255709746  0.3821805675997553  0.07318509008234891  1.0000
  C   C417      1.0  0.17552784207339428  0.4042759138258645  0.08728829966429191  1.0000
  C   C418      1.0  0.2281767658733762  0.36493729930672175  0.07967425684146506  1.0000
  C   C419      1.0  0.2008629510649918  0.4067450029029448  0.0583530730278213  1.0000
  C   C420      1.0  0.1695636784369408  0.35276415550567286  0.06738232504262312  1.0000
  H   H353      1.0  0.14940710804850127  0.4178774990105835  0.08279857315364283  1.0000
  H   H354      1.0  0.19304285979232355  0.42658718909349186  0.09199046455221627  1.0000
  H   H355      1.0  0.16969494778110802  0.386591759806845  0.09873054837877202  1.0000
  H   H356      1.0  0.24208448030567353  0.34730794726894476  0.06949935527272459  1.0000
  H   H357      1.0  0.24727850057464634  0.386447572152776  0.08367469206225128  1.0000
  H   H358      1.0  0.22383954345363713  0.3471242707615029  0.09124228325792107  1.0000
  H   H359      1.0  0.21534489579000976  0.3911604952877128  0.04766760826141229  1.0000
  H   H360      1.0  0.21812849553914895  0.42980649852107095  0.06225728836815368  1.0000
  H   H361      1.0  0.17530592453341182  0.41958384080988675  0.05280800887838039  1.0000
  H   H362      1.0  0.16319441998772624  0.33374681320712407  0.078251280888703  1.0000
  H   H363      1.0  0.18249440423032537  0.3354923263207919  0.05680102506417945  1.0000
  H   H364      1.0  0.14330357312073588  0.36473855964662294  0.06214908234735847  1.0000
  N   N10       1.0  0.6644673419636755  0.2490281208451715  0.34366638286217643  1.0000
  C   C421      1.0  0.6723626637716908  0.23697528572973217  0.36172233708226514  1.0000
  C   C422      1.0  0.6752270658554925  0.28776215109068953  0.3413973124375003  1.0000
  C   C423      1.0  0.625166078526454  0.24711519665189693  0.34009968916434996  1.0000
  C   C424      1.0  0.6851319326903126  0.22425297489436882  0.33141912413809316  1.0000
  H   H365      1.0  0.6660623272652886  0.20737062619543775  0.36374250124238927  1.0000
  H   H366      1.0  0.6561757052804368  0.2541146412926996  0.37129894549949216  1.0000
  H   H367      1.0  0.7016277212524044  0.23953352046943657  0.3649709168562904  1.0000
  H   H368      1.0  0.7048634971405119  0.2900689658940555  0.34348372357400114  1.0000
  H   H369      1.0  0.6691622404979134  0.2980216944630821  0.32799490150954097  1.0000
  H   H370      1.0  0.6610430340740411  0.30710017956607594  0.35081506468368695  1.0000
  H   H371      1.0  0.6087236586333938  0.2655741493870468  0.34906042497953643  1.0000
  H   H372      1.0  0.6160831374782451  0.2182765017675842  0.34164695564965497  1.0000
  H   H373      1.0  0.6185547134031434  0.2559279998452691  0.3264932418520705  1.0000
  H   H374      1.0  0.6797011746851452  0.23235934470124134  0.3176409669255368  1.0000
  H   H375      1.0  0.6778503376688234  0.19478407043064333  0.33281708241077507  1.0000
  H   H376      1.0  0.7149188010574474  0.2251933767878664  0.33362826484384567  1.0000
  N   N11       1.0  0.07157655272775497  0.7837346242734967  0.8107832376563763  1.0000
  C   C425      1.0  0.09619915189009394  0.7505961776848626  0.807847605294921  1.0000
  C   C426      1.0  0.05834504122127737  0.7983752698880043  0.7938392040872929  1.0000
  C   C427      1.0  0.09148691130433478  0.8125409241160418  0.8200282064622293  1.0000
  C   C428      1.0  0.04028188425759959  0.773438444200865  0.8214662648229573  1.0000
  H   H377      1.0  0.10655018134475876  0.7387399681172837  0.820390845524019  1.0000
  H   H378      1.0  0.12034093826157818  0.7576166395372294  0.8000137065466778  1.0000
  H   H379      1.0  0.08224448456359346  0.7282657176101298  0.8008326495038869  1.0000
  H   H380      1.0  0.03914974340346444  0.8230048591587793  0.7956011276514227  1.0000
  H   H381      1.0  0.08116384163110249  0.8071884379731602  0.7855562323616647  1.0000
  H   H382      1.0  0.0436611496256074  0.777194992742089  0.7863871263438297  1.0000
  H   H383      1.0  0.07420135342699807  0.8384741268201779  0.8219463576658557  1.0000
  H   H384      1.0  0.11613110760416002  0.8200258559331399  0.8126891551909693  1.0000
  H   H385      1.0  0.10069958752146735  0.8027902304455953  0.8331240346774158  1.0000
  H   H386      1.0  0.021390480726750646  0.7980222051849541  0.8240055671003896  1.0000
  H   H387      1.0  0.0493916861881989  0.7620213690411886  0.83430979468078  1.0000
  H   H388      1.0  0.024389359857965868  0.7519674522136441  0.8148399703231297  1.0000
  N   N12       1.0  0.5288216925733515  0.894108289051893  0.8035240516386611  1.0000
  C   C429      1.0  0.5396950288496495  0.8554657898323164  0.8084318143144255  1.0000
  C   C430      1.0  0.4985228719463198  0.8938314500007432  0.7909038997793398  1.0000
  C   C431      1.0  0.5600753455066058  0.9119638008992652  0.7955997561345987  1.0000
  C   C432      1.0  0.5168750903491043  0.9152977902504689  0.8191966597623234  1.0000
  H   H389      1.0  0.5625546438245365  0.8546824507435876  0.8179294719427005  1.0000
  H   H390      1.0  0.5485995213551179  0.8386682396930384  0.7968334498554287  1.0000
  H   H391      1.0  0.5167725040681628  0.8414431940448928  0.8146361947474138  1.0000
  H   H392      1.0  0.5065203284555875  0.8786409037980358  0.7787295500171609  1.0000
  H   H393      1.0  0.4743937942434135  0.8806393063569806  0.7964393990354891  1.0000
  H   H394      1.0  0.48946875234891585  0.9225634798267537  0.7871396139877301  1.0000
  H   H395      1.0  0.5528330263022532  0.9413241194968551  0.7918986090829611  1.0000
  H   H396      1.0  0.5695864738488581  0.897066055537658  0.7835926081596823  1.0000
  H   H397      1.0  0.5834977457892441  0.9123437887616783  0.8047385486250319  1.0000
  H   H398      1.0  0.5094288481143824  0.9448487339260179  0.8159954089265674  1.0000
  H   H399      1.0  0.538591644080782  0.915213708791237  0.8292915648869034  1.0000
  H   H400      1.0  0.4926238506793194  0.9032938049879771  0.8251891342652328  1.0000
  N   N13       1.0  0.8155172501187555  0.9135984034349667  0.9878886375552568  1.0000
  C   C433      1.0  0.8538051316784246  0.9201652804981678  0.9836591543619377  1.0000
  C   C434      1.0  0.801410833111914  0.9425069608145279  0.0001965007026549781  1.0000
  C   C435      1.0  0.813197589919315  0.8764616637328391  0.9958767862075224  1.0000
  C   C436      1.0  0.7935636014809774  0.9152511160999824  0.971771255837907  1.0000
  H   H401      1.0  0.8650666429270306  0.8990912816091264  0.9742477763974359  1.0000
  H   H402      1.0  0.8714127970847597  0.9184984815098628  0.9954368862293763  1.0000
  H   H403      1.0  0.8565843901634949  0.9480262505652794  0.9776599275714021  1.0000
  H   H404      1.0  0.8028082115072152  0.9708539160836107  0.994509958182347  1.0000
  H   H405      1.0  0.7724748945826061  0.9384824945289787  0.003573279890801917  1.0000
  H   H406      1.0  0.8173101968729164  0.9419615354150808  0.012538052474610373  1.0000
  H   H407      1.0  0.8227136203186183  0.8540502055765383  0.9867145571559962  1.0000
  H   H408      1.0  0.7847192945783078  0.8707156623245066  0.9994127022542078  1.0000
  H   H409      1.0  0.830175707835258  0.8736268219174516  0.007841236052714473  1.0000
  H   H410      1.0  0.7646420392513725  0.9096772269861624  0.9744241757797648  1.0000
  H   H411      1.0  0.8037411687487996  0.8940650880711908  0.9620848074163711  1.0000
  H   H412      1.0  0.7941080936302541  0.9430312047157483  0.9654465808208222  1.0000
  N   N14       1.0  0.5638932840332866  0.39517377032929263  0.3365752386443701  1.0000
  C   C437      1.0  0.526330483333222  0.3842247358367431  0.33330329425010624  1.0000
  C   C438      1.0  0.5630801621151783  0.4329981748711774  0.3441793698564826  1.0000
  C   C439      1.0  0.5841750719257767  0.3947028197416469  0.31997199457240233  1.0000
  C   C440      1.0  0.5819871341455765  0.3687200979076818  0.348870337636853  1.0000
  H   H413      1.0  0.5258706533335284  0.35568454578502146  0.3276955326840481  1.0000
  H   H414      1.0  0.5120927413662509  0.40336649330363916  0.3238751935860504  1.0000
  H   H415      1.0  0.5099728162574308  0.38481722234499766  0.34552544296100285  1.0000
  H   H416      1.0  0.5492898548264612  0.45383682136249787  0.33540969928117986  1.0000
  H   H417      1.0  0.54812486390845  0.4341422694057789  0.35676888949255925  1.0000
  H   H418      1.0  0.5909120099375923  0.44227545040674276  0.34686636575682167  1.0000
  H   H419      1.0  0.6125390474037598  0.4032836612883003  0.3218255597226123  1.0000
  H   H420      1.0  0.5708369908711011  0.4138503926617621  0.3102473118888651  1.0000
  H   H421      1.0  0.5856551052934144  0.36638897382341445  0.31405752902576795  1.0000
  H   H422      1.0  0.61029124026603  0.37643065741718357  0.35177255981259864  1.0000
  H   H423      1.0  0.5832609115010751  0.33988873402979447  0.3435855715425836  1.0000
  H   H424      1.0  0.5673329824058952  0.36840506184924227  0.36156293548196666  1.0000
  N   N15       1.0  0.13925039537586836  0.7243097464975443  0.16660031477503723  1.0000
  C   C441      1.0  0.14026029136667195  0.6867831751830038  0.17443700098655185  1.0000
  C   C442      1.0  0.1714033416550429  0.7440634257632022  0.17236623006496962  1.0000
  C   C443      1.0  0.10580441115989703  0.7456170300669984  0.17213418813781625  1.0000
  C   C444      1.0  0.13966499681577904  0.7207960151291489  0.1474151712996504  1.0000
  H   H425      1.0  0.11667586930187746  0.6709563710771252  0.17018173662423414  1.0000
  H   H426      1.0  0.13973466152311498  0.6881246651313995  0.18891326341280426  1.0000
  H   H427      1.0  0.16502310057400127  0.6698619515782958  0.1704026541857553  1.0000
  H   H428      1.0  0.1971038576126114  0.7288307243357479  0.16831506167929894  1.0000
  H   H429      1.0  0.17146303748107194  0.7725317959300174  0.16669242963215106  1.0000
  H   H430      1.0  0.1719962104393451  0.7471389188171209  0.18679822415777578  1.0000
  H   H431      1.0  0.10393964313976878  0.7479396518885708  0.18656452918212077  1.0000
  H   H432      1.0  0.08087808157346421  0.7322631960341259  0.16754030076435975  1.0000
  H   H433      1.0  0.10463648400879721  0.7743977152438297  0.16678690588056733  1.0000
  H   H434      1.0  0.1403922619448661  0.7484288159671534  0.14103401862110332  1.0000
  H   H435      1.0  0.1151086791113165  0.7071424177858144  0.1425895255067474  1.0000
  H   H436      1.0  0.1636643885181357  0.7034111428027064  0.14280036068794622  1.0000
  N   N16       1.0  0.1325779726394078  0.48027772166068494  0.23557887830202826  1.0000
  C   C445      1.0  0.10261331480634671  0.4711574206620074  0.22374022276253344  1.0000
  C   C446      1.0  0.14263725494678237  0.5189297190678408  0.2323405143152948  1.0000
  C   C447      1.0  0.16423767366308936  0.45428463530636914  0.23231270438374405  1.0000
  C   C448      1.0  0.1207786150218653  0.4768401471190527  0.25388000863370996  1.0000
  H   H437      1.0  0.09446213365993385  0.4421143387104346  0.22554488083546448  1.0000
  H   H438      1.0  0.11074335355369919  0.4740638091743477  0.20990652170003185  1.0000
  H   H439      1.0  0.07809471205283258  0.4899579726009585  0.22592259811614793  1.0000
  H   H440      1.0  0.16507825773364423  0.5270236890887383  0.24103344241173433  1.0000
  H   H441      1.0  0.15170138438609387  0.5226367742983491  0.218658060938914  1.0000
  H   H442      1.0  0.11909136050648078  0.5390758273490731  0.23457513064709612  1.0000
  H   H443      1.0  0.173791371217997  0.4560711316245839  0.21859724213439632  1.0000
  H   H444      1.0  0.15733353350271478  0.4248941163469399  0.2345792589057855  1.0000
  H   H445      1.0  0.18752167201403064  0.46049242408510016  0.24088587913664095  1.0000
  H   H446      1.0  0.09671678019382697  0.495750075031099  0.2567442941601762  1.0000
  H   H447      1.0  0.14256582529734899  0.4840242714990524  0.2631416487452779  1.0000
  H   H448      1.0  0.11305635140952941  0.4481308242331365  0.2569128881251716  1.0000
  N   N17       1.0  0.8224002116486815  0.43860069249996536  0.32087951674747905  1.0000
  C   C449      1.0  0.7889467883974896  0.4185879122052139  0.32393017206227426  1.0000
  C   C450      1.0  0.8477510011120617  0.4151966931212794  0.3100903281776076  1.0000
  C   C451      1.0  0.8396840567340882  0.4466084727531464  0.3377638200915245  1.0000
  C   C452      1.0  0.8132212701716037  0.4738938259451311  0.3117237024211909  1.0000
  H   H449      1.0  0.7692754265439311  0.4350425356515528  0.33222349001716933  1.0000
  H   H450      1.0  0.7951353569175402  0.3915412296302951  0.33054377947838964  1.0000
  H   H451      1.0  0.7750151749143166  0.41247294963232994  0.31145215464310894  1.0000
  H   H452      1.0  0.8724954580667447  0.43009876911763123  0.3066847207004859  1.0000
  H   H453      1.0  0.8564313281122953  0.38894243454628624  0.3168735921765157  1.0000
  H   H454      1.0  0.8349329527176554  0.4071781506443488  0.29763026701356476  1.0000
  H   H455      1.0  0.8651368902070792  0.46153833357533747  0.33592306890225854  1.0000
  H   H456      1.0  0.8467867247472413  0.42049020568310924  0.34503841760311316  1.0000
  H   H457      1.0  0.821379004989794  0.4642591180147015  0.3462430505818376  1.0000
  H   H458      1.0  0.7945024448949765  0.4924734403677875  0.3195679346551669  1.0000
  H   H459      1.0  0.7995150095006841  0.4687628391621649  0.29907825420446277  1.0000
  H   H460      1.0  0.8380335198785239  0.48927208801068867  0.3088592766595541  1.0000
  N   N18       1.0  0.15619647863408795  0.8901394338842936  0.07298990372294938  1.0000
  C   C453      1.0  0.12234125479425838  0.9130506857202344  0.0759736507635047  1.0000
  C   C454      1.0  0.18356247874698717  0.8994811942816763  0.086188351763198  1.0000
  C   C455      1.0  0.170400035452931  0.8976954482721419  0.05542306903001432  1.0000
  C   C456      1.0  0.148382090703296  0.8503774507282822  0.07437437551026423  1.0000
  H   H461      1.0  0.10129006350437127  0.90732061856217  0.06605085759214215  1.0000
  H   H462      1.0  0.12724592695862585  0.943154582321461  0.07523580766801674  1.0000
  H   H463      1.0  0.11074930283124039  0.9079250195962224  0.08907203125082785  1.0000
  H   H464      1.0  0.1738139775306291  0.8941432855733509  0.09962777884996048  1.0000
  H   H465      1.0  0.20954682420479048  0.8828608918165985  0.084311173238823  1.0000
  H   H466      1.0  0.18981344343404297  0.9293822837801641  0.0855419834968749  1.0000
  H   H467      1.0  0.196628707168982  0.8819367342785507  0.05289863465215357  1.0000
  H   H468      1.0  0.1752345780784664  0.9277200283607819  0.05375714796373555  1.0000
  H   H469      1.0  0.1509488346496711  0.8899464322574352  0.045110202526864825  1.0000
  H   H470      1.0  0.13776592117779746  0.8438726354496259  0.08755266359143517  1.0000
  H   H471      1.0  0.17326135860381567  0.8321930305245119  0.07211964254080544  1.0000
  H   H472      1.0  0.1276104587025617  0.8426655519859596  0.06460810424287344  1.0000
  N   N19       1.0  0.25775126778780866  0.1025381409374625  0.05880003653642074  1.0000
  C   C457      1.0  0.27091872415714824  0.07266297626898409  0.07071472589279937  1.0000
  C   C458      1.0  0.28770340062427335  0.11254439754592524  0.04718828080029924  1.0000
  C   C459      1.0  0.24501274153035713  0.13545429688639357  0.06909916399068194  1.0000
  C   C460      1.0  0.2273911420652901  0.08943544351372279  0.04818591227289559  1.0000
  H   H473      1.0  0.24904635437755318  0.06456808144159942  0.07973327280916531  1.0000
  H   H474      1.0  0.2940354907506004  0.08148489013125881  0.07881283116541371  1.0000
  H   H475      1.0  0.2804678752717442  0.04728164363454135  0.06335621041610784  1.0000
  H   H476      1.0  0.2788359394063562  0.13529559453408024  0.03816430598101905  1.0000
  H   H477      1.0  0.31123883988943457  0.1223525832344354  0.054694799670125915  1.0000
  H   H478      1.0  0.29749371141702685  0.088395145433684  0.03902451805583329  1.0000
  H   H479      1.0  0.2352199254971299  0.1586802461547318  0.06050819193169232  1.0000
  H   H480      1.0  0.26713890563871523  0.14608844257124493  0.07731456142691595  1.0000
  H   H481      1.0  0.222042234214489  0.12893781542333094  0.0778205266795371  1.0000
  H   H482      1.0  0.23642896775252087  0.06568509151212522  0.03964358458759354  1.0000
  H   H483      1.0  0.21598658647042224  0.11178774447654652  0.039548747135397244  1.0000
  H   H484      1.0  0.2048057056898105  0.0801027126009457  0.05647694957023375  1.0000
  N   N20       1.0  0.6272921050187223  0.23525669616376407  0.45264722929419193  1.0000
  C   C461      1.0  0.6642336921552602  0.2440512646222268  0.45832862698546034  1.0000
  C   C462      1.0  0.605059049961632  0.2702323855699874  0.4502857484992697  1.0000
  C   C463      1.0  0.6106695415332647  0.2120940057702473  0.46601796457078104  1.0000
  C   C464      1.0  0.6292085735134938  0.21459659930382044  0.435976221909735  1.0000
  H   H485      1.0  0.6816618302624265  0.2182733468532116  0.46032237714828717  1.0000
  H   H486      1.0  0.6636494384823779  0.259559593137839  0.47091419177855026  1.0000
  H   H487      1.0  0.6777418185467786  0.2614495216006642  0.4485718987379869  1.0000
  H   H488      1.0  0.6042360964910439  0.2872158351693506  0.46240849979596765  1.0000
  H   H489      1.0  0.6162729375382003  0.2877109000736047  0.43982152041733075  1.0000
  H   H490      1.0  0.5764707752797402  0.2646743338136723  0.4468156254706523  1.0000
  H   H491      1.0  0.5830602129358835  0.20413143453983665  0.4620701179200328  1.0000
  H   H492      1.0  0.6083936949716097  0.22696837650971663  0.47871826490480085  1.0000
  H   H493      1.0  0.6270908749888612  0.18569640687271308  0.46826096311982635  1.0000
  H   H494      1.0  0.6016580064058511  0.2074998869819962  0.43145590665857025  1.0000
  H   H495      1.0  0.6455507941886277  0.1878971049518777  0.43732070030926035  1.0000
  H   H496      1.0  0.6418980490849936  0.231085533504829  0.42558682686045207  1.0000
  N   N21       1.0  0.7137381278836881  0.5101904030582418  0.7181831394419285  1.0000
  C   C465      1.0  0.7098845942937066  0.5391175620506816  0.7318819654732682  1.0000
  C   C466      1.0  0.6977966488371157  0.47567906880578903  0.7243095546060269  1.0000
  C   C467      1.0  0.7526337616829172  0.502658114987992  0.7141405318343788  1.0000
  C   C468      1.0  0.6945262625730563  0.5233076341712277  0.7023018863226071  1.0000
  H   H497      1.0  0.7208352362547007  0.5658458949024617  0.7275343282869813  1.0000
  H   H498      1.0  0.7244683734587588  0.5306158311179608  0.7440304967996263  1.0000
  H   H499      1.0  0.6808485894671157  0.545146201951728  0.7354148885261073  1.0000
  H   H500      1.0  0.710905148333093  0.4654046955674065  0.7365498832841366  1.0000
  H   H501      1.0  0.6681133811806209  0.48015954027092156  0.7268292674741667  1.0000
  H   H502      1.0  0.7009337783424561  0.4530655755592836  0.7143849667143793  1.0000
  H   H503      1.0  0.7563244627240798  0.48116589073676314  0.7037086026988117  1.0000
  H   H504      1.0  0.7680254544111788  0.49247044373371796  0.7258029595646575  1.0000
  H   H505      1.0  0.765364934254548  0.5282430289285812  0.7094813187829632  1.0000
  H   H506      1.0  0.6652227772769771  0.5298117146402778  0.7049562913404005  1.0000
  H   H507      1.0  0.6962097989218721  0.5018669183697182  0.6918093621396347  1.0000
  H   H508      1.0  0.7061218963536476  0.5489606392473169  0.6970489065442745  1.0000
  N   N22       1.0  0.620426479510155  0.2873939644906149  0.6990596471223786  1.0000
  C   C469      1.0  0.6001794954523663  0.2694696686318443  0.713084099695942  1.0000
  C   C470      1.0  0.5952617140789667  0.2977556990946819  0.6846689704780279  1.0000
  C   C471      1.0  0.6495061712617107  0.2611401555100475  0.6925586094796198  1.0000
  C   C472      1.0  0.6367924773166271  0.3211821127327059  0.7058886482694705  1.0000
  H   H509      1.0  0.5780491820952152  0.28845989205108213  0.7183491148634698  1.0000
  H   H510      1.0  0.618392178231934  0.26078157699810706  0.7240584742737205  1.0000
  H   H511      1.0  0.5873250411836121  0.2439785469056393  0.7082321914240399  1.0000
  H   H512      1.0  0.6096265496656649  0.3112624752037965  0.6738395518988889  1.0000
  H   H513      1.0  0.5824789397917968  0.2728916379262068  0.6791513570889501  1.0000
  H   H514      1.0  0.5729229326795341  0.31748825194180685  0.6890984251022055  1.0000
  H   H515      1.0  0.664558774535055  0.27309980847572524  0.6815323622875908  1.0000
  H   H516      1.0  0.6382292533094196  0.23487230574135917  0.6878140071940216  1.0000
  H   H517      1.0  0.6696784563050387  0.2535178422315574  0.70288900818567  1.0000
  H   H518      1.0  0.6526857210042214  0.33482208486507525  0.6956268819408056  1.0000
  H   H519      1.0  0.6557025693878413  0.3145272656215269  0.716871700693857  1.0000
  H   H520      1.0  0.6156708815701869  0.34206729349009407  0.7105644000132717  1.0000
  N   N23       1.0  0.8773520806776547  0.3855495829867062  0.1985497093161863  1.0000
  C   C473      1.0  0.9125553428587528  0.39691335325742194  0.1916273570872652  1.0000
  C   C474      1.0  0.8597077383749915  0.4167507721648634  0.20848875212071954  1.0000
  C   C475      1.0  0.8837353513103662  0.35308954099567125  0.21007037061967374  1.0000
  C   C476      1.0  0.8534035291362505  0.37528329493690693  0.18403336496694778  1.0000
  H   H521      1.0  0.9313289551494474  0.4043015288374216  0.20237932200439618  1.0000
  H   H522      1.0  0.9090135889085954  0.421480956555685  0.18294355030779091  1.0000
  H   H523      1.0  0.9266553311478861  0.3740079686220737  0.18408126637700972  1.0000
  H   H524      1.0  0.852362496743194  0.44086133241336184  0.19994950049043977  1.0000
  H   H525      1.0  0.8345302938717739  0.4082847360902902  0.21510894778771542  1.0000
  H   H526      1.0  0.8780654147508745  0.4269727856046696  0.2187361067493402  1.0000
  H   H527      1.0  0.8580779597914824  0.34457505499004204  0.21619959531799096  1.0000
  H   H528      1.0  0.9031141055113528  0.35892830747357646  0.22067387207204478  1.0000
  H   H529      1.0  0.8956498330862892  0.32875144448959576  0.20278678656645632  1.0000
  H   H530      1.0  0.8270386397371376  0.365618614944931  0.18895761224957502  1.0000
  H   H531      1.0  0.8659514561084154  0.35202098592563213  0.17616151533051624  1.0000
  H   H532      1.0  0.8475438482748212  0.39909249695122484  0.1751046834392039  1.0000
  N   N24       1.0  0.8955087503312157  0.14531035845551  0.20711468546687303  1.0000
  C   C477      1.0  0.9218632847786573  0.16917258905203364  0.21562275005600592  1.0000
  C   C478      1.0  0.9129174593789285  0.1263520162719759  0.1919274005031225  1.0000
  C   C479      1.0  0.8634697048131185  0.16847855411550486  0.20131662444377796  1.0000
  C   C480      1.0  0.8838589117820761  0.11722001699411598  0.21965566129632902  1.0000
  H   H533      1.0  0.9469443210257551  0.15285747770814767  0.21965165895890154  1.0000
  H   H534      1.0  0.9100796885717576  0.18321347435724916  0.22740903634352322  1.0000
  H   H535      1.0  0.9306152337984586  0.19119889483886524  0.20663833588374292  1.0000
  H   H536      1.0  0.8940709239739072  0.10784250987748592  0.1851713365485687  1.0000
  H   H537      1.0  0.9219652950512396  0.1467454135484167  0.18222078621257032  1.0000
  H   H538      1.0  0.937598646668027  0.10913877772669349  0.19578236610829652  1.0000
  H   H539      1.0  0.8435233327433735  0.1516738845463493  0.194294837574541  1.0000
  H   H540      1.0  0.8712926156561629  0.19101140989385607  0.19235703085638503  1.0000
  H   H541      1.0  0.8490076654756331  0.1822359849328424  0.21253651454564657  1.0000
  H   H542      1.0  0.870705701482274  0.13067161432026547  0.23130826096769957  1.0000
  H   H543      1.0  0.9073931218707159  0.09928452710534474  0.22429178939039973  1.0000
  H   H544      1.0  0.8638770005616248  0.09876025122525474  0.21367871321660217  1.0000
  N   N25       1.0  0.272384068141662  0.2649997708914746  0.18186050492602476  1.0000
  C   C481      1.0  0.28108775677546555  0.2797325798684055  0.19929921393546954  1.0000
  C   C482      1.0  0.2952873421002943  0.28212430585527654  0.16863638379308488  1.0000
  C   C483      1.0  0.23362556053664302  0.27400685966638566  0.17796391548686183  1.0000
  C   C484      1.0  0.2796827613935312  0.2242397437838449  0.18150323340081512  1.0000
  H   H545      1.0  0.2646116073778306  0.2669713958564341  0.20962507552213736  1.0000
  H   H546      1.0  0.27563441659684085  0.3104003745049017  0.20002205566951503  1.0000
  H   H547      1.0  0.3102085081759651  0.27383816624982693  0.2026831072437398  1.0000
  H   H548      1.0  0.290294347702739  0.3127284351158163  0.168398882116992  1.0000
  H   H549      1.0  0.32473432165070576  0.27670174380119017  0.17142455038203014  1.0000
  H   H550      1.0  0.2895863955677613  0.27157457432036225  0.15532128203739645  1.0000
  H   H551      1.0  0.22572529496316387  0.26328696447650546  0.16494876711499082  1.0000
  H   H552      1.0  0.2274722701428654  0.30464077082399804  0.1778962761943569  1.0000
  H   H553      1.0  0.21560046838536692  0.26217787863586783  0.1879030478021953  1.0000
  H   H554      1.0  0.2732836930641976  0.21214733121728338  0.16857119719993516  1.0000
  H   H555      1.0  0.263357626690205  0.21016494746348455  0.19140327635418547  1.0000
  H   H556      1.0  0.3087083730079395  0.21668873704108757  0.1845358761267721  1.0000
  N   N26       1.0  0.7194033553200292  0.5978543895340955  0.5912817062243064  1.0000
  C   C485      1.0  0.7097285907661605  0.6299928859126994  0.5800101624275608  1.0000
  C   C486      1.0  0.7223506585897335  0.5636007500261815  0.5805645973313003  1.0000
  C   C487      1.0  0.6908867734488099  0.5943979489340235  0.60464160590812  1.0000
  C   C488      1.0  0.7546255493356937  0.6034508273572069  0.599867763667176  1.0000
  H   H557      1.0  0.6834406814035757  0.6262065924692232  0.5733231038458826  1.0000
  H   H558      1.0  0.7305563913688728  0.6335366922536725  0.5697160991292118  1.0000
  H   H559      1.0  0.7066482608177752  0.6563305570938491  0.5876229191350264  1.0000
  H   H560      1.0  0.7305734891033915  0.5389127720087227  0.5885758257950781  1.0000
  H   H561      1.0  0.6959886857210774  0.5578298030793115  0.574235281717616  1.0000
  H   H562      1.0  0.742819734612753  0.5656361683538254  0.5699821815174918  1.0000
  H   H563      1.0  0.6973886257293098  0.5705635823353146  0.6135051375379265  1.0000
  H   H564      1.0  0.6640330227405984  0.5896449125988292  0.5985510087575109  1.0000
  H   H565      1.0  0.6874105428921834  0.6199963637634804  0.6127822636353122  1.0000
  H   H566      1.0  0.7533836924420837  0.6290700589556047  0.6080602978562369  1.0000
  H   H567      1.0  0.7766651052602632  0.6060741085896165  0.5900863112674553  1.0000
  H   H568      1.0  0.7626352083621875  0.5795379043953433  0.6084592132036003  1.0000
  N   N27       1.0  0.6178772738974825  0.4199711844665213  0.4890907834575347  1.0000
  C   C489      1.0  0.638411590835269  0.40389398899157297  0.5040605438702418  1.0000
  C   C490      1.0  0.6434047628152464  0.4358390207765465  0.4766213049971963  1.0000
  C   C491      1.0  0.5918592264254218  0.44958154541506096  0.4954180145546846  1.0000
  C   C492      1.0  0.597733567514003  0.39078240684241405  0.4802147162197665  1.0000
  H   H569      1.0  0.6513115443112217  0.42591387060831437  0.5118113112546507  1.0000
  H   H570      1.0  0.6607835563777942  0.3840492825743933  0.4997593049388756  1.0000
  H   H571      1.0  0.620609822059251  0.38880644880402726  0.5130382626418232  1.0000
  H   H572      1.0  0.6290211810326803  0.44658164520383825  0.46480768380252907  1.0000
  H   H573      1.0  0.6578652473572729  0.459243332333426  0.48247735794255076  1.0000
  H   H574      1.0  0.6645923313437447  0.4147319781467224  0.4722543432727424  1.0000
  H   H575      1.0  0.5753350982629459  0.4617810951373785  0.4845489894344236  1.0000
  H   H576      1.0  0.6061162491703354  0.4727673946814912  0.5016699001546455  1.0000
  H   H577      1.0  0.5727862297744242  0.43872905917049626  0.5051724854636118  1.0000
  H   H578      1.0  0.5805249053553113  0.37569228146371714  0.48948879597506423  1.0000
  H   H579      1.0  0.6165107474881002  0.3699384189015398  0.4737285850430119  1.0000
  H   H580      1.0  0.5795408344059455  0.4027916597313427  0.46986518930483057  1.0000
  N   N28       1.0  0.8597886746756063  0.8024951904183185  0.8542010403890005  1.0000
  C   C493      1.0  0.8339576850222133  0.7808007978141953  0.8642210112374299  1.0000
  C   C494      1.0  0.8716752848378232  0.8338274769520762  0.8649676977407852  1.0000
  C   C495      1.0  0.8419405119415461  0.8173113817945249  0.8382618090060613  1.0000
  C   C496      1.0  0.8916370877126939  0.7781243639746362  0.8492708984976274  1.0000
  H   H581      1.0  0.8222520808901688  0.7586539376982769  0.8560764421665314  1.0000
  H   H582      1.0  0.8108808525681585  0.7988716719263187  0.8691703152969135  1.0000
  H   H583      1.0  0.8471401411109434  0.7673267630733693  0.8757748780640133  1.0000
  H   H584      1.0  0.8482239730887253  0.8531204646961844  0.8685938332088626  1.0000
  H   H585      1.0  0.8848818763242906  0.8239073297570633  0.8772423999750368  1.0000
  H   H586      1.0  0.8913468347007539  0.8506541565247576  0.8578092923466196  1.0000
  H   H587      1.0  0.8613308222074025  0.8320426939800006  0.8300307205942519  1.0000
  H   H588      1.0  0.8190868883746256  0.8375348427046865  0.8414021128001359  1.0000
  H   H589      1.0  0.8310097230473438  0.7947549919636732  0.8301159207648804  1.0000
  H   H590      1.0  0.8835622298032199  0.75492016508622  0.8406560126705509  1.0000
  H   H591      1.0  0.9055569722630845  0.7658199037936467  0.8609009839790868  1.0000
  H   H592      1.0  0.9118930154554415  0.7937884724040961  0.8418936475097374  1.0000
  N   N29       1.0  0.005085187421587811  0.2545413184397456  0.006109406301695763  1.0000
  C   C497      1.0  0.9996072824172414  0.27491762630030026  0.02274243286826705  1.0000
  C   C498      1.0  0.9778343226229343  0.2684490768888013  0.9932498875564338  1.0000
  C   C499      1.0  0.0010304247584500548  0.21434799374470972  0.009003608628310733  1.0000
  C   C500      1.0  0.041938906916412666  0.2604917340328401  0.9994088491120798  1.0000
  H   H593      1.0  0.01967436269645728  0.26499102812381703  0.03275141766368095  1.0000
  H   H594      1.0  0.9719800666434857  0.27150965074517835  0.028158700540144244  1.0000
  H   H595      1.0  0.003275940870396843  0.30527674963317136  0.02112433540275971  1.0000
  H   H596      1.0  0.9813090677682154  0.2536327884290438  0.9805299709844696  1.0000
  H   H597      1.0  0.9496615657631948  0.26440740493305603  0.9978515065018169  1.0000
  H   H598      1.0  0.9802572214420333  0.2987075201321659  0.9907611309977424  1.0000
  H   H599      1.0  0.022043775013075084  0.20261203354423862  0.01818432226116795  1.0000
  H   H600      1.0  0.00390810224583471  0.19827810064469148  0.996611964808028  1.0000
  H   H601      1.0  0.9739435927697895  0.20887285013090215  0.014556637631900404  1.0000
  H   H602      1.0  0.06316831981518378  0.24974116705180846  0.008652147061055215  1.0000
  H   H603      1.0  0.04639531840950384  0.2906336178909006  0.9975715895134156  1.0000
  H   H604      1.0  0.04685048061918162  0.24622097563915812  0.9866920962539215  1.0000
  N   N30       1.0  0.7937809805121838  0.895938457580608  0.5636286490994667  1.0000
  C   C501      1.0  0.8229805184506153  0.8704768935624575  0.570573367549496  1.0000
  C   C502      1.0  0.7581037753116117  0.8817473560443558  0.5683257208631189  1.0000
  C   C503      1.0  0.7968035737259438  0.8980480718589743  0.5444638936883618  1.0000
  C   C504      1.0  0.7972571392434269  0.933463068230188  0.5711702179719776  1.0000
  H   H605      1.0  0.8211738545354579  0.868393766335275  0.5850538439347909  1.0000
  H   H606      1.0  0.8503462648529464  0.8803416134059104  0.5674081138720714  1.0000
  H   H607      1.0  0.8211966236435038  0.8418988798376444  0.5651395643057421  1.0000
  H   H608      1.0  0.7353550558653842  0.9010282993880605  0.5640584918120742  1.0000
  H   H609      1.0  0.7539292006385351  0.8542960986197546  0.5621073941740089  1.0000
  H   H610      1.0  0.7554589808236201  0.8782302630088459  0.5826278579143037  1.0000
  H   H611      1.0  0.7933267456376214  0.8704351590777084  0.5382301177485705  1.0000
  H   H612      1.0  0.823620308353509  0.9079232710146706  0.5403797888090793  1.0000
  H   H613      1.0  0.7753738007204565  0.9175623447972271  0.538938376754358  1.0000
  H   H614      1.0  0.7744673892880048  0.9529547144954006  0.5670294608039749  1.0000
  H   H615      1.0  0.8231216251750871  0.945679002504617  0.5672053629093073  1.0000
  H   H616      1.0  0.7971183700731507  0.9326414045741304  0.5856437914125217  1.0000
  N   N31       1.0  0.22949914506991884  0.8984416908329198  0.9297467112318288  1.0000
  C   C505      1.0  0.2197412999339674  0.8773492159684032  0.9140255900661652  1.0000
  C   C506      1.0  0.19724287066899848  0.9206482848825888  0.9360305993693581  1.0000
  C   C507      1.0  0.25888667270486665  0.9233182070066674  0.9253902922734725  1.0000
  C   C508      1.0  0.24216643683471786  0.8723340167287746  0.9435478945702318  1.0000
  H   H617      1.0  0.1987861727013521  0.8571151128318285  0.9170182691677714  1.0000
  H   H618      1.0  0.2437389780255444  0.8610631188331302  0.9086718751899975  1.0000
  H   H619      1.0  0.2088951373013754  0.8960625012855784  0.9035487712814018  1.0000
  H   H620      1.0  0.20323245219386474  0.9355979715698998  0.9483118387540752  1.0000
  H   H621      1.0  0.1877364351245773  0.9418723281462493  0.9263442901285669  1.0000
  H   H622      1.0  0.1741407634795982  0.9027523215317406  0.9388165112418723  1.0000
  H   H623      1.0  0.26765020957171265  0.9389518321591152  0.9370276330010003  1.0000
  H   H624      1.0  0.25027291626980047  0.9438959727146476  0.9152459203490606  1.0000
  H   H625      1.0  0.28344875762421096  0.9072601355416533  0.9204566565883594  1.0000
  H   H626      1.0  0.24796343685837197  0.8872195505067659  0.9558970861750893  1.0000
  H   H627      1.0  0.2677251568028101  0.8566108592182223  0.9397163523723546  1.0000
  H   H628      1.0  0.22164214698476367  0.8515674881252225  0.9464261917230297  1.0000
  N   N32       1.0  0.08752569213230021  0.5937435721139793  0.07543177730402949  1.0000
  C   C509      1.0  0.1066666763882127  0.6029892017201278  0.0592708252036437  1.0000
  C   C510      1.0  0.05426183147839381  0.5744010048727843  0.07094307767027148  1.0000
  C   C511      1.0  0.0776987187725462  0.6283184377337634  0.08509398730536386  1.0000
  C   C512      1.0  0.11155607809060841  0.5693616681729413  0.08637773546854503  1.0000
  H   H629      1.0  0.13214330373874472  0.6173161889366179  0.06205113377021437  1.0000
  H   H630      1.0  0.08925099240472179  0.6211708748161238  0.050628176975033426  1.0000
  H   H631      1.0  0.11421472139854472  0.5773620544694689  0.051752696019614075  1.0000
  H   H632      1.0  0.06071818728661005  0.5483173253308058  0.06347097091098067  1.0000
  H   H633      1.0  0.0387002210144054  0.5672684280320249  0.08278627272946631  1.0000
  H   H634      1.0  0.03560501214687806  0.592139272823997  0.06265901133745032  1.0000
  H   H635      1.0  0.06320529407212838  0.6221016898329065  0.09734140506925805  1.0000
  H   H636      1.0  0.05930074761131876  0.6473149708990635  0.07729871702391056  1.0000
  H   H637      1.0  0.10219380889328278  0.6435515966736762  0.08868703628972484  1.0000
  H   H638      1.0  0.09766229694556383  0.5612472985955995  0.09854401396482958  1.0000
  H   H639      1.0  0.13645687629165093  0.5836411465598679  0.09031703234652695  1.0000
  H   H640      1.0  0.12076858832970894  0.5435686814850258  0.07926478344410075  1.0000
  N   N33       1.0  0.10346302930409346  0.21709343429501726  0.18259824185872578  1.0000
  C   C513      1.0  0.07863481611922851  0.24509292144981565  0.1911611930582582  1.0000
  C   C514      1.0  0.1087757394007085  0.1842218485744619  0.19400073104687934  1.0000
  C   C515      1.0  0.13878960301273469  0.23354104860294247  0.17941679367114854  1.0000
  C   C516      1.0  0.08776695440947258  0.20560972687516899  0.16580352880134602  1.0000
  H   H641      1.0  0.08996797682833235  0.2547121967374304  0.20376953812742962  1.0000
  H   H642      1.0  0.05172787289179204  0.2336504738217211  0.19391294085596497  1.0000
  H   H643      1.0  0.07389110730213377  0.27019034927898833  0.1828767216310809  1.0000
  H   H644      1.0  0.1275276333626323  0.1625221836075059  0.1880340725647265  1.0000
  H   H645      1.0  0.1203218231600327  0.19179572031311481  0.20685460554014976  1.0000
  H   H646      1.0  0.0826393230344924  0.17093580124089716  0.1965538246159226  1.0000
  H   H647      1.0  0.15862166835876645  0.21296887710513582  0.1734217939993019  1.0000
  H   H648      1.0  0.15067001365877108  0.24380497804557588  0.19174556332491646  1.0000
  H   H649      1.0  0.13576368387455262  0.25779096885338043  0.17047255723625407  1.0000
  H   H650      1.0  0.10591676930515725  0.18455663797812177  0.15901510520214787  1.0000
  H   H651      1.0  0.08331302206876545  0.2297380373923338  0.15685708407563392  1.0000
  H   H652      1.0  0.06110173605953184  0.1929409663106686  0.16769965227875988  1.0000
  N   N34       1.0  0.1845401777815136  0.7228986554732607  0.9818475069572707  1.0000
  C   C517      1.0  0.207593283600032  0.7203010078602348  0.9660824316753044  1.0000
  C   C518      1.0  0.15501593191392254  0.7517380658798716  0.9793144789820097  1.0000
  C   C519      1.0  0.2069076871978617  0.732749687439511  0.997003861622628  1.0000
  C   C520      1.0  0.16855149623854715  0.6866692782235876  0.9849976322297942  1.0000
  H   H653      1.0  0.22976103288578079  0.6982861403289663  0.9674257854828575  1.0000
  H   H654      1.0  0.22043346113553808  0.7470253118641313  0.9632850131261179  1.0000
  H   H655      1.0  0.19147745439555697  0.7132195297057747  0.9543891283793913  1.0000
  H   H656      1.0  0.13769040669674748  0.7550924024903549  0.9911621600382888  1.0000
  H   H657      1.0  0.1658985490235833  0.7792640523314169  0.9762608931113486  1.0000
  H   H658      1.0  0.13674389631676753  0.7441349382708125  0.9684511197427581  1.0000
  H   H659      1.0  0.1903519166805619  0.7345710842080598  0.009136785322632957  1.0000
  H   H660      1.0  0.21929286556360023  0.7600449866461191  0.9951064857684971  1.0000
  H   H661      1.0  0.22944718664145342  0.7114491009996717  0.9991990043169229  1.0000
  H   H662      1.0  0.14992975642406176  0.6878481129025479  0.9964376952661618  1.0000
  H   H663      1.0  0.18986779365118123  0.6642619674140811  0.9874727019759298  1.0000
  H   H664      1.0  0.15238831466964212  0.6779348243169419  0.9735765821909745  1.0000
  N   N35       1.0  0.6145575396788084  0.9851488702433655  0.6752897199388799  1.0000
  C   C521      1.0  0.5855924995346748  0.9826528760816232  0.6620700823567729  1.0000
  C   C522      1.0  0.627687973018038  0.023291272497037774  0.675614393014241  1.0000
  C   C523      1.0  0.6448918866841045  0.958381021620432  0.6709148793522216  1.0000
  C   C524      1.0  0.6000828372045177  0.9761732509600001  0.6926190079970788  1.0000
  H   H665      1.0  0.574647604075629  0.9543278791452361  0.6617737376448478  1.0000
  H   H666      1.0  0.5958411575628032  0.9887810249907809  0.6488040464122216  1.0000
  H   H667      1.0  0.5624206085344879  0.002791451832114822  0.6648716720228959  1.0000
  H   H668      1.0  0.6396947681164808  0.030849150514974166  0.6628752573707332  1.0000
  H   H669      1.0  0.6052818407562961  0.04428551511101242  0.6786004883287124  1.0000
  H   H670      1.0  0.6490172426907109  0.026099994284739525  0.6857483220127883  1.0000
  H   H671      1.0  0.6667062946488064  0.9587023565610578  0.680930221771884  1.0000
  H   H672      1.0  0.6574033711044784  0.9650642896129543  0.6581736658040684  1.0000
  H   H673      1.0  0.6356978585154345  0.9293958763887333  0.6701753467109284  1.0000
  H   H674      1.0  0.5887840255493936  0.9480848741981309  0.6926962085780454  1.0000
  H   H675      1.0  0.57800339191765  0.9966470809148459  0.6965772954174342  1.0000
  H   H676      1.0  0.6215306411791962  0.9763785888438627  0.7028531731902798  1.0000
  N   N36       1.0  0.7476629696336788  0.9226893883822729  0.7474950301584664  1.0000
  C   C525      1.0  0.738624854796864  0.8863202887966873  0.7400792035799243  1.0000
  C   C526      1.0  0.7560565229574033  0.9484834605893615  0.733261113585358  1.0000
  C   C527      1.0  0.7796439610227902  0.9174554952891927  0.7590588235818088  1.0000
  C   C528      1.0  0.7162851323023713  0.9384203343373259  0.7575432433591973  1.0000
  H   H677      1.0  0.7319855779128353  0.8661900677765851  0.7504635403131126  1.0000
  H   H678      1.0  0.761893243059595  0.8735703075469686  0.7326307731191806  1.0000
  H   H679      1.0  0.7148694392124293  0.8891314526330654  0.7310868871643578  1.0000
  H   H680      1.0  0.7626810840652996  0.9763540849032613  0.7383447701793752  1.0000
  H   H681      1.0  0.7798606715389965  0.9378713340785654  0.7255114201460786  1.0000
  H   H682      1.0  0.7327512958296049  0.9526900787505177  0.7240807110693419  1.0000
  H   H683      1.0  0.8034897938570622  0.9047653338271795  0.7519186592156452  1.0000
  H   H684      1.0  0.7741420385359064  0.8986693829482137  0.7701363292017354  1.0000
  H   H685      1.0  0.7882283542014503  0.9443918635295235  0.7644997476464838  1.0000
  H   H686      1.0  0.7221755599017867  0.9658189520329882  0.7633879474884844  1.0000
  H   H687      1.0  0.7088319649117776  0.9195483612039449  0.7682762064191235  1.0000
  H   H688      1.0  0.6918162794486026  0.9428387783522395  0.7490863797234939  1.0000
  N   N37       1.0  0.02758696967654628  0.9704357535614883  0.8558006167279427  1.0000
  C   C529      1.0  0.015245304074660737  0.009532504644508277  0.859129714242085  1.0000
  C   C530      1.0  0.055566816838672706  0.9691238629544608  0.8419953822487696  1.0000
  C   C531      1.0  0.9963693420673096  0.9491015093702231  0.8501290183234882  1.0000
  C   C532      1.0  0.04315172310431192  0.9540529832552869  0.8719605410266115  1.0000
  H   H689      1.0  0.03788047487122914  0.02651820825645035  0.8636760297169968  1.0000
  H   H690      1.0  0.9939436920475418  0.011418221922330218  0.8693626901030849  1.0000
  H   H691      1.0  0.003297451991310707  0.022983349970081113  0.8472569911493483  1.0000
  H   H692      1.0  0.07910687001548888  0.9857622714047227  0.8456210774896723  1.0000
  H   H693      1.0  0.06610605275699544  0.9400675495868253  0.8394329399899234  1.0000
  H   H694      1.0  0.04434278467551134  0.9801325203441859  0.8294439551777515  1.0000
  H   H695      1.0  0.004874003332028254  0.9197138332831986  0.8469978899853429  1.0000
  H   H696      1.0  0.9834448528094806  0.9613214180619856  0.8382027015683359  1.0000
  H   H697      1.0  0.9750036568272245  0.9488451056743924  0.8603774568481038  1.0000
  H   H698      1.0  0.05269101567141554  0.9244838953741864  0.8700242724867173  1.0000
  H   H699      1.0  0.022809175549962424  0.9548077059832629  0.8826946348505196  1.0000
  H   H700      1.0  0.06677153558270699  0.9695466793682501  0.8765878652391903  1.0000
  N   N38       1.0  0.6880646483338962  0.32467257642492997  0.5960177005064293  1.0000
  C   C533      1.0  0.7200244517609978  0.32382087681019533  0.6077181809654147  1.0000
  C   C534      1.0  0.6856693867301666  0.3602435755135763  0.5864787992975669  1.0000
  C   C535      1.0  0.6547304646700668  0.32134837562464874  0.6064349454593783  1.0000
  C   C536      1.0  0.6917422654340311  0.2934790437411089  0.5834257266526003  1.0000
  H   H701      1.0  0.722638331531874  0.2973797880095325  0.6152203882411041  1.0000
  H   H702      1.0  0.7182048693311841  0.3470648622347131  0.6173506121958231  1.0000
  H   H703      1.0  0.7457336039753163  0.32649779101669635  0.6002873254782499  1.0000
  H   H704      1.0  0.7109342055882362  0.3641084080752782  0.5789944501869909  1.0000
  H   H705      1.0  0.6625960584393462  0.36142853953512893  0.5771076384949388  1.0000
  H   H706      1.0  0.6819985187914519  0.38441471015161977  0.5955093436237465  1.0000
  H   H707      1.0  0.6509034977246554  0.3447894442800078  0.6158448088022703  1.0000
  H   H708      1.0  0.6557295321146884  0.29494547037001095  0.6139331415317327  1.0000
  H   H709      1.0  0.630137758680461  0.32136791628660155  0.5979871409171507  1.0000
  H   H710      1.0  0.6678952531244686  0.29301864095442975  0.574493814512099  1.0000
  H   H711      1.0  0.6936296263559258  0.26615262220605784  0.5901640669498062  1.0000
  H   H712      1.0  0.7164582375552473  0.2953951289017888  0.5751827467195308  1.0000
  N   N39       1.0  0.6172093942362873  0.8282464537913572  0.5729098044969627  1.0000
  C   C537      1.0  0.6203995331036117  0.8054560583945373  0.5888809863535117  1.0000
  C   C538      1.0  0.6057370273688795  0.8049215645793301  0.5581839048142967  1.0000
  C   C539      1.0  0.6527872142988408  0.8434529600659123  0.568850896203635  1.0000
  C   C540      1.0  0.5898625568958366  0.8591891622031135  0.5757383355329952  1.0000
  H   H713      1.0  0.5937429105040587  0.7945471148982801  0.5926355549310653  1.0000
  H   H714      1.0  0.629906989602872  0.8220224087765151  0.6001356912478102  1.0000
  H   H715      1.0  0.6398158190396126  0.7810261463680154  0.5870978369520206  1.0000
  H   H716      1.0  0.6031723200557457  0.8212584714799596  0.5459112951319455  1.0000
  H   H717      1.0  0.6256568206857059  0.781191233051214  0.5556649399465996  1.0000
  H   H718      1.0  0.5789383206130331  0.7930796124003927  0.5607309723636213  1.0000
  H   H719      1.0  0.674128031551094  0.820853834792114  0.5668332003734494  1.0000
  H   H720      1.0  0.6619651686451602  0.86192893391484  0.5794831793947578  1.0000
  H   H721      1.0  0.6514764617361506  0.8602347961070407  0.5567066946989476  1.0000
  H   H722      1.0  0.5863902775097781  0.8768646162094039  0.5639422483460456  1.0000
  H   H723      1.0  0.5978935707450957  0.8777465915348502  0.5865819645023564  1.0000
  H   H724      1.0  0.5627807949264512  0.8486859779251751  0.5790921392417647  1.0000
  N   N40       1.0  0.14971085884867127  0.9444389051437435  0.7088670214379844  1.0000
  C   C541      1.0  0.10988129618045812  0.9418362790414619  0.7103772720023009  1.0000
  C   C542      1.0  0.16587189481548134  0.909188884391548  0.701679337672395  1.0000
  C   C543      1.0  0.16523538800934978  0.9512329039127192  0.7262777579398891  1.0000
  C   C544      1.0  0.15793961721861044  0.9754588373815437  0.6971780640338059  1.0000
  H   H725      1.0  0.09676830512399763  0.9677600079954993  0.7159574596828855  1.0000
  H   H726      1.0  0.10285958561995891  0.9185075308177985  0.7190830622673923  1.0000
  H   H727      1.0  0.09713524041834345  0.9367338760034318  0.6974979468387836  1.0000
  H   H728      1.0  0.19594680346340007  0.9100605223679217  0.7004423038635932  1.0000
  H   H729      1.0  0.1602374610096777  0.885175298889658  0.7102118383815167  1.0000
  H   H730      1.0  0.15469165697681134  0.9030291398758843  0.6885752094837017  1.0000
  H   H731      1.0  0.19543728888717818  0.9520975648230473  0.725807093995455  1.0000
  H   H732      1.0  0.15843554272668225  0.928931297834245  0.7355202050346062  1.0000
  H   H733      1.0  0.1544053391598494  0.9780339656592325  0.7319565687816193  1.0000
  H   H734      1.0  0.18783486398523377  0.97828162466412  0.6959651661811364  1.0000
  H   H735      1.0  0.1459652499459889  0.0024692996395392353  0.7021641937037739  1.0000
  H   H736      1.0  0.146912362167799  0.971131178650623  0.6838577247235602  1.0000
  N   N41       1.0  0.6633503270186261  0.11569066273150008  0.5745063819292571  1.0000
  C   C545      1.0  0.6358994616435185  0.09753596529851405  0.5851382258239134  1.0000
  C   C546      1.0  0.6715493765881075  0.1517520364193807  0.5824923078319513  1.0000
  C   C547      1.0  0.6491709762962083  0.12209356499118061  0.5566839394836812  1.0000
  C   C548      1.0  0.6969052228060834  0.09140761845851841  0.57380147516893  1.0000
  H   H737      1.0  0.6101804150356553  0.11495800133338956  0.5859958629243659  1.0000
  H   H738      1.0  0.6457765564592489  0.09265259704080292  0.5987113724950252  1.0000
  H   H739      1.0  0.6293299831752202  0.07002790836964867  0.579595868439541  1.0000
  H   H740      1.0  0.6828303928248042  0.14781620800531306  0.5958358620447882  1.0000
  H   H741      1.0  0.6918601976715995  0.16644639449256685  0.5747142839313034  1.0000
  H   H742      1.0  0.6467587342263115  0.17061134312892004  0.5835678698649178  1.0000
  H   H743      1.0  0.6693756113694884  0.13561628439972917  0.5483259851243966  1.0000
  H   H744      1.0  0.6238268670868979  0.14039205977504135  0.5567867443042694  1.0000
  H   H745      1.0  0.6429493181301316  0.09550458617495047  0.5501836407001338  1.0000
  H   H746      1.0  0.718177837935638  0.10391139587421705  0.5657189167790666  1.0000
  H   H747      1.0  0.6916847423556389  0.06379273423133804  0.5679843956797397  1.0000
  H   H748      1.0  0.7084316550462987  0.08642110501780255  0.5870803631715359  1.0000
  N   N42       1.0  0.6030356591949619  0.7446589246314697  0.7096750732898084  1.0000
  C   C549      1.0  0.6417239595888237  0.7352769260260473  0.70580184087272  1.0000
  C   C550      1.0  0.5847101384084905  0.7587094866514538  0.6937243335959614  1.0000
  C   C551      1.0  0.6000157542887607  0.7737611583236983  0.7233269018807376  1.0000
  C   C552      1.0  0.5855862623344094  0.7109397669295083  0.7157591190428353  1.0000
  H   H749      1.0  0.6563169570658124  0.7238378961258132  0.7174183560181772  1.0000
  H   H750      1.0  0.6559509974397716  0.7601920961031844  0.7014736306516375  1.0000
  H   H751      1.0  0.6447397013499371  0.7139600484556586  0.6952649045001776  1.0000
  H   H752      1.0  0.5557046094875812  0.7670725418645897  0.6962580039765303  1.0000
  H   H753      1.0  0.5977855686263325  0.7835643064821254  0.6886001595523494  1.0000
  H   H754      1.0  0.5853674423812643  0.7372244516210297  0.6832308831390446  1.0000
  H   H755      1.0  0.5711235977724887  0.7823595121616786  0.7260812252441572  1.0000
  H   H756      1.0  0.613945828424781  0.7991976346394184  0.7194496749814029  1.0000
  H   H757      1.0  0.612149366177221  0.7638708000728294  0.7358074781943744  1.0000
  H   H758      1.0  0.5990895907692961  0.6993207695238646  0.7276796204167904  1.0000
  H   H759      1.0  0.5867893136426859  0.6886824304065335  0.7056076370672659  1.0000
  H   H760      1.0  0.5563867951494208  0.7170484900613214  0.7188901123037937  1.0000
  N   N43       1.0  0.602026324038878  0.7582564841788972  0.8442787791297922  1.0000
  C   C553      1.0  0.6087757726950862  0.7498752274335196  0.8256650729421813  1.0000
  C   C554      1.0  0.5625973679869583  0.7651040539369928  0.8471748532975628  1.0000
  C   C555      1.0  0.6214017901799282  0.7916657970058815  0.8493035890133506  1.0000
  C   C556      1.0  0.6153843426876835  0.726372561563651  0.8549979779443542  1.0000
  H   H761      1.0  0.5993514984575632  0.7734243689185524  0.8171466626925354  1.0000
  H   H762      1.0  0.5946483203002245  0.7247968998174779  0.8213611871196189  1.0000
  H   H763      1.0  0.638276363492614  0.7443884506339411  0.8231196190598553  1.0000
  H   H764      1.0  0.5473104149048894  0.7399369233375421  0.8442099830078822  1.0000
  H   H765      1.0  0.5566768490461128  0.7734009092523582  0.8609270670922499  1.0000
  H   H766      1.0  0.551320510815691  0.7880052792428853  0.8387693144211729  1.0000
  H   H767      1.0  0.6184538833847516  0.7976948601674094  0.8634803754214739  1.0000
  H   H768      1.0  0.6107280446049078  0.8167199460703939  0.8421396166148737  1.0000
  H   H769      1.0  0.651038354867247  0.7880853697963511  0.8465056438394577  1.0000
  H   H770      1.0  0.6101307982132529  0.731540294596492  0.8691003876807848  1.0000
  H   H771      1.0  0.6451904248277457  0.7209729410955141  0.8534499850032581  1.0000
  H   H772      1.0  0.6022433799656973  0.7003430224834517  0.8512294392139751  1.0000
  N   N44       1.0  0.3135568823106699  0.4437777737712883  0.3502090858225114  1.0000
  C   C557      1.0  0.30740939627438213  0.4753839404545825  0.3381558191867345  1.0000
  C   C558      1.0  0.318096000778796  0.4087395757577032  0.34011509575344895  1.0000
  C   C559      1.0  0.28205597155392387  0.4417525080492469  0.3619855084485579  1.0000
  C   C560      1.0  0.34668046858155255  0.4492630308374411  0.36061702844495874  1.0000
  H   H773      1.0  0.3043375306299661  0.5022219533493976  0.3454037818510952  1.0000
  H   H774      1.0  0.28249886903031907  0.47226957597318536  0.3301934063884231  1.0000
  H   H775      1.0  0.3306919164516434  0.47746492654922734  0.32900754867289145  1.0000
  H   H776      1.0  0.3406311596349415  0.4098836102960281  0.3305289134256413  1.0000
  H   H777      1.0  0.3248674214829488  0.38452317517546714  0.3487534070922846  1.0000
  H   H778      1.0  0.29303055894790003  0.40236298310838214  0.33285683903026436  1.0000
  H   H779      1.0  0.28620465221402547  0.4182982827071854  0.371199339800852  1.0000
  H   H780      1.0  0.2565063233663392  0.43737888381633155  0.35471338733128216  1.0000
  H   H781      1.0  0.27809120510292434  0.46738711010054307  0.37006548101357517  1.0000
  H   H782      1.0  0.35462543062657526  0.4240825325514136  0.3684378037118422  1.0000
  H   H783      1.0  0.3429464030222054  0.4728376245219227  0.3699692415799363  1.0000
  H   H784      1.0  0.3701537448966667  0.45500490010688693  0.3521615486736285  1.0000
  N   N45       1.0  0.052643848117509995  0.40847793852995484  0.34327393285989954  1.0000
  C   C561      1.0  0.039007122958874645  0.4390306174335195  0.33184115152287313  1.0000
  C   C562      1.0  0.08422273300765794  0.4205956772034709  0.3533160401022208  1.0000
  C   C563      1.0  0.06371210197104628  0.37572889823114475  0.3324751642003806  1.0000
  C   C564      1.0  0.023638768232826287  0.3985541117115234  0.3554558129500716  1.0000
  H   H785      1.0  0.015738287776824178  0.43044957399675565  0.3237850407815574  1.0000
  H   H786      1.0  0.06033681339523734  0.44772506997303857  0.3226733870431216  1.0000
  H   H787      1.0  0.029342577117180912  0.46397990053592447  0.3394954316292746  1.0000
  H   H788      1.0  0.10636742580181938  0.4291737716933445  0.3446013071042865  1.0000
  H   H789      1.0  0.07644467809351087  0.4445347381179761  0.3620333703802514  1.0000
  H   H790      1.0  0.09561800337354857  0.39787686050898896  0.36182400375458973  1.0000
  H   H791      1.0  0.07410482542004315  0.3520228371423803  0.3406542489147401  1.0000
  H   H792      1.0  0.08550124769540984  0.38231449798966916  0.32308152156064346  1.0000
  H   H793      1.0  0.040500643239385965  0.36605596657067613  0.32463587255884613  1.0000
  H   H794      1.0  0.014213276195784715  0.4228304290587934  0.36362904804848173  1.0000
  H   H795      1.0  0.03336567279457281  0.3761713555257105  0.3645435683301099  1.0000
  H   H796      1.0  0.9995387636779554  0.38870279451198536  0.34839592453192975  1.0000
  N   N46       1.0  0.39445221673823366  0.6971013112244739  0.6933167229622936  1.0000
  C   C565      1.0  0.3747211603169576  0.6716216606276099  0.7045383355265065  1.0000
  C   C566      1.0  0.42023082322144245  0.717532153652861  0.7040487798727967  1.0000
  C   C567      1.0  0.3681658604810164  0.7238087279734853  0.6849135291270957  1.0000
  C   C568      1.0  0.4147840956287644  0.6754243006982144  0.6797932812700119  1.0000
  H   H797      1.0  0.39381467895392885  0.6512212745512542  0.7111308947996122  1.0000
  H   H798      1.0  0.35507512266338337  0.6556622157724435  0.6968639503938383  1.0000
  H   H799      1.0  0.359046416095293  0.6872453855062128  0.7148780229962434  1.0000
  H   H800      1.0  0.43435179619357356  0.7383438194306435  0.6961761956473057  1.0000
  H   H801      1.0  0.4062288207435544  0.7326668610377737  0.7149584709213177  1.0000
  H   H802      1.0  0.4417039778892463  0.6984262637772798  0.7097998522012475  1.0000
  H   H803      1.0  0.35129262813363415  0.7395585031428479  0.6947422458473099  1.0000
  H   H804      1.0  0.3492232085506025  0.7095245778654306  0.6761437109356525  1.0000
  H   H805      1.0  0.3821620359761921  0.744641246728019  0.6769552726056389  1.0000
  H   H806      1.0  0.4300301059118158  0.6939565863485169  0.6712073237071575  1.0000
  H   H807      1.0  0.39641835650508433  0.6595217537972675  0.6713842231546635  1.0000
  H   H808      1.0  0.4351486028197074  0.6552012987807054  0.6856545508823154  1.0000
  N   N47       1.0  0.23021039837616622  0.4719914876679798  0.9615626283608022  1.0000
  C   C569      1.0  0.20890188787863703  0.5031155287935716  0.9533048025631702  1.0000
  C   C570      1.0  0.20576130249837768  0.4422843927418439  0.9663595738122365  1.0000
  C   C571      1.0  0.24816999240841148  0.48562495420377777  0.9773931627315405  1.0000
  C   C572      1.0  0.25812135839960015  0.4569909574310129  0.9492570316543575  1.0000
  H   H809      1.0  0.22642808401325573  0.5263540190068028  0.9498371179511718  1.0000
  H   H810      1.0  0.1875730204152351  0.5150945653840445  0.9622427394758211  1.0000
  H   H811      1.0  0.19506756374013054  0.49409202232556704  0.9412367188719426  1.0000
  H   H812      1.0  0.18439260349606593  0.4526250718328809  0.9756791518882931  1.0000
  H   H813      1.0  0.19177408969772258  0.4310920508176891  0.9547688131462121  1.0000
  H   H814      1.0  0.22086912573247552  0.4186490445911293  0.9729284324684822  1.0000
  H   H815      1.0  0.2278329364625628  0.49730288514270904  0.9867994319181006  1.0000
  H   H816      1.0  0.266723283285019  0.5082689310962997  0.9743893770819414  1.0000
  H   H817      1.0  0.264027556463768  0.4628848178207318  0.9842238650288664  1.0000
  H   H818      1.0  0.2770297414382636  0.47876130999633937  0.9454387339659083  1.0000
  H   H819      1.0  0.24554970178546215  0.44642315934202675  0.937136511200294  1.0000
  H   H820      1.0  0.2747239875258266  0.43354279805292684  0.9551442476690439  1.0000
  N   N48       1.0  0.432793156644205  0.9388849454671768  0.681443615848765  1.0000
  C   C573      1.0  0.4026975878777445  0.9351247002652152  0.6689168602202381  1.0000
  C   C574      1.0  0.46595586936118466  0.9489428265969169  0.672075034566027  1.0000
  C   C575      1.0  0.4397986512535335  0.9031298861360403  0.6905141441376775  1.0000
  C   C576      1.0  0.42268095829782765  0.9681543842916205  0.6943322953107536  1.0000
  H   H821      1.0  0.3776413468577331  0.9264386391332119  0.6755935010499666  1.0000
  H   H822      1.0  0.4096482408856945  0.9133870132056232  0.6589224049904365  1.0000
  H   H823      1.0  0.3960739187029694  0.9617483885450565  0.6620391857376894  1.0000
  H   H824      1.0  0.4891626834883325  0.9518674339697739  0.6811838935172498  1.0000
  H   H825      1.0  0.47470996885208355  0.9272611564664947  0.6623812290256679  1.0000
  H   H826      1.0  0.4618382729790369  0.9759681793042239  0.665173553637662  1.0000
  H   H827      1.0  0.4636305837546601  0.9040030642813653  0.6994204797856085  1.0000
  H   H828      1.0  0.44551796133652216  0.8802782527841034  0.6810905560987116  1.0000
  H   H829      1.0  0.4159710989291019  0.8954321486112939  0.6984201814232959  1.0000
  H   H830      1.0  0.4192388931957131  0.9960476544835724  0.6881621623198562  1.0000
  H   H831      1.0  0.44400297117433446  0.9699398072301947  0.7044930142433814  1.0000
  H   H832      1.0  0.39690651104867003  0.9622560649968137  0.701100010218029  1.0000
  N   N49       1.0  0.996543243344938  0.8316622019044323  0.09210002815004087  1.0000
  C   C577      1.0  0.00877955665762764  0.8371687702981487  0.07399142652426849  1.0000
  C   C578      1.0  0.012642613604326058  0.8594746296379124  0.10359620832533796  1.0000
  C   C579      1.0  0.008175611803804994  0.7937567235445867  0.09789550258259715  1.0000
  C   C580      1.0  0.9564802128981994  0.836232969273064  0.09295647861895867  1.0000
  H   H833      1.0  0.038899761932412735  0.834172868601378  0.07287090304683473  1.0000
  H   H834      1.0  4.115627170175884e-06  0.8652349191717801  0.06904236170200266  1.0000
  H   H835      1.0  0.9973373071589848  0.816387740709164  0.06502778023355375  1.0000
  H   H836      1.0  0.003986990005325541  0.8559793580757804  0.11736041665349758  1.0000
  H   H837      1.0  0.042865633102890266  0.8569461037613234  0.10330462665239713  1.0000
  H   H838      1.0  0.004300359283363253  0.888401043132817  0.0996690027032043  1.0000
  H   H839      1.0  0.9972256136248198  0.7721283534609212  0.08921232143477723  1.0000
  H   H840      1.0  0.9984232572746611  0.7881618987539675  0.11133532732221958  1.0000
  H   H841      1.0  0.03827857499153153  0.7895453256547397  0.09790115828257155  1.0000
  H   H842      1.0  0.9463705386047586  0.8319635697057184  0.10643929067912881  1.0000
  H   H843      1.0  0.9433984578575755  0.8157360634997473  0.08442678151773139  1.0000
  H   H844      1.0  0.9465903999083848  0.8644290308780345  0.08864070320485808  1.0000
  N   N50       1.0  0.439543399394206  0.41955166840590447  0.22295559866587739  1.0000
  C   C581      1.0  0.4243957805289349  0.38692963604920366  0.2143284221841905  1.0000
  C   C582      1.0  0.47364790864562994  0.4078935415626347  0.23202608317022763  1.0000
  C   C583      1.0  0.4129893939830923  0.4355267478696699  0.235708462280825  1.0000
  C   C584      1.0  0.44710508980810587  0.4478917612701458  0.20973298415655667  1.0000
  H   H845      1.0  0.4178979855714582  0.365176927988557  0.22396577279450364  1.0000
  H   H846      1.0  0.44385134580148156  0.37385698538151957  0.2047632045388771  1.0000
  H   H847      1.0  0.3988344877397252  0.39477858099306745  0.20715837998332054  1.0000
  H   H848      1.0  0.4691813307704009  0.38578070740088166  0.241770728703281  1.0000
  H   H849      1.0  0.49473469149524724  0.3965401662370363  0.22280572748335084  1.0000
  H   H850      1.0  0.4853468805977078  0.4314488097691632  0.23922249568957232  1.0000
  H   H851      1.0  0.4233924246422379  0.46026878719404607  0.24246672170584357  1.0000
  H   H852      1.0  0.4067883027398853  0.4150576004180011  0.24595696000843423  1.0000
  H   H853      1.0  0.38672010685622266  0.4441917227622912  0.2293643692650617  1.0000
  H   H854      1.0  0.45871925329676494  0.47283704970793755  0.21580011314458553  1.0000
  H   H855      1.0  0.4218628737241544  0.4573406764167464  0.20268333940328848  1.0000
  H   H856      1.0  0.4669150358672087  0.4367337515364983  0.19983599838200108  1.0000
  N   N51       1.0  0.10555528771276301  0.29856804118737723  0.45059781962414935  1.0000
  C   C585      1.0  0.1004431962291994  0.2943641161606023  0.4695690054229389  1.0000
  C   C586      1.0  0.13872584710382507  0.2768756959822432  0.4450384265000383  1.0000
  C   C587      1.0  0.10922618934574979  0.3383240711726332  0.44646720792113614  1.0000
  C   C588      1.0  0.07369745608802636  0.2846950419455938  0.44135488454122607  1.0000
  H   H857      1.0  0.07574258433779435  0.3106794466610026  0.4741665015531026  1.0000
  H   H858      1.0  0.124125637979837  0.3042010495486607  0.4769881185237687  1.0000
  H   H859      1.0  0.09704724655019326  0.26474734340522843  0.4731026979773387  1.0000
  H   H860      1.0  0.14286975589413986  0.278686728651176  0.4307233332511996  1.0000
  H   H861      1.0  0.16354079868912486  0.2872254377952001  0.4513215293702869  1.0000
  H   H862      1.0  0.1372407410658707  0.24684001859869076  0.44820906089188545  1.0000
  H   H863      1.0  0.11439832250223114  0.34239627382881527  0.4323652256351249  1.0000
  H   H864      1.0  0.13235520037496595  0.3500551938006054  0.4536064304575403  1.0000
  H   H865      1.0  0.084105482998726  0.35536444201675305  0.44981948761222473  1.0000
  H   H866      1.0  0.07583032197313844  0.28836380927871536  0.4270256277344557  1.0000
  H   H867      1.0  0.04802130427721618  0.2996298656753959  0.4456022362734881  1.0000
  H   H868      1.0  0.07045794834208663  0.25454266584596225  0.4437532803504768  1.0000
  N   N52       1.0  0.1186916994291465  0.11447207406019766  0.279770378030813  1.0000
  C   C589      1.0  0.09301254926496247  0.11927684404511152  0.26503581295195344  1.0000
  C   C590      1.0  0.10877984454483494  0.08241274474286597  0.2904269929178188  1.0000
  C   C591      1.0  0.11720307064531175  0.14857121696740339  0.2906231694431306  1.0000
  C   C592      1.0  0.15592766762173146  0.10761190025915557  0.2729597726526937  1.0000
  H   H869      1.0  0.06452046862438188  0.12409104590007458  0.2696011969977547  1.0000
  H   H870      1.0  0.09415321352547994  0.09443440105861822  0.2562918954086118  1.0000
  H   H871      1.0  0.09965940453115898  0.14342048615681868  0.25678647565585894  1.0000
  H   H872      1.0  0.1277935340261307  0.07804703840354299  0.30160708761156546  1.0000
  H   H873      1.0  0.0808254410300606  0.0866142969097079  0.29581319493243335  1.0000
  H   H874      1.0  0.10972684434617888  0.056269735408729815  0.28258071515916605  1.0000
  H   H875      1.0  0.1368616498018572  0.14628459980757724  0.3016598009756132  1.0000
  H   H876      1.0  0.08962242098861002  0.15459266706749153  0.29613958948609453  1.0000
  H   H877      1.0  0.12446088908517562  0.1733412686791871  0.28295304916075337  1.0000
  H   H878      1.0  0.15822880273233014  0.08218069444464104  0.26462549984012096  1.0000
  H   H879      1.0  0.17633723314113198  0.10466088184942546  0.2836404473765274  1.0000
  H   H880      1.0  0.16386795199386756  0.1310547753034359  0.26472501852844  1.0000
  N   N53       1.0  0.43449038980999877  0.3376266985065457  0.47730103534013474  1.0000
  C   C593      1.0  0.41600353337498097  0.3205637863476351  0.4921193057594731  1.0000
  C   C594      1.0  0.4713463183811021  0.3475496784398909  0.4826680575808234  1.0000
  C   C595      1.0  0.4131534901469469  0.37142448010145757  0.47174807196264146  1.0000
  C   C596      1.0  0.43742148805876857  0.3108550683644623  0.4626599770203903  1.0000
  H   H881      1.0  0.4320114089958959  0.2957659107193914  0.49708918243527744  1.0000
  H   H882      1.0  0.3888636482325235  0.3109281770238074  0.488217067275969  1.0000
  H   H883      1.0  0.41200590116036157  0.34035980431157126  0.5031816952146716  1.0000
  H   H884      1.0  0.48827676435682316  0.3224271716531585  0.4866232369065491  1.0000
  H   H885      1.0  0.4858321334729602  0.3608664480016511  0.47177875543569053  1.0000
  H   H886      1.0  0.4703438684892964  0.3673074951513267  0.49384297501461843  1.0000
  H   H887      1.0  0.42655692483129826  0.38545338994657175  0.4608103577623393  1.0000
  H   H888      1.0  0.40983490342205975  0.3920309546484196  0.4825233857709937  1.0000
  H   H889      1.0  0.3855807639651637  0.3646317822879776  0.4671192145308376  1.0000
  H   H890      1.0  0.41027417995770693  0.3050851831126025  0.45718887766380684  1.0000
  H   H891      1.0  0.450354649709557  0.28377893334077847  0.4667995171927085  1.0000
  H   H892      1.0  0.4541385405196529  0.32139009875779306  0.4518793885212065  1.0000
  N   N54       1.0  0.30645446720545133  0.9816851337958451  0.7925778782184886  1.0000
  C   C597      1.0  0.2786537857987839  0.9599413731684242  0.8012306445696546  1.0000
  C   C598      1.0  0.28846446173934265  0.010914532525868825  0.7816539131394135  1.0000
  C   C599      1.0  0.32953332507989036  0.9566961643193753  0.7814520135446729  1.0000
  C   C600      1.0  0.32924825629351395  0.9991257288788162  0.8058694239150246  1.0000
  H   H893      1.0  0.291354138753222  0.9376097545316122  0.8095744722186117  1.0000
  H   H894      1.0  0.2612036689434107  0.9461031602341465  0.7915550968612624  1.0000
  H   H895      1.0  0.26051725317315355  0.9778298907223999  0.809690241755933  1.0000
  H   H896      1.0  0.27061858026121305  0.9986650280117885  0.7716652668138364  1.0000
  H   H897      1.0  0.27127327957219255  0.030807057540596764  0.7895936855753576  1.0000
  H   H898      1.0  0.3087706742785002  0.027047078900032773  0.7745377335358924  1.0000
  H   H899      1.0  0.35110303087787403  0.9720184535499522  0.7748707388154897  1.0000
  H   H900      1.0  0.31338688553574134  0.9437955878280708  0.771062567777855  1.0000
  H   H901      1.0  0.3430750335552921  0.9337582340547459  0.7890765386675288  1.0000
  H   H902      1.0  0.3517726014527957  0.014063230170687115  0.799778744992799  1.0000
  H   H903      1.0  0.3420011471061499  0.9779503274674024  0.8147842978385558  1.0000
  H   H904      1.0  0.3130624742798546  0.019398826512381232  0.8140607596943927  1.0000
  N   N55       1.0  0.037856142015398886  0.10719398717603935  0.08775415872525401  1.0000
  C   C601      1.0  0.02651868949537728  0.07465212457579563  0.09772031343034952  1.0000
  C   C602      1.0  0.03744963981045779  0.09869469215216872  0.06889113370516578  1.0000
  C   C603      1.0  0.07502033708680456  0.11614429611932886  0.09300213650940146  1.0000
  C   C604      1.0  0.012560339046221447  0.13945023757721925  0.09143349646243397  1.0000
  H   H905      1.0  0.027427008349285797  0.07993792399982502  0.11203167041160479  1.0000
  H   H906      1.0  0.04464367873524222  0.04961394462297353  0.09504787049367315  1.0000
  H   H907      1.0  0.998300650214571  0.06751691314911445  0.09443708107790105  1.0000
  H   H908      1.0  0.045670480478090525  0.12284388743597965  0.061020497031697485  1.0000
  H   H909      1.0  0.05682668747428021  0.07496258432042402  0.06561325537739435  1.0000
  H   H910      1.0  0.010035300082847032  0.09122582162472348  0.06443831370088583  1.0000
  H   H911      1.0  0.08513526878696331  0.1391599271227079  0.08503041750872524  1.0000
  H   H912      1.0  0.09462989168255898  0.09195194982522868  0.09124702028830972  1.0000
  H   H913      1.0  0.07621187308036403  0.12472954327683666  0.10692623757297094  1.0000
  H   H914      1.0  0.98453464306043  0.13451238224365578  0.08689259417372064  1.0000
  H   H915      1.0  0.02149271118145979  0.16514042515873428  0.0849893954439785  1.0000
  H   H916      1.0  0.01088365132508784  0.14531340014423155  0.10566020749859083  1.0000
  N   N56       1.0  0.7868764761290928  0.9862323115577408  0.8668156149531132  1.0000
  C   C605      1.0  0.8030752638540434  0.01997450289196112  0.873843805817747  1.0000
  C   C606      1.0  0.7472262511448008  0.9885211020057675  0.8698911259786418  1.0000
  C   C607      1.0  0.8030366526575562  0.9529992112006332  0.8756672692847074  1.0000
  C   C608      1.0  0.7941154278458965  0.9832369691827548  0.8479148019219851  1.0000
  H   H917      1.0  0.7910719533864243  0.04568056043630265  0.8676917496397024  1.0000
  H   H918      1.0  0.8329175547563192  0.01938662443697714  0.8715650574018958  1.0000
  H   H919      1.0  0.7987908111556276  0.02257646958116144  0.8881668071426952  1.0000
  H   H920      1.0  0.7338804556641161  0.012984763500957675  0.8632459946097535  1.0000
  H   H921      1.0  0.7343280347634632  0.963056552585473  0.8650829771276595  1.0000
  H   H922      1.0  0.740987192014471  0.9912827569793825  0.8840602326293366  1.0000
  H   H923      1.0  0.7976188909111903  0.9540223326826106  0.8898531947718188  1.0000
  H   H924      1.0  0.8329412324687415  0.95082798146775  0.8741532856991446  1.0000
  H   H925      1.0  0.7921363590050587  0.9269091187787898  0.870434263111198  1.0000
  H   H926      1.0  0.7818147958671235  0.007530037726833472  0.8407373432545318  1.0000
  H   H927      1.0  0.7830919829367239  0.9574934932533926  0.8423252741192171  1.0000
  H   H928      1.0  0.8238211960822017  0.9820051486516945  0.8451764780965272  1.0000
  N   N57       1.0  0.48146477511418684  0.04711532133636021  0.5261699687830704  1.0000
  C   C609      1.0  0.4566982593007743  0.078819250636188  0.5313633242495276  1.0000
  C   C610      1.0  0.5192554256217168  0.055379441204753466  0.5306405295556968  1.0000
  C   C611      1.0  0.4785742834965856  0.04091001995336719  0.5071770321974588  1.0000
  C   C612      1.0  0.47144739456989104  0.013285200446595534  0.535514876855888  1.0000
  H   H929      1.0  0.4278196696629709  0.07336430219317869  0.528564461417238  1.0000
  H   H930      1.0  0.4631539399641322  0.1045712323701753  0.5242813652824642  1.0000
  H   H931      1.0  0.4591460674279119  0.08525641859757949  0.5455107301413046  1.0000
  H   H932      1.0  0.5384540307553722  0.03143071839255929  0.5275182470496125  1.0000
  H   H933      1.0  0.5282203619473799  0.08001421177162162  0.523348963193073  1.0000
  H   H934      1.0  0.5221769838203691  0.06190625238150305  0.544747904221991  1.0000
  H   H935      1.0  0.4955049354161086  0.01600319128205485  0.5029739049741327  1.0000
  H   H936      1.0  0.4879772152964836  0.06511748435850162  0.49968751448477794  1.0000
  H   H937      1.0  0.45008972625010557  0.03646634131084303  0.5031719221095483  1.0000
  H   H938      1.0  0.4431361305253035  0.00605165268358232  0.5324121685992972  1.0000
  H   H939      1.0  0.4734312426970497  0.01710793130414401  0.5498815784704346  1.0000
  H   H940      1.0  0.4898141986367699  0.9888977121434243  0.5318959051961367  1.0000
  N   N58       1.0  0.8294427796940776  0.21718832959248427  0.5088911238390225  1.0000
  C   C613      1.0  0.83599576560951  0.17721617100145354  0.5048669289946355  1.0000
  C   C614      1.0  0.8509789768299624  0.22703195786068162  0.5243378809052315  1.0000
  C   C615      1.0  0.7903958752320154  0.22493318829482598  0.5125394190556297  1.0000
  C   C616      1.0  0.8404397524790405  0.23962769156930924  0.4938622732397753  1.0000
  H   H941      1.0  0.8285679472666883  0.1594431045316228  0.5160053540553144  1.0000
  H   H942      1.0  0.8650822408878561  0.17060298772954532  0.5016076481778555  1.0000
  H   H943      1.0  0.819730325721115  0.16878075366694978  0.4934029782231962  1.0000
  H   H944      1.0  0.8436838509839713  0.21054901546772098  0.5359359137478465  1.0000
  H   H945      1.0  0.8806579851009064  0.22230030050046426  0.5219343471690369  1.0000
  H   H946      1.0  0.8463563206376414  0.2569508864695749  0.5277876213748726  1.0000
  H   H947      1.0  0.7844991490618141  0.25483448652774704  0.5156289607734568  1.0000
  H   H948      1.0  0.7811179582914646  0.2087374880123762  0.5238884908235798  1.0000
  H   H949      1.0  0.7731562551419149  0.21791014772025824  0.5012245148836021  1.0000
  H   H950      1.0  0.8338249265392081  0.2697785898867581  0.49600069614285947  1.0000
  H   H951      1.0  0.8265582972056027  0.23145445994537106  0.4817189505412802  1.0000
  H   H952      1.0  0.870214580775386  0.23614768312426032  0.49136895125664454  1.0000
  N   N59       1.0  0.6640103846564392  0.01459653544588524  0.4551821887921585  1.0000
  C   C617      1.0  0.6949871952826013  0.023745148835301322  0.4664065483499736  1.0000
  C   C618      1.0  0.6445942572662576  0.9838728741034488  0.4630893720957388  1.0000
  C   C619      1.0  0.6775775543796226  0.003287642265037638  0.43775074324082985  1.0000
  C   C620      1.0  0.6388200362986972  0.047640591021175016  0.4535012154993157  1.0000
  H   H953      1.0  0.7094244538525367  0.04783656968164385  0.46119665124765535  1.0000
  H   H954      1.0  0.715117364621414  0.9998048862583435  0.4676259374752856  1.0000
  H   H955      1.0  0.6857924571001963  0.03136748613240625  0.4798071543164997  1.0000
  H   H956      1.0  0.6207200339898044  0.9764994195564314  0.45511965677110056  1.0000
  H   H957      1.0  0.6626725346961996  0.9583820542625783  0.46463530020870725  1.0000
  H   H958      1.0  0.6340732655169435  0.9917001195748357  0.47625951272174727  1.0000
  H   H959      1.0  0.6548420789889152  0.9964740115011494  0.42891821309966427  1.0000
  H   H960      1.0  0.6966157353912137  0.9783244103195835  0.43849422417046713  1.0000
  H   H961      1.0  0.6924222562672601  0.026012897666942703  0.43153894028321216  1.0000
  H   H962      1.0  0.6523150893543517  0.07149293624216746  0.4475503720006739  1.0000
  H   H963      1.0  0.6284803268280023  0.057092658967084375  0.4664210750396606  1.0000
  H   H964      1.0  0.6147855021955129  0.04185052509701759  0.44532509294543104  1.0000
  N   N60       1.0  0.054829654656295634  0.4712653934793314  0.15900489200715148  1.0000
  C   C621      1.0  0.0801125487023222  0.48370450025639417  0.14551733984591492  1.0000
  C   C622      1.0  0.07543422712581305  0.46119834131636694  0.1749541570746866  1.0000
  C   C623      1.0  0.036153349090252807  0.4384374274938251  0.15260387192444563  1.0000
  C   C624      1.0  0.027712678562017645  0.5017698414591256  0.1630235687131132  1.0000
  H   H965      1.0  0.06543860062704532  0.4916073318999926  0.13330465628077826  1.0000
  H   H966      1.0  0.10118797108956112  0.46147610351504786  0.1422859538884672  1.0000
  H   H967      1.0  0.09463376664692502  0.5084467903772196  0.14996437437797713  1.0000
  H   H968      1.0  0.09735448625077536  0.43947752792256983  0.17227004314420571  1.0000
  H   H969      1.0  0.08862002928160395  0.4857269757544411  0.18046822788740502  1.0000
  H   H970      1.0  0.05739339086817519  0.45026406945347447  0.1851725686276321  1.0000
  H   H971      1.0  0.017042053450925243  0.4281909563087622  0.1625457494926486  1.0000
  H   H972      1.0  0.05589774614482357  0.41486112059040325  0.14951328912323755  1.0000
  H   H973      1.0  0.02010041834106402  0.4449487124148576  0.14062235837605216  1.0000
  H   H974      1.0  0.008410204621071893  0.49373401897041763  0.17334938984473536  1.0000
  H   H975      1.0  0.011244678622214677  0.5101430512478794  0.15138660760247544  1.0000
  H   H976      1.0  0.04093312446983455  0.5271287985399926  0.16773652038965248  1.0000
  N   N61       1.0  0.017925915633745904  0.9479644127457256  0.973475868121929  1.0000
  C   C625      1.0  0.05402288527253307  0.9572005468000887  0.9668663449118419  1.0000
  C   C626      1.0  0.9966527036888061  0.9322176746607665  0.9591586138407648  1.0000
  C   C627      1.0  0.9987443947097769  0.9820020505243993  0.9803154692788545  1.0000
  C   C628      1.0  0.022295844012321098  0.9203244496203022  0.9875911246691261  1.0000
  H   H977      1.0  0.05176195570302178  0.9768320810392342  0.9557377531025983  1.0000
  H   H978      1.0  0.06986744366371478  0.9319513007397879  0.9621760042548287  1.0000
  H   H979      1.0  0.07020065385199414  0.9705826443394836  0.9771419866411034  1.0000
  H   H980      1.0  0.9681858108110328  0.9278357076706971  0.9632173426942936  1.0000
  H   H981      1.0  0.9950053709563288  0.9510206807989664  0.9477154648700841  1.0000
  H   H982      1.0  0.008736558025733698  0.9048293523192444  0.9547552872718739  1.0000
  H   H983      1.0  0.9709537949902564  0.9762037068690859  0.9849289740605699  1.0000
  H   H984      1.0  0.995405488239618  0.0036440828212478404  0.970087532275549  1.0000
  H   H985      1.0  0.013788878629908075  0.9942083273637359  0.9913497106579868  1.0000
  H   H986      1.0  0.9954605634290232  0.9118845910113615  0.9924447856358012  1.0000
  H   H987      1.0  0.03759745914618762  0.9314200266692821  0.9988137309179138  1.0000
  H   H988      1.0  0.0373964473084889  0.8946450174828378  0.9829584424241943  1.0000
  N   N62       1.0  0.14154007803108204  0.08096829055133004  0.9542061115831642  1.0000
  C   C629      1.0  0.12725551296551285  0.07592703624584396  0.9719975101123544  1.0000
  C   C630      1.0  0.11847256810261508  0.10931649380842967  0.9449568023890711  1.0000
  C   C631      1.0  0.14124379852154623  0.04530227834147027  0.9445987615980905  1.0000
  C   C632      1.0  0.17919159750165647  0.09326346807804375  0.9552528170621862  1.0000
  H   H989      1.0  0.14321322900768418  0.053657807089087184  0.9791047664886868  1.0000
  H   H990      1.0  0.09845066195647512  0.06793590667055227  0.9717261939398578  1.0000
  H   H991      1.0  0.12821958723620508  0.10197964751859057  0.9798348422940578  1.0000
  H   H992      1.0  0.08985275254327707  0.1009431576890687  0.9439359512561943  1.0000
  H   H993      1.0  0.11801624076862272  0.1366418740212163  0.9518018892030546  1.0000
  H   H994      1.0  0.12831950737213815  0.11376046861564948  0.9314616305499919  1.0000
  H   H995      1.0  0.1496587833531957  0.048453098231405756  0.9307806201395943  1.0000
  H   H996      1.0  0.11365856155825549  0.03398485178709709  0.9444863751089575  1.0000
  H   H997      1.0  0.16007474921571996  0.023863528746234097  0.9505692772250448  1.0000
  H   H998      1.0  0.19121760420282308  0.09672251701362078  0.9421024396956332  1.0000
  H   H999      1.0  0.1972352647355866  0.07279419144507626  0.9624028048155742  1.0000
  H   H1000     1.0  0.18052520923373816  0.12037792070979747  0.962216894724623  1.0000
  N   N63       1.0  0.022859981585831687  0.7409040572283274  0.9440196101199272  1.0000
  C   C633      1.0  0.9973030970638881  0.7735511688464277  0.9463782114863527  1.0000
  C   C634      1.0  0.05947578000573727  0.7504688139528384  0.949816618840944  1.0000
  C   C635      1.0  0.024311963875599092  0.7302168217473077  0.925422056932313  1.0000
  C   C636      1.0  0.010614070579442638  0.7094342867766239  0.9544628590802555  1.0000
  H   H1001     1.0  0.969365822107415  0.7676618194438241  0.9420015164553395  1.0000
  H   H1002     1.0  0.006160932659942773  0.7980659592637681  0.9389371418106934  1.0000
  H   H1003     1.0  0.9954105251021019  0.7820773311454808  0.9603092989866988  1.0000
  H   H1004     1.0  0.0790930764539226  0.7259035731196936  0.9490331664484319  1.0000
  H   H1005     1.0  0.07018089020459284  0.7729546219655502  0.9417307443974903  1.0000
  H   H1006     1.0  0.05906455652724363  0.7606828817441101  0.9634718455548325  1.0000
  H   H1007     1.0  0.03321367750206728  0.7535773416073293  0.9172227638617653  1.0000
  H   H1008     1.0  0.9972917876197187  0.7223265524090545  0.920589315361176  1.0000
  H   H1009     1.0  0.043918216645237866  0.7060432460841521  0.9231970830622721  1.0000
  H   H1010     1.0  0.029986771345244623  0.6846981546819398  0.9533801177459421  1.0000
  H   H1011     1.0  0.9833764857404894  0.7008652616982108  0.950235480602959  1.0000
  H   H1012     1.0  0.008660147064876833  0.7168392049961163  0.9685372414812756  1.0000
  N   N64       1.0  0.3279737698597944  0.8102958385557129  0.8169719497040333  1.0000
  C   C637      1.0  0.3061599653837055  0.8109934371023588  0.8331468877301366  1.0000
  C   C638      1.0  0.3068577428940606  0.7945507911384108  0.8025745050977335  1.0000
  C   C639      1.0  0.3617476019579833  0.7871131747472132  0.8196560161255532  1.0000
  C   C640      1.0  0.3372226965137211  0.8486244367987906  0.8125538562713255  1.0000
  H   H1013     1.0  0.2802682902506649  0.8277405317068393  0.8315839988722962  1.0000
  H   H1014     1.0  0.32094719387917975  0.8236241238773825  0.8441449236106833  1.0000
  H   H1015     1.0  0.29932540028109694  0.7825244437238675  0.837217900742983  1.0000
  H   H1016     1.0  0.2986829203784997  0.7659450945584133  0.8056512488823591  1.0000
  H   H1017     1.0  0.2816019105125137  0.8118444626454211  0.7999931860585063  1.0000
  H   H1018     1.0  0.32266852157790527  0.7932091024866931  0.7901986447914592  1.0000
  H   H1019     1.0  0.3785664880338245  0.7852754076871294  0.807624791677094  1.0000
  H   H1020     1.0  0.35579802607417543  0.7583476827533004  0.8236807522128841  1.0000
  H   H1021     1.0  0.3786833277997443  0.7988066303187441  0.8301378126029391  1.0000
  H   H1022     1.0  0.35417948847237435  0.8493336080891146  0.8005700932906312  1.0000
  H   H1023     1.0  0.3527285242563843  0.8614147167923265  0.8232841166943793  1.0000
  H   H1024     1.0  0.31235235834730174  0.8667873119978028  0.8103152780866912  1.0000
