data_image0
_chemical_formula_structural       FeS2FeS2FeSFeS3FeS2FeS2FeSFeS3FeS2FeS2FeSFeS3FeS2FeS2FeSFeS3FeS2FeS2FeSFeS3FeS2FeS2FeSFeS3FeS2FeS2FeSFeS3FeS2FeS2FeSFeS3FeS2FeS2FeSFeS3FeS2FeS2FeSFeS3FeS2FeS2FeSFeS3FeS2FeS2FeSFeS3FeS2FeS2FeSFeS3FeS2FeS2FeSFeS3FeS2FeS2FeSFeS3FeS2FeS2FeSFeS3C6H4C6H4C6H4C6H4C6H4C6H4C6H4C6H4C6H4C6H4C6H4C6H4C6H4C6H4C6H4C6H4C6H4C6H4C6H4C6H4C6H4C6H4C6H4C6H4C6H4C6H4C6H4C6H4C6H4C6H4C6H4C6H4FeS2FeS2FeSFeS3FeS2FeS2FeSFeS3FeS2FeS2FeSFeS3FeS2FeS2FeSFeS3FeS2FeS2FeSFeS3FeS2FeS2FeSFeS3FeS2FeS2FeSFeS3FeS2FeS2FeSFeS3FeS2FeS2FeSFeS3FeS2FeS2FeSFeS3FeS2FeS2FeSFeS3FeS2FeS2FeSFeS3FeS2FeS2FeSFeS3FeS2FeS2FeSFeS3FeS2FeS2FeSFeS3FeS2FeS2FeSFeS3C6H4C6H4C6H4C6H4C6H4C6H4C6H4C6H4C6H4C6H4C6H4C6H4C6H4C6H4C6H4C6H4C6H4C6H4C6H4C6H4C6H4C6H4C6H4C6H4C6H4C6H4C6H4C6H4C6H4C6H4C6H4C6H4NC4H12NC4H12NC4H12NC4H12NC4H12NC4H12NC4H12NC4H12NC4H12NC4H12NC4H12NC4H12NC4H12NC4H12NC4H12NC4H12NC4H12NC4H12NC4H12NC4H12NC4H12NC4H12NC4H12NC4H12NC4H12NC4H12NC4H12NC4H12NC4H12NC4H12NC4H12NC4H12NC4H12NC4H12NC4H12NC4H12NC4H12NC4H12NC4H12NC4H12NC4H12NC4H12NC4H12NC4H12NC4H12NC4H12NC4H12NC4H12NC4H12NC4H12NC4H12NC4H12NC4H12NC4H12NC4H12NC4H12NC4H12NC4H12NC4H12NC4H12NC4H12NC4H12NC4H12NC4H12
_chemical_formula_sum              "Fe128 S256 C640 H1024 N64"
_cell_length_a       43.22634074710042
_cell_length_b       35.25435008703488
_cell_length_c       36.61727633157883
_cell_angle_alpha    89.70864822340421
_cell_angle_beta     90.07583901373597
_cell_angle_gamma    89.88697203205675

_space_group_name_H-M_alt    "P 1"
_space_group_IT_number       1

loop_
  _space_group_symop_operation_xyz
  'x, y, z'

loop_
  _atom_site_type_symbol
  _atom_site_label
  _atom_site_symmetry_multiplicity
  _atom_site_fract_x
  _atom_site_fract_y
  _atom_site_fract_z
  _atom_site_occupancy
  Fe  Fe1       1.0  0.03857699815955607  0.5573388776857942  0.09605518067540486  1.0000
  S   S1        1.0  0.5631435555480034  0.5033095998754618  0.024032515798961818  1.0000
  S   S2        1.0  0.05051714617166204  0.5837083094405544  0.14984169633158406  1.0000
  Fe  Fe2       1.0  0.01157603751015035  0.48737340550594044  0.06127880947273878  1.0000
  S   S3        1.0  0.022402225851950286  0.5069528109705621  0.0044574048138574796  1.0000
  S   S4        1.0  0.9939287409151412  0.42934877374508185  0.07483917458632594  1.0000
  Fe  Fe3       1.0  0.06768981388608443  0.5254581191142974  0.027822591517080886  1.0000
  S   S5        1.0  0.11232295351021779  0.5189026448016781  0.9976603857067706  1.0000
  Fe  Fe4       1.0  0.5307398294449707  0.48629700921427577  0.06891038773404023  1.0000
  S   S6        1.0  0.48568240059388174  0.45688340965989105  0.05949441612264006  1.0000
  S   S7        1.0  0.05854700710726268  0.500549533793335  0.08301855696332838  1.0000
  S   S8        1.0  0.5313370913832859  0.5423688449920001  0.09714057029547662  1.0000
  Fe  Fe5       1.0  0.4365814387413149  0.45024386261588606  0.7445076005646575  1.0000
  S   S9        1.0  0.44248017755476315  0.5131377019829905  0.7484917156288874  1.0000
  S   S10       1.0  0.46145329396550455  0.4196066834910379  0.6996439968217633  1.0000
  Fe  Fe6       1.0  0.3948012872912978  0.44656611890754594  0.810103544572487  1.0000
  S   S11       1.0  0.39705825739382494  0.5091380712897912  0.8204035259580588  1.0000
  S   S12       1.0  0.36973752035521157  0.40715596637904666  0.847802747535537  1.0000
  Fe  Fe7       1.0  0.3915780219967289  0.5141708498042357  0.7597356436463206  1.0000
  S   S13       1.0  0.36235844961212343  0.5574486742630946  0.730521206916336  1.0000
  Fe  Fe8       1.0  0.4475092639901622  0.5027791127884258  0.8085373041614503  1.0000
  S   S14       1.0  0.48161568001038846  0.5357714416630954  0.842080630743011  1.0000
  S   S15       1.0  0.38488833621482504  0.45200595822899886  0.7502168995982818  1.0000
  S   S16       1.0  0.4460062890363121  0.43942464881146115  0.8038611182598742  1.0000
  Fe  Fe9       1.0  0.33068212837996563  0.5294028370729456  0.054116220390261205  1.0000
  S   S17       1.0  0.3373816926565234  0.4832076764177743  0.013013376034892499  1.0000
  S   S18       1.0  0.3712849135917437  0.568412657652092  0.06171479699188387  1.0000
  Fe  Fe10      1.0  0.26641087463064556  0.501816416077018  0.07448970963033519  1.0000
  S   S19       1.0  0.2686262861883213  0.45249269163340283  0.036067626643487394  1.0000
  S   S20       1.0  0.2238846283608302  0.5111164167852414  0.10846379917033833  1.0000
  Fe  Fe11      1.0  0.31724910361442205  0.4458028687850546  0.056370647984407274  1.0000
  S   S21       1.0  0.3370347208426969  0.3881993355698523  0.06889136365076376  1.0000
  Fe  Fe12      1.0  0.28838638648445425  0.49525535585827307  0.9971103678326622  1.0000
  S   S22       1.0  0.27422462137943243  0.5020706512851669  0.938543344878417  1.0000
  S   S23       1.0  0.31312188690106113  0.49128479923855956  0.09875957391161028  1.0000
  S   S24       1.0  0.2833045754534238  0.5452403497081716  0.03419122521949536  1.0000
  Fe  Fe13      1.0  0.19940287917365493  0.5984597674311415  0.767337146900329  1.0000
  S   S25       1.0  0.20128388064988373  0.6131186207039263  0.7079027512264182  1.0000
  S   S26       1.0  0.23783652626208973  0.6022000927866106  0.808385710124829  1.0000
  Fe  Fe14      1.0  0.6528954319387066  0.5210219968812818  0.8144881752951025  1.0000
  S   S27       1.0  0.6543926032846069  0.5726334115488964  0.7787710698522913  1.0000
  S   S28       1.0  0.616517231785827  0.4763763298353469  0.8092314325809408  1.0000
  Fe  Fe15      1.0  0.7040602112379674  0.5575648296223913  0.7700679254197365  1.0000
  S   S29       1.0  0.725758105009646  0.5622990041319085  0.7149055881148625  1.0000
  Fe  Fe16      1.0  0.6719496988247979  0.6015782398503587  0.8289038039870371  1.0000
  S   S30       1.0  0.6565525675479066  0.6609265146277532  0.8396105722319036  1.0000
  S   S31       1.0  0.7009063530028562  0.5029324372680016  0.8007196886744569  1.0000
  S   S32       1.0  0.6661920650197334  0.5511407048648043  0.8659853743541887  1.0000
  Fe  Fe17      1.0  0.5113039234257927  0.7389623166539657  0.7677294685260618  1.0000
  S   S33       1.0  0.4881230626721579  0.7417886911127313  0.7129651464474062  1.0000
  S   S34       1.0  0.5168366511384329  0.6825142327519355  0.7952930966130556  1.0000
  Fe  Fe18      1.0  0.519091030584116  0.8237188308119803  0.7725615905452107  1.0000
  S   S35       1.0  0.49671310329943513  0.8340292220567199  0.7182619114636779  1.0000
  S   S36       1.0  0.5351229907534337  0.8726124756591876  0.8063044385342799  1.0000
  Fe  Fe19      1.0  0.4624559918779678  0.7908347973751663  0.7370579657819135  1.0000
  S   S37       1.0  0.41245102152119906  0.8060198649066482  0.732543082965437  1.0000
  Fe  Fe20      1.0  0.03929556868798745  0.828964770075734  0.541269519962791  1.0000
  S   S38       1.0  0.08116365896002266  0.8496395358941081  0.511406063991174  1.0000
  S   S39       1.0  0.48245631580844633  0.784358613485884  0.7930624717317618  1.0000
  S   S40       1.0  0.03847217256684088  0.8153568190913444  0.6010913272114073  1.0000
  Fe  Fe21      1.0  0.27043757333016677  0.7570298361728017  0.28656659246733956  1.0000
  S   S41       1.0  0.2690189315878363  0.7172230252680776  0.23894531861389112  1.0000
  S   S42       1.0  0.29313882488947535  0.738690874389398  0.338657455649319  1.0000
  Fe  Fe22      1.0  0.2322016621798194  0.8175228933979949  0.248557703791339  1.0000
  S   S43       1.0  0.2279659294838774  0.7831483937205577  0.19750896201697427  1.0000
  S   S44       1.0  0.21083032344120559  0.8749459462138256  0.25752968265260595  1.0000
  Fe  Fe23      1.0  0.21921977772874954  0.7344385310097546  0.2354532675946094  1.0000
  S   S45       1.0  0.17914641602192613  0.6960883856886586  0.22368175591415737  1.0000
  Fe  Fe24      1.0  0.2781334884317347  0.7696871492319832  0.20583655702339076  1.0000
  S   S46       1.0  0.30938867877275134  0.7704476128296766  0.15666559781171016  1.0000
  S   S47       1.0  0.21982662552324866  0.7698772705068584  0.28606092133688815  1.0000
  S   S48       1.0  0.28334187640387826  0.8085495291733886  0.25389013445998765  1.0000
  Fe  Fe25      1.0  0.31135174010529837  0.7862488313151061  0.5706358011531348  1.0000
  S   S49       1.0  0.3204802101688767  0.8472513228348332  0.5572662602921786  1.0000
  S   S50       1.0  0.3499845042922919  0.7477201300225278  0.588059055042564  1.0000
  Fe  Fe26      1.0  0.24362272484077885  0.790479787455712  0.5512191345257685  1.0000
  S   S51       1.0  0.24640528601902847  0.8520082709342478  0.5361159905679147  1.0000
  S   S52       1.0  0.20081651463505804  0.7540840067670588  0.5475829890617356  1.0000
  Fe  Fe27      1.0  0.29071035522679456  0.837033100908106  0.5085393820538185  1.0000
  S   S53       1.0  0.29979555033520483  0.867618887991426  0.45594137736062834  1.0000
  Fe  Fe28      1.0  0.27568488141701697  0.8580451980655299  0.5858786411833182  1.0000
  S   S54       1.0  0.2711536013916176  0.9137144977276138  0.6143301565623301  1.0000
  S   S55       1.0  0.2855029798178272  0.774547783399088  0.5187655735141042  1.0000
  S   S56       1.0  0.2690004061852641  0.7977228678505766  0.6043528254434024  1.0000
  Fe  Fe29      1.0  0.4856235545394116  0.7713976916649338  0.11784948089569225  1.0000
  S   S57       1.0  0.47278949118492847  0.7789591660069273  0.17652615898932936  1.0000
  S   S58       1.0  0.4641622350976215  0.7213839933441915  0.08973906024574618  1.0000
  Fe  Fe30      1.0  0.5263235827183058  0.8414177201693142  0.11721285643629598  1.0000
  S   S59       1.0  0.5165714581639165  0.8550694493738428  0.17579751036898153  1.0000
  S   S60       1.0  0.5590678691657102  0.8812624121514219  0.08896248867875012  1.0000
  Fe  Fe31      1.0  0.03553990773564575  0.7867787222082528  0.28043398766344757  1.0000
  S   S61       1.0  0.07397741975163741  0.7702129590696635  0.31811555243079187  1.0000
  Fe  Fe32      1.0  0.46780436615673954  0.8401996597531953  0.16153338674421203  1.0000
  S   S62       1.0  0.42678673375350196  0.872709486780642  0.18131800438426865  1.0000
  S   S63       1.0  0.042902760678595664  0.8138603908742381  0.2256419989362616  1.0000
  S   S64       1.0  0.47658694220283154  0.8318888413814798  0.10190609547793494  1.0000
  Fe  Fe33      1.0  0.2094922058128766  0.0005186581402549795  0.10236259520414981  1.0000
  S   S65       1.0  0.23688574506971832  0.010647806012165528  0.05148841216427047  1.0000
  S   S66       1.0  0.18157230674163563  0.9473057934969012  0.10498504962605626  1.0000
  Fe  Fe34      1.0  0.23014546706762845  0.0732866939953909  0.13749823456374255  1.0000
  S   S67       1.0  0.2597146672506402  0.08995133796760668  0.08968243145316679  1.0000
  S   S68       1.0  0.22313486156199452  0.11218298853921249  0.18500009496684267  1.0000
  Fe  Fe35      1.0  0.2198829820882011  0.07026188459365867  0.05607156912706146  1.0000
  S   S69       1.0  0.2056092738801939  0.10631396569929596  0.008579917876300414  1.0000
  Fe  Fe36      1.0  0.27431545841749483  0.02890254384357993  0.0898649173793673  1.0000
  S   S70       1.0  0.32223916776420347  0.0073735742823497485  0.07837518245526875  1.0000
  S   S71       1.0  0.18881162324516249  0.05864455798973345  0.10377624263258145  1.0000
  S   S72       1.0  0.248379226315671  0.013686860531109346  0.14080585835005  1.0000
  Fe  Fe37      1.0  0.6161148408091144  0.033550651461701  0.7230315851268735  1.0000
  S   S73       1.0  0.603778241237024  0.07452181447375983  0.6786940342225628  1.0000
  S   S74       1.0  0.6227859959580394  0.9726862466994167  0.7080766160359309  1.0000
  Fe  Fe38      1.0  0.619867007670924  0.09406214785434086  0.780762873271493  1.0000
  S   S75       1.0  0.6082324776492845  0.1415758445692652  0.74173148680105  1.0000
  S   S76       1.0  0.629423565307991  0.09994964271391216  0.8408631404683492  1.0000
  Fe  Fe39      1.0  0.572806258028233  0.10112271273165852  0.7201086669664557  1.0000
  S   S77       1.0  0.5254922612072046  0.11830671738397269  0.7017580674569243  1.0000
  Fe  Fe40      1.0  0.14266816619837042  0.080337703914932  0.7596046007539827  1.0000
  S   S78       1.0  0.18644463811286446  0.11240980725993754  0.74934832470947  1.0000
  S   S79       1.0  0.5811773053174277  0.056242685435918816  0.7625122251171224  1.0000
  S   S80       1.0  0.1442473433997036  0.018554014332495594  0.7737348960365025  1.0000
  Fe  Fe41      1.0  0.4901934201928783  0.05204239598471694  0.0032691791180770036  1.0000
  S   S81       1.0  0.4888207920669088  0.0732534946737815  0.06080349871330881  1.0000
  S   S82       1.0  0.48115148458018486  0.9914012668381714  0.9885837704834544  1.0000
  Fe  Fe42      1.0  0.5026396771563034  0.12980706641145878  0.9714117924129608  1.0000
  S   S83       1.0  0.5019316360551216  0.15831586812970366  0.02599803615979268  1.0000
  S   S84       1.0  0.5086180177924394  0.1595496255263713  0.9176747420346898  1.0000
  Fe  Fe43      1.0  0.04212743261731  0.11685510703129509  0.05679142875875409  1.0000
  S   S85       1.0  0.07413290687403373  0.16672114171819574  0.05289623268962074  1.0000
  Fe  Fe44      1.0  0.461048887539746  0.1210675984380003  0.03717637176891553  1.0000
  S   S86       1.0  0.41878435201297287  0.1407275015775975  0.06693962984446156  1.0000
  S   S87       1.0  0.05083312496141801  0.06589697558535268  0.02198231520643268  1.0000
  S   S88       1.0  0.45898792911729286  0.09712560109307145  0.9807858254219698  1.0000
  Fe  Fe45      1.0  0.32308472731880916  0.046802225975520084  0.8274644937815525  1.0000
  S   S89       1.0  0.3040710033647069  0.02081750384083003  0.7767152674755587  1.0000
  S   S90       1.0  0.28665863430998023  0.06680268744224005  0.8661970579422626  1.0000
  Fe  Fe46      1.0  0.38884214869319594  0.03730884784723365  0.802717641205698  1.0000
  S   S91       1.0  0.37575200335011577  0.011214338748642083  0.7492898727383331  1.0000
  S   S92       1.0  0.43798992427171457  0.0455801546721637  0.8202709217372218  1.0000
  Fe  Fe47      1.0  0.338973875851715  0.056182622132673554  0.747504208087853  1.0000
  S   S93       1.0  0.3206780996735565  0.08710898727180272  0.6981495103821708  1.0000
  Fe  Fe48      1.0  0.34185038707059784  0.9783350234152784  0.7828019453654391  1.0000
  S   S94       1.0  0.3327357967793118  0.9175331670580611  0.769816906263762  1.0000
  S   S95       1.0  0.35545248742996866  0.0858851087353032  0.7978907481599754  1.0000
  S   S96       1.0  0.35779247805024406  0.00044770775847813304  0.8368637242318704  1.0000
  Fe  Fe49      1.0  0.413579858638472  0.17533347713117342  0.5641157155503751  1.0000
  S   S97       1.0  0.4152007054911713  0.20099001878838604  0.5081214802343712  1.0000
  S   S98       1.0  0.42009753416061985  0.11342541374180737  0.5762368873472153  1.0000
  Fe  Fe50      1.0  0.40090557447698183  0.25046780032831695  0.6011659793584508  1.0000
  S   S99       1.0  0.4009301133046543  0.28320731635565294  0.5484833191055972  1.0000
  S   S100      1.0  0.38763689289545444  0.2723384346254592  0.6563536444524833  1.0000
  Fe  Fe51      1.0  0.3739167803729651  0.2341798233934437  0.526539731372596  1.0000
  S   S101      1.0  0.33275334919008387  0.24487138953317064  0.490816540691988  1.0000
  Fe  Fe52      1.0  0.44228130672681226  0.24751348370300105  0.5347991583086543  1.0000
  S   S102      1.0  0.48238060964179985  0.2725460920600099  0.5039929705897618  1.0000
  S   S103      1.0  0.37000097314327074  0.2049013991585301  0.580510137947362  1.0000
  S   S104      1.0  0.44473619244601387  0.21855165003232807  0.5895591888833943  1.0000
  Fe  Fe53      1.0  0.08329595796271964  0.29322750016048205  0.3032949605446214  1.0000
  S   S105      1.0  0.10609853068448677  0.2547441290271223  0.26300204931805754  1.0000
  S   S106      1.0  0.07676421519723964  0.2780640136104857  0.3620086790141808  1.0000
  Fe  Fe54      1.0  0.0571162469013744  0.3447886725662564  0.24464190242125408  1.0000
  S   S107      1.0  0.07719224723939  0.3108310657400784  0.1987195096913771  1.0000
  S   S108      1.0  0.030243869915727473  0.3987645243624369  0.23908340034352155  1.0000
  Fe  Fe55      1.0  0.5610645176897832  0.2531272338047077  0.260165884840306  1.0000
  S   S109      1.0  0.5303671543855473  0.20645623301500696  0.24067489989707652  1.0000
  Fe  Fe56      1.0  0.11928642805740615  0.3086872385490794  0.2343598337622943  1.0000
  S   S110      1.0  0.1656334271328825  0.31536055878034336  0.20810448249161737  1.0000
  S   S111      1.0  0.5460122481125468  0.28541713235030647  0.3094885149118612  1.0000
  S   S112      1.0  0.10057636005768271  0.3470338625516039  0.27781249285631787  1.0000
  Fe  Fe57      1.0  0.6617906786022552  0.3919494308867155  0.5215808251481806  1.0000
  S   S113      1.0  0.668151808674943  0.3411191358391233  0.5579002796064997  1.0000
  S   S114      1.0  0.6743096358361367  0.38965335349337726  0.4624154333799402  1.0000
  Fe  Fe58      1.0  0.6449008594729672  0.4433848735915085  0.5835256873449169  1.0000
  S   S115      1.0  0.6512231819998158  0.3980499650591143  0.6257361884734555  1.0000
  S   S116      1.0  0.6293920225594037  0.5007668977105396  0.6009964086222168  1.0000
  Fe  Fe59      1.0  0.18138480875096594  0.25474452962707134  0.5811697124544893  1.0000
  S   S117      1.0  0.21820867176521455  0.21104657227589282  0.591006714053035  1.0000
  Fe  Fe60      1.0  0.6253062168413348  0.36182257052093536  0.5860768697591677  1.0000
  S   S118      1.0  0.5873921494759219  0.32719572348655207  0.6115633860754052  1.0000
  S   S119      1.0  0.18896564043396596  0.31769650574021513  0.5799037076083223  1.0000
  S   S120      1.0  0.6160019359571138  0.40857165815054236  0.5457423856062913  1.0000
  Fe  Fe61      1.0  0.31650326416913216  0.2956842919697212  0.29589242399077803  1.0000
  S   S121      1.0  0.32329751847378696  0.30735743123508963  0.2360290562225706  1.0000
  S   S122      1.0  0.2724182271025857  0.3095670993021628  0.32537311122630425  1.0000
  Fe  Fe62      1.0  0.38100189595531486  0.26492254598764825  0.30616696935501925  1.0000
  S   S123      1.0  0.39369037397559603  0.2741032950204646  0.24769591959028175  1.0000
  S   S124      1.0  0.415821801307901  0.23629431147727978  0.34212263363829787  1.0000
  Fe  Fe63      1.0  0.3694766684797221  0.32950813841675836  0.2534665911857411  1.0000
  S   S125      1.0  0.3891589891963524  0.382327998952283  0.22914629811402382  1.0000
  Fe  Fe64      1.0  0.34684377954038814  0.2506425363701491  0.23601613369651087  1.0000
  S   S126      1.0  0.3462657484008392  0.2067919791415481  0.1923539173279785  1.0000
  S   S127      1.0  0.36094978509282805  0.3230108903173732  0.3133771832126726  1.0000
  S   S128      1.0  0.33588472721911655  0.23670113817182659  0.29424408241456623  1.0000
  C   C1        1.0  0.4964822675695821  0.21322944523093645  0.2657981014162792  1.0000
  C   C2        1.0  0.48462776513131767  0.24991491796722562  0.26942528050955067  1.0000
  C   C3        1.0  0.45988648450208297  0.2568225032257777  0.29301890590634383  1.0000
  C   C4        1.0  0.44686851767127417  0.2270298985328318  0.31298950286048094  1.0000
  C   C5        1.0  0.45817877045744454  0.19006359751522356  0.3088112717080029  1.0000
  C   C6        1.0  0.48293105477966997  0.18309536987049824  0.28493422301321364  1.0000
  H   H1        1.0  0.4949466628225697  0.27323072953586686  0.2544851256392726  1.0000
  H   H2        1.0  0.4511140983089111  0.2854079265109497  0.296083601376633  1.0000
  H   H3        1.0  0.44778846045131976  0.16691026308436197  0.32390890279308937  1.0000
  H   H4        1.0  0.49221163595767486  0.1547151701351437  0.28226232716624616  1.0000
  C   C7        1.0  0.2417605308197714  0.30884524195193036  0.29400533550043806  1.0000
  C   C8        1.0  0.2139727879947078  0.3274847617632137  0.3019182218860794  1.0000
  C   C9        1.0  0.19010190255713982  0.3285653037322194  0.27592839856498086  1.0000
  C   C10       1.0  0.1942136001659082  0.31146733004652494  0.24185514068704422  1.0000
  C   C11       1.0  0.2216725301567893  0.29203516054085205  0.2343402135997376  1.0000
  C   C12       1.0  0.24527048264782284  0.29043192671446905  0.2605518295303051  1.0000
  H   H5        1.0  0.21118559014576768  0.3419546735993842  0.32767218807660037  1.0000
  H   H6        1.0  0.16896321078998083  0.34369684420399516  0.28186797824038223  1.0000
  H   H7        1.0  0.22467123644663928  0.2779951519879678  0.20835478686878248  1.0000
  H   H8        1.0  0.2660985557714153  0.2746434093958611  0.2549635440146729  1.0000
  C   C13       1.0  0.6223962367676363  0.29250254232064316  0.40988402717251465  1.0000
  C   C14       1.0  0.09725330984590852  0.2911550898705859  0.4305887443188867  1.0000
  C   C15       1.0  0.11674352192879646  0.3071447842309358  0.45674695854424663  1.0000
  C   C16       1.0  0.6553702912310629  0.3511870385510016  0.4428458758712519  1.0000
  C   C17       1.0  0.6619401302066141  0.34099019533134217  0.40685017581421656  1.0000
  C   C18       1.0  0.6455556558692036  0.31142213535041896  0.3904812478962884  1.0000
  H   H9        1.0  0.07978769556475916  0.27094395955515727  0.4389571060439276  1.0000
  H   H10       1.0  0.1141004048183996  0.2993005300153706  0.48503736763178934  1.0000
  H   H11       1.0  0.6793936608346972  0.3561102363764899  0.3914549265806348  1.0000
  H   H12       1.0  0.6507160353337486  0.3033302042604618  0.3627924763221769  1.0000
  C   C19       1.0  0.29970379762300764  0.23340518231262822  0.5158394615409776  1.0000
  C   C20       1.0  0.2990311590138074  0.20050553645937602  0.5373156262097304  1.0000
  C   C21       1.0  0.27349360997212113  0.19305352592118258  0.5596950666415491  1.0000
  C   C22       1.0  0.2486978166013018  0.21857363694890705  0.5605739559519157  1.0000
  C   C23       1.0  0.24886104361119485  0.2506633941352898  0.5379737646669458  1.0000
  C   C24       1.0  0.2744029669919264  0.2581143272426182  0.5156037149542412  1.0000
  H   H13       1.0  0.3181869293826551  0.18077644085344977  0.536644308814997  1.0000
  H   H14       1.0  0.2731490971237084  0.16782121826712215  0.5766240070552507  1.0000
  H   H15       1.0  0.22961502637990108  0.2701940935457073  0.5382164371240007  1.0000
  H   H16       1.0  0.27494466798330447  0.2836435101202869  0.49909250856258874  1.0000
  C   C25       1.0  0.5110808517348545  0.2897106807740181  0.5336071502357859  1.0000
  C   C26       1.0  0.5396853938387973  0.3015146935375656  0.5196331034895776  1.0000
  C   C27       1.0  0.5630721591209199  0.3140180416317493  0.5433709886624181  1.0000
  C   C28       1.0  0.5578965859539324  0.31444860837451183  0.5810704930678651  1.0000
  C   C29       1.0  0.5291916770654264  0.303128319616886  0.594936408051466  1.0000
  C   C30       1.0  0.5057725091801202  0.29105712853588656  0.5712317506730586  1.0000
  H   H17       1.0  0.5438749557858223  0.30070743725358495  0.4905289590702041  1.0000
  H   H18       1.0  0.5852562836704517  0.32263699368555765  0.5325831911758399  1.0000
  H   H19       1.0  0.5248754004728583  0.3040008971059736  0.6240217553149214  1.0000
  H   H20       1.0  0.48351815844401214  0.2831425660823078  0.5821243328711591  1.0000
  C   C31       1.0  0.3471338163636634  0.08894619233359125  0.6620173124337131  1.0000
  C   C32       1.0  0.33876074859590954  0.10734886508260089  0.6295515794522965  1.0000
  C   C33       1.0  0.36073607281600295  0.11275387302231545  0.6019486419180539  1.0000
  C   C34       1.0  0.3910225859681633  0.0996233303329479  0.6067008883361107  1.0000
  C   C35       1.0  0.39872109800929767  0.07865023320312581  0.6378961619713046  1.0000
  C   C36       1.0  0.37695869209036625  0.07398026295430538  0.6658907079578809  1.0000
  H   H21       1.0  0.31553435430588406  0.11824767423931437  0.6260145380676466  1.0000
  H   H22       1.0  0.3543235860169209  0.12742964080633157  0.5770793776196245  1.0000
  H   H23       1.0  0.42205352475320634  0.06800617096543071  0.6413808460757437  1.0000
  H   H24       1.0  0.38371276583019515  0.06000728562190383  0.6908441476746687  1.0000
  C   C37       1.0  0.21332586288191185  0.10327106769182737  0.7840262949444343  1.0000
  C   C38       1.0  0.20412897719154982  0.08839315976262152  0.81786176799724  1.0000
  C   C39       1.0  0.22650935182095158  0.07905979453068279  0.8443590804121789  1.0000
  C   C40       1.0  0.2579524542662445  0.08416000528311196  0.8366427131789441  1.0000
  C   C41       1.0  0.266836709002082  0.09975209039512101  0.8030867398802172  1.0000
  C   C42       1.0  0.24463389034989855  0.10903879458731436  0.7768038754991473  1.0000
  H   H25       1.0  0.17988209292919485  0.08355046743029937  0.8234317774812003  1.0000
  H   H26       1.0  0.21954376836316883  0.06654395649940081  0.8701007822833997  1.0000
  H   H27       1.0  0.29098840912670254  0.10381640421993255  0.7969147468202309  1.0000
  H   H28       1.0  0.2518892876874928  0.1191604672614135  0.7503341406419635  1.0000
  C   C43       1.0  0.5001339144608341  0.09937752438913128  0.7342125997946193  1.0000
  C   C44       1.0  0.5056210419647328  0.10560025628088798  0.7712672122225647  1.0000
  C   C45       1.0  0.4857876065461728  0.0900785846342047  0.7975341449915148  1.0000
  C   C46       1.0  0.46070975780513257  0.06769991034263567  0.7868235499603989  1.0000
  C   C47       1.0  0.4549352150776455  0.06186496555785759  0.7496595341674323  1.0000
  C   C48       1.0  0.4747420277903867  0.07760548032967662  0.7233414500567825  1.0000
  H   H29       1.0  0.5250757531070865  0.12268658965936674  0.7796327458013244  1.0000
  H   H30       1.0  0.48997828965936147  0.09545576579956472  0.8261744386590762  1.0000
  H   H31       1.0  0.43588728341770955  0.04427766040506187  0.741150037769176  1.0000
  H   H32       1.0  0.47094049847469605  0.07198540677446363  0.6946593973621832  1.0000
  C   C49       1.0  0.5967770447319449  0.11917415079294624  0.862197253248668  1.0000
  C   C50       1.0  0.06273188763735438  0.006795488332047794  0.9241864686859443  1.0000
  C   C51       1.0  0.03611112142077877  0.019476823672191168  0.9422720454311818  1.0000
  C   C52       1.0  0.5432856054674283  0.14635879721992162  0.896572660326201  1.0000
  C   C53       1.0  0.5684884657651214  0.13405650204951014  0.917493260729464  1.0000
  C   C54       1.0  0.5952004287294316  0.12043224092762417  0.9003254169865194  1.0000
  H   H33       1.0  0.07767745907492096  0.986041468058297  0.9368422259724466  1.0000
  H   H34       1.0  0.03052615298489103  0.008492705987690474  0.9690909260866748  1.0000
  H   H35       1.0  0.5675521463012332  0.13561386683017962  0.9469136559009101  1.0000
  H   H36       1.0  0.6144345484505211  0.1107505552240744  0.9166416698551506  1.0000
  C   C55       1.0  0.25777910857738573  0.1371956155931573  0.19058411608819958  1.0000
  C   C56       1.0  0.28485324831849607  0.1232774791426059  0.17465310080050628  1.0000
  C   C57       1.0  0.3120415925504844  0.1446770882018662  0.1756697580649439  1.0000
  C   C58       1.0  0.312409520027074  0.17972390256512177  0.19327126402069175  1.0000
  C   C59       1.0  0.2857600436039535  0.1929742226407821  0.21078042094634514  1.0000
  C   C60       1.0  0.25831379094130846  0.1717455013446596  0.2092966084399399  1.0000
  H   H37       1.0  0.2848675511462623  0.09594550676323244  0.16152942082180857  1.0000
  H   H38       1.0  0.3328093629514071  0.13402783342789926  0.16290338497604856  1.0000
  H   H39       1.0  0.2861173654762937  0.21995662157419055  0.22458926052157477  1.0000
  H   H40       1.0  0.23743951975723623  0.18249752257957552  0.2218336991213401  1.0000
  C   C61       1.0  0.16892869033927568  0.1234852509659301  0.01961697947181351  1.0000
  C   C62       1.0  0.14748379900860065  0.09897396788318713  0.03556865819732846  1.0000
  C   C63       1.0  0.11873739950775365  0.1125670577723441  0.04696287231316809  1.0000
  C   C64       1.0  0.11116591963368345  0.15072608247880637  0.04184802985232472  1.0000
  C   C65       1.0  0.1327678582847573  0.1755850386872031  0.026401626878791218  1.0000
  C   C66       1.0  0.1615791191034299  0.16182928060298218  0.014796350205800612  1.0000
  H   H41       1.0  0.153161484068245  0.06944078372330797  0.03907412725182002  1.0000
  H   H42       1.0  0.10263657174115308  0.09356726688100081  0.06015135405914873  1.0000
  H   H43       1.0  0.1271075673867321  0.20530687691037208  0.022963709303113644  1.0000
  H   H44       1.0  0.1783973824758695  0.18096675515668892  0.0029570666957516867  1.0000
  C   C67       1.0  0.3489051524914689  0.04455015984544475  0.07554735301147586  1.0000
  C   C68       1.0  0.3439312746756662  0.07842630204287682  0.0943468941196326  1.0000
  C   C69       1.0  0.3653454244113125  0.10813046382186009  0.09142928893923719  1.0000
  C   C70       1.0  0.39187646577989244  0.10380151059939458  0.07001621787130885  1.0000
  C   C71       1.0  0.3968522897632687  0.06984118747568369  0.05132002568315941  1.0000
  C   C72       1.0  0.37535767282286925  0.0402772694577862  0.05402179716327149  1.0000
  H   H45       1.0  0.32380813241953704  0.0816676283815323  0.11149581363854844  1.0000
  H   H46       1.0  0.3613235826678146  0.13444010494698166  0.10575021666249951  1.0000
  H   H47       1.0  0.4172168832706208  0.06632255035344659  0.03464835415494605  1.0000
  H   H48       1.0  0.3790542650353251  0.014293515573446713  0.03903456877807332  1.0000
  C   C73       1.0  0.5386493703679437  0.9114102054316362  0.05934634485066481  1.0000
  C   C74       1.0  0.5147775340740651  0.8971560284059051  0.03756722497605347  1.0000
  C   C75       1.0  0.49767196628583366  0.9217025416284116  0.015000698911516341  1.0000
  C   C76       1.0  0.5040839663725817  0.9605789496939291  0.014721202639381703  1.0000
  C   C77       1.0  0.03477218439460339  0.9857995324879858  0.1545952968768387  1.0000
  C   C78       1.0  0.025720290449060546  0.9728303095733368  0.1891686680404121  1.0000
  H   H49       1.0  0.509702852442628  0.8671291130707433  0.03786800160368964  1.0000
  H   H50       1.0  0.4791945360454059  0.910621565895182  0.9982095282512796  1.0000
  H   H51       1.0  0.0350407760527458  0.01581293353644586  0.1489042026125349  1.0000
  H   H52       1.0  0.01886270397086709  0.9929757358735779  0.20986370862065895  1.0000
  C   C79       1.0  0.2912273020616315  0.9133666558304021  0.6557147439954696  1.0000
  C   C80       1.0  0.29456030995036336  0.8798582895946166  0.6759570214106685  1.0000
  C   C81       1.0  0.30785783735837546  0.8809398170013594  0.710920399738215  1.0000
  C   C82       1.0  0.3181532642076908  0.915393265709717  0.7252605488790255  1.0000
  C   C83       1.0  0.315867373528384  0.9485393156675226  0.7042645547493741  1.0000
  C   C84       1.0  0.30235409563236454  0.9475675311753629  0.6695805136918989  1.0000
  H   H53       1.0  0.285983004019181  0.8533322200108083  0.665306036927023  1.0000
  H   H54       1.0  0.30969113174315044  0.8552200050576507  0.7270695957663982  1.0000
  H   H55       1.0  0.32399641461321854  0.9751590587787535  0.7148701700906991  1.0000
  H   H56       1.0  0.29997852290366656  0.973495160305931  0.653890991421963  1.0000
  C   C85       1.0  0.1972118881976878  0.8952453831886608  0.21683211850314432  1.0000
  C   C86       1.0  0.19620805306900246  0.9347566855495255  0.21309465637471212  1.0000
  C   C87       1.0  0.18969894389680916  0.9511550953133534  0.17895537716139565  1.0000
  C   C88       1.0  0.18370190015781254  0.9279586213871167  0.14889435819919394  1.0000
  C   C89       1.0  0.18187224075795658  0.8886753407530965  0.1535176132235183  1.0000
  C   C90       1.0  0.18862857476171999  0.8723477491016183  0.18752226852051943  1.0000
  H   H57       1.0  0.2022465673697084  0.9526579624813608  0.23594389168891364  1.0000
  H   H58       1.0  0.19035359118062783  0.9816581868754455  0.17563441624935577  1.0000
  H   H59       1.0  0.17650442351260098  0.8707471351437904  0.13045738670318532  1.0000
  H   H60       1.0  0.18731100602841902  0.8420481777945404  0.19087953543867464  1.0000
  C   C91       1.0  0.3430964289996147  0.7968911033148465  0.16392079302099333  1.0000
  C   C92       1.0  0.35268962807082505  0.8058724566358996  0.19929689001920348  1.0000
  C   C93       1.0  0.37837435557202986  0.8293962537030228  0.20468797920234275  1.0000
  C   C94       1.0  0.39510812439640475  0.8428634790547198  0.17469224999428248  1.0000
  C   C95       1.0  0.38643346501228193  0.8324783958938623  0.13930980445248942  1.0000
  C   C96       1.0  0.36015376812432637  0.8099458291632112  0.13390788376643603  1.0000
  H   H61       1.0  0.34060479181098124  0.7944087455474146  0.22259200315372119  1.0000
  H   H62       1.0  0.3855434681385212  0.8366521142176503  0.23211477318178422  1.0000
  H   H63       1.0  0.3995943870938126  0.8424637087879783  0.11607975729281272  1.0000
  H   H64       1.0  0.35286891925934705  0.8030067391665355  0.10646569444578713  1.0000
  C   C97       1.0  0.14848765984844323  0.7116430961909297  0.25112406882956795  1.0000
  C   C98       1.0  0.15357327761817796  0.7194161270901239  0.2880848597217449  1.0000
  C   C99       1.0  0.13030371840357158  0.7364572979161762  0.30900907567888664  1.0000
  C   C100      1.0  0.10181807204880965  0.7454185504816371  0.2930127248363711  1.0000
  C   C101      1.0  0.09616926324034071  0.7359529380220102  0.2565408862340585  1.0000
  C   C102      1.0  0.11948342629930825  0.7190053753675384  0.2355965379296348  1.0000
  H   H65       1.0  0.17554883002273183  0.7123458660503695  0.300482700202965  1.0000
  H   H66       1.0  0.13453161440624622  0.7432115007509932  0.33733993081397684  1.0000
  H   H67       1.0  0.0739903089197218  0.7421120370266808  0.24424176031722372  1.0000
  H   H68       1.0  0.11530126810333886  0.7129668614997046  0.2071231962592036  1.0000
  C   C103      1.0  0.29853470036055474  0.776110544558216  0.36916347890539136  1.0000
  C   C104      1.0  0.2885293247363691  0.8128412878176645  0.3604511409777444  1.0000
  C   C105      1.0  0.29052442065116124  0.8417375619615259  0.3865583888907963  1.0000
  C   C106      1.0  0.30236506809349856  0.8337480013674795  0.4213540107242087  1.0000
  C   C107      1.0  0.3133803254681391  0.7973858366970771  0.429536322125426  1.0000
  C   C108      1.0  0.3113860716996646  0.768564245939668  0.40349642424670884  1.0000
  H   H69       1.0  0.27853650352288994  0.818794248458363  0.33397441005159145  1.0000
  H   H70       1.0  0.28190537991278025  0.8698442859988749  0.38020290394795336  1.0000
  H   H71       1.0  0.3232449576226283  0.7913342664824985  0.4560600372850424  1.0000
  H   H72       1.0  0.31937180049697694  0.7402406897845571  0.4101615219745665  1.0000
  C   C109      1.0  0.39380099309974315  0.7876831818269932  0.6940800003056428  1.0000
  C   C110      1.0  0.40512704080485834  0.7553157747574493  0.6766462172112465  1.0000
  C   C111      1.0  0.3908299370533075  0.7422804619303629  0.6446894486942897  1.0000
  C   C112      1.0  0.36554262150091327  0.7619428163820022  0.629901513817955  1.0000
  C   C113      1.0  0.35395182067079  0.7939773377790051  0.6476651782445991  1.0000
  C   C114      1.0  0.36797064052244405  0.8066599509859974  0.6798875825871065  1.0000
  H   H73       1.0  0.42470502175121716  0.7401978632175337  0.6878354032560622  1.0000
  H   H74       1.0  0.39958243139743665  0.7172831985497852  0.6310929426874091  1.0000
  H   H75       1.0  0.33441765525509104  0.8092772171838147  0.6364216000408802  1.0000
  H   H76       1.0  0.3592064568895334  0.8317005084465905  0.693377315294256  1.0000
  C   C115      1.0  0.11391725456246818  0.8218553420887517  0.519931556064053  1.0000
  C   C116      1.0  0.11137565709394844  0.7862034566383032  0.5365432135502096  1.0000
  C   C117      1.0  0.13812131563951305  0.7650476497964157  0.5445446710836237  1.0000
  C   C118      1.0  0.1673563068760889  0.7797503986867526  0.5361199343334682  1.0000
  C   C119      1.0  0.16964757203491632  0.8148425898454926  0.5184934680091913  1.0000
  C   C120      1.0  0.1430174150215877  0.8358701047373047  0.5103940649939648  1.0000
  H   H77       1.0  0.08878779666320841  0.7750522893087639  0.5431689020173918  1.0000
  H   H78       1.0  0.13608755484468496  0.7376726658719089  0.5577621505826275  1.0000
  H   H79       1.0  0.19183912130314035  0.8257594303042061  0.5106830543146269  1.0000
  H   H80       1.0  0.1449681069426054  0.8633123376973807  0.4972072329987813  1.0000
  C   C121      1.0  0.5602618385937972  0.8998417427558724  0.7795315452625174  1.0000
  C   C122      1.0  0.04194433393126462  0.9175284991819266  0.6311900480822985  1.0000
  C   C123      1.0  0.0699664004573064  0.9350494346196548  0.640409786731585  1.0000
  C   C124      1.0  0.5986756280112658  0.9448333189908266  0.7356107668011994  1.0000
  C   C125      1.0  0.5917538820710722  0.9560672508724745  0.771284118049001  1.0000
  C   C126      1.0  0.5724363417645263  0.9336310526257827  0.7932132895538546  1.0000
  H   H81       1.0  0.038200549159085995  0.9077231470116792  0.6035837568654417  1.0000
  H   H82       1.0  0.08765759143325812  0.9387361088088942  0.6198109754664242  1.0000
  H   H83       1.0  0.6016876476031382  0.9817101610345405  0.7822065305177187  1.0000
  H   H84       1.0  0.5669822828214524  0.9423596876583535  0.8207217939073622  1.0000
  C   C127      1.0  0.6177735016054504  0.6665935827010058  0.827276413266466  1.0000
  C   C128      1.0  0.10407798583241883  0.718864496834461  0.6352033216097146  1.0000
  C   C129      1.0  0.07521307342639605  0.7235490310909637  0.6183244554864669  1.0000
  C   C130      1.0  0.5557778264899892  0.6764022672770476  0.8068905406443841  1.0000
  C   C131      1.0  0.5741009045262724  0.7079099933861616  0.8149916377384517  1.0000
  C   C132      1.0  0.6051564490133293  0.7030421645497272  0.8248884376267959  1.0000
  H   H85       1.0  0.1235735304182154  0.7356257587437495  0.6262798472860627  1.0000
  H   H86       1.0  0.07237440793780349  0.7439809945693947  0.5965851200161253  1.0000
  H   H87       1.0  0.564132908079648  0.7359884466483892  0.8149162448460899  1.0000
  H   H88       1.0  0.619279373940012  0.7274887101600168  0.8311527346694624  1.0000
  C   C133      1.0  0.6996888232624702  0.5440893287857649  0.683087590454012  1.0000
  C   C134      1.0  0.18256113969107507  0.4507104485195213  0.6251657826792474  1.0000
  C   C135      1.0  0.1704564739785768  0.4138072421053879  0.6273847884467408  1.0000
  C   C136      1.0  0.6565083832620525  0.5173492499889578  0.6324284695400592  1.0000
  C   C137      1.0  0.6830681676307964  0.5362084740845448  0.6203406118354643  1.0000
  C   C138      1.0  0.7047114586397369  0.5496074122188113  0.6457167490837014  1.0000
  H   H89       1.0  0.1940272317016032  0.4600291550727511  0.6004520333597366  1.0000
  H   H90       1.0  0.17226196753293926  0.39504607040178236  0.6042311462951651  1.0000
  H   H91       1.0  0.6867371321772442  0.5407220586562015  0.5914040483962388  1.0000
  H   H92       1.0  0.7250497801244564  0.5646455433067411  0.6363902800894955  1.0000
  C   C139      1.0  0.3551378381041657  0.386068391313513  0.11174408765966293  1.0000
  C   C140      1.0  0.3643926792910119  0.4192542971987727  0.1293093224495354  1.0000
  C   C141      1.0  0.37580495321859897  0.41793904089698036  0.16504512347987235  1.0000
  C   C142      1.0  0.37817274733190126  0.38323523658996195  0.18328845096030344  1.0000
  C   C143      1.0  0.370188455274788  0.3496761253123079  0.16534324043861037  1.0000
  C   C144      1.0  0.35873221324198135  0.351102344772181  0.12950387895834514  1.0000
  H   H93       1.0  0.36258968563492455  0.4460416335745904  0.1155628514631708  1.0000
  H   H94       1.0  0.382028245475186  0.44393130414598336  0.17881328487209797  1.0000
  H   H95       1.0  0.3723426284343093  0.32263893204068145  0.17919458513733422  1.0000
  H   H96       1.0  0.35180844101074177  0.32523140779595444  0.11596598385239876  1.0000
  C   C145      1.0  0.44185816694940516  0.37780105419636484  0.688204207331825  1.0000
  C   C146      1.0  0.448787208376155  0.3590262338151918  0.6555625068512124  1.0000
  C   C147      1.0  0.4322907616366147  0.3263932839149984  0.6456865894926894  1.0000
  C   C148      1.0  0.4089808189440553  0.3124883658765549  0.6685553559823715  1.0000
  C   C149      1.0  0.4025906429386829  0.33070029822419345  0.701555118527234  1.0000
  C   C150      1.0  0.41899679048393446  0.3633509448172947  0.7113629790804101  1.0000
  H   H97       1.0  0.46637780644960997  0.3700973605525913  0.6374965545900713  1.0000
  H   H98       1.0  0.43734323958688714  0.3123339508985352  0.6202004239053225  1.0000
  H   H99       1.0  0.3847393385622059  0.3198137867646469  0.7194187025280102  1.0000
  H   H100      1.0  0.41398314476661907  0.37723679561369383  0.7369311843631565  1.0000
  C   C151      1.0  0.5192565717498625  0.5200343363787774  0.8322756690040372  1.0000
  C   C152      1.0  0.5238346164053813  0.4888507963048041  0.8094504174488448  1.0000
  C   C153      1.0  0.553792149757679  0.4753919718840383  0.8027736641945203  1.0000
  C   C154      1.0  0.579344356869051  0.4939264824955282  0.8177922689147108  1.0000
  C   C155      1.0  0.574942640800303  0.5257383467993352  0.8398953296802314  1.0000
  C   C156      1.0  0.5448456750853548  0.5383970359589949  0.8475738988986665  1.0000
  H   H101      1.0  0.5043502601300018  0.4748052737248091  0.797113964461261  1.0000
  H   H102      1.0  0.5571802687093388  0.45073525647013685  0.7857732102011687  1.0000
  H   H103      1.0  0.594647486483382  0.5401269675719541  0.8515663336222699  1.0000
  H   H104      1.0  0.5414127854337217  0.562297580320803  0.8653220489919189  1.0000
  C   C157      1.0  0.3294292225115619  0.5733055981976438  0.7538216602657885  1.0000
  C   C158      1.0  0.3065995157633838  0.5929667694465668  0.7343304674134378  1.0000
  C   C159      1.0  0.27867810496328216  0.6026473587526776  0.7512598002790748  1.0000
  C   C160      1.0  0.2737874109536188  0.5935629691642932  0.787974814061931  1.0000
  C   C161      1.0  0.2973367152494891  0.5759072334439675  0.8080832005111287  1.0000
  C   C162      1.0  0.325003624505271  0.565273202426188  0.7909076510515016  1.0000
  H   H105      1.0  0.31016160400835996  0.5999266119942408  0.7058182593956958  1.0000
  H   H106      1.0  0.26116309869276144  0.617688043583657  0.7360096335883746  1.0000
  H   H107      1.0  0.2938392976523253  0.5696756224469594  0.8367145809310623  1.0000
  H   H108      1.0  0.34254796089618  0.5504921360528789  0.8063269814101732  1.0000
  C   C163      1.0  0.3397021173578523  0.4304820673039871  0.8704903549021169  1.0000
  C   C164      1.0  0.33100729434403053  0.41820059252338426  0.9053843859937717  1.0000
  C   C165      1.0  0.3105475388631181  0.4399887172387629  0.9262563464320275  1.0000
  C   C166      1.0  0.2978062978563807  0.47322052443405893  0.9116214457243434  1.0000
  C   C167      1.0  0.30509825227026427  0.4843375278759699  0.8759303204712447  1.0000
  C   C168      1.0  0.3264944934565408  0.4633415021927579  0.8555468219467148  1.0000
  H   H109      1.0  0.34093648086445283  0.3925643585024466  0.9168363102144474  1.0000
  H   H110      1.0  0.3046316764875936  0.4310565690023694  0.9536898798746707  1.0000
  H   H111      1.0  0.2950833910625074  0.5099004812063417  0.8646263361772191  1.0000
  H   H112      1.0  0.3330358248728362  0.4727939788941115  0.8285092403066391  1.0000
  C   C169      1.0  0.53865030311583  0.6444609859103289  0.04311319582107043  1.0000
  C   C170      1.0  0.022693846658574882  0.6464077439324475  0.12011368791394396  1.0000
  C   C171      1.0  0.01242655590915609  0.6840942492139859  0.12078507902547186  1.0000
  C   C172      1.0  0.4922748777156817  0.6923990485677068  0.06987742887330106  1.0000
  C   C173      1.0  0.4864475676653436  0.6536608536925232  0.06553016493110664  1.0000
  C   C174      1.0  0.5097055076555089  0.6296667745864266  0.05229518618424734  1.0000
  H   H113      1.0  0.01989458975058267  0.6299382412604038  0.09555840904169344  1.0000
  H   H114      1.0  0.0017220060636664591  0.6964561819105156  0.09675300004298637  1.0000
  H   H115      1.0  0.4641956969182996  0.6420607614466194  0.07306978058068703  1.0000
  H   H116      1.0  0.5051242885618131  0.5998194360993482  0.04885853499704451  1.0000
  C   C175      1.0  0.4546149908065393  0.4888210666518118  0.06148740700770272  1.0000
  C   C176      1.0  0.42501596799992925  0.47502740345404687  0.06880736822243527  1.0000
  C   C177      1.0  0.3998264677353533  0.49994051767244213  0.06959734194640421  1.0000
  C   C178      1.0  0.4038640386163443  0.5386435038434396  0.06301618360321481  1.0000
  C   C179      1.0  0.43349959193561943  0.5526347869406584  0.05568965786504321  1.0000
  C   C180      1.0  0.45884776990832815  0.5276022152102346  0.05460663081800066  1.0000
  H   H117      1.0  0.42137458019050833  0.44500983903353536  0.07341905227219425  1.0000
  H   H118      1.0  0.37707200489939785  0.48909859485254714  0.07486307490565935  1.0000
  H   H119      1.0  0.4367075796550069  0.5824604802601533  0.04981702821350753  1.0000
  H   H120      1.0  0.4814205003197689  0.5380762933845061  0.04723372994443609  1.0000
  C   C181      1.0  0.14321064679034243  0.5187227214787546  0.028623651783854287  1.0000
  C   C182      1.0  0.172949041997801  0.510803669596996  0.01607444932227442  1.0000
  C   C183      1.0  0.19783097486146  0.5098705957575432  0.04048215974476155  1.0000
  C   C184      1.0  0.19293688858792685  0.5155075612734611  0.07780447160322512  1.0000
  C   C185      1.0  0.16320131923535847  0.5239063639785598  0.09047161494126565  1.0000
  C   C186      1.0  0.13842003928225735  0.5260311143797122  0.06574886458822826  1.0000
  H   H121      1.0  0.17668616720411098  0.5048173588928871  0.9875569082387021  1.0000
  H   H122      1.0  0.2207084196889006  0.5043697548814945  0.030221963232511806  1.0000
  H   H123      1.0  0.1593478750469154  0.5286190515363673  0.11925970286375143  1.0000
  H   H124      1.0  0.1156922575478372  0.5333745731044192  0.07534316950555175  1.0000
  C   C187      1.0  0.002446138171361634  0.420434004058038  0.12081042380736617  1.0000
  C   C188      1.0  0.0075418258214428055  0.383233430563748  0.13298719730385966  1.0000
  C   C189      1.0  0.01545736688159316  0.376296957048722  0.1696018503734821  1.0000
  C   C190      1.0  0.01808471649126986  0.40653376406636704  0.19401989259124242  1.0000
  C   C191      1.0  0.5677918773195797  0.42376541252651  0.22980301043217471  1.0000
  C   C192      1.0  0.5751303688852708  0.45514028655314875  0.20759147580438467  1.0000
  H   H125      1.0  0.005712424707377428  0.3598695671756891  0.11405488797286802  1.0000
  H   H126      1.0  0.01920492759214465  0.3475434503036898  0.17896642742037364  1.0000
  H   H127      1.0  0.5772485543216826  0.3960993641845797  0.2236258627220964  1.0000
  H   H128      1.0  0.5904011163650628  0.4516965232161103  0.18445006947104614  1.0000
  Fe  Fe65      1.0  0.5665387588861107  0.5578165473349976  0.0549221726898248  1.0000
  S   S129      1.0  0.05187644710303441  0.5836186968890914  0.042538167837684604  1.0000
  S   S130      1.0  0.5680997707595431  0.614702048045686  0.02736573315986579  1.0000
  Fe  Fe66      1.0  0.5709198756467259  0.5181227591561214  0.12881219957016277  1.0000
  S   S131      1.0  0.5672260026110197  0.4601461291847032  0.10469401034183456  1.0000
  S   S132      1.0  0.5714123215375108  0.5307312836062901  0.18864812072913012  1.0000
  Fe  Fe67      1.0  0.6000452051723894  0.4828554529397144  0.06259960513151341  1.0000
  S   S133      1.0  0.6416884440901001  0.45043070099774735  0.04377126110293439  1.0000
  Fe  Fe68      1.0  0.005384922916457535  0.5637013073830075  0.023519100243297952  1.0000
  S   S134      1.0  0.9800841074226916  0.6003923288042202  0.982588415561856  1.0000
  S   S135      1.0  0.6065459104491806  0.5393506266048106  0.08943640216618665  1.0000
  S   S136      1.0  0.9903534392536477  0.5423679440867446  0.07892743237511879  1.0000
  Fe  Fe69      1.0  0.9311448244922601  0.35939439734941375  0.7920882301530351  1.0000
  S   S137      1.0  0.9182237950778445  0.39747559290248813  0.745551397130173  1.0000
  S   S138      1.0  0.9375634524392735  0.2997027806226208  0.7729447434939498  1.0000
  Fe  Fe70      1.0  0.9327279831580231  0.4240244981238208  0.8454518863873546  1.0000
  S   S139      1.0  0.9203181949107992  0.4677366771726204  0.8031696691715633  1.0000
  S   S140      1.0  0.9451993775492228  0.4458234888250784  0.9012007099300055  1.0000
  Fe  Fe71      1.0  0.8858708163903459  0.4246829961284919  0.784651756815786  1.0000
  S   S141      1.0  0.8404840095377475  0.444365249390938  0.7621106538801674  1.0000
  Fe  Fe72      1.0  0.9537983802916292  0.4370386267662474  0.7673545727893016  1.0000
  S   S142      1.0  0.9825218631990469  0.4687862593133874  0.7260562521516926  1.0000
  S   S143      1.0  0.8950731488555785  0.3829416835679005  0.8297901900201251  1.0000
  S   S144      1.0  0.9696769680021201  0.3968476928703542  0.8112073267828748  1.0000
  Fe  Fe73      1.0  0.8376042732112052  0.5586882902204566  0.0575870975564865  1.0000
  S   S145      1.0  0.8771280506851079  0.5176971160377173  0.06313388378851381  1.0000
  S   S146      1.0  0.8395692802623711  0.6094673110282305  0.02064113968778636  1.0000
  Fe  Fe74      1.0  0.7970178181773498  0.5142470964435221  0.10908826859242571  1.0000
  S   S147      1.0  0.8326241899653204  0.4693569581498369  0.11966197696356162  1.0000
  S   S148      1.0  0.7516631637651646  0.5137396070956182  0.13853128397021397  1.0000
  Fe  Fe75      1.0  0.8655591124955053  0.5183352127879087  0.12273940781667014  1.0000
  S   S149      1.0  0.9038056687598602  0.5257290047002667  0.16332310745792  1.0000
  Fe  Fe76      1.0  0.8410309437483531  0.47277625766865083  0.05937498482397485  1.0000
  S   S150      1.0  0.8466089004155166  0.4201973579253946  0.025839702788927665  1.0000
  S   S151      1.0  0.8292051657377921  0.5631832839108167  0.11756283510469268  1.0000
  S   S152      1.0  0.8022853349934422  0.5136562813830905  0.04827813052923924  1.0000
  Fe  Fe77      1.0  0.7148763252388296  0.5372656869094318  0.8491563795639588  1.0000
  S   S153      1.0  0.7219858862007656  0.5909655621432999  0.8172083806470192  1.0000
  S   S154      1.0  0.751260571325059  0.5084988841284229  0.8831169979928818  1.0000
  Fe  Fe78      1.0  0.13448403715149748  0.5676716920999856  0.7620911810101783  1.0000
  S   S155      1.0  0.13017403059664567  0.5794610210903459  0.7018089800865412  1.0000
  S   S156      1.0  0.10153962601906152  0.5380711496363013  0.8000457424276959  1.0000
  Fe  Fe79      1.0  0.1786128497409909  0.5571155318833405  0.6988365549437308  1.0000
  S   S157      1.0  0.19500230831484666  0.521514319893946  0.6520655293776347  1.0000
  Fe  Fe80      1.0  0.1529637189057078  0.6347910854548104  0.7154850346540628  1.0000
  S   S158      1.0  0.14368632239889934  0.6897078532721587  0.6858816387732313  1.0000
  S   S159      1.0  0.18108449794324089  0.5402144435074896  0.7576546353557463  1.0000
  S   S160      1.0  0.153008603490022  0.6251798816358893  0.776232637679756  1.0000
  Fe  Fe81      1.0  0.008323307918378431  0.7666862604582222  0.5843589684029571  1.0000
  S   S161      1.0  0.01292469197257895  0.777472955665902  0.524085012456409  1.0000
  S   S162      1.0  0.013500214275820932  0.7086011533774506  0.6093972854028191  1.0000
  Fe  Fe82      1.0  0.994367546583952  0.8487802677374285  0.6016662645434496  1.0000
  S   S163      1.0  0.9979602985408518  0.867089440262916  0.5434219385879445  1.0000
  S   S164      1.0  0.984084348747324  0.8902964002671053  0.6462500017751264  1.0000
  Fe  Fe83      1.0  0.9711316947420419  0.8144702447326063  0.5313145364352055  1.0000
  S   S165      1.0  0.9335703602597756  0.8222303701523345  0.4896946905874126  1.0000
  Fe  Fe84      1.0  0.5248770870015186  0.7844696922088957  0.6994034607677827  1.0000
  S   S166      1.0  0.5460053500337944  0.7875372516871687  0.6432410380098578  1.0000
  S   S167      1.0  0.9637050869400623  0.7991012976903406  0.5900685956789775  1.0000
  S   S168      1.0  0.550338900754437  0.7777476627876617  0.7524248678639772  1.0000
  Fe  Fe85      1.0  0.7322324489024511  0.7344476366188345  0.28868732771569455  1.0000
  S   S169      1.0  0.7444634834905509  0.6945829055836206  0.2436029672293754  1.0000
  S   S170      1.0  0.7258677991969256  0.7112372078922862  0.3451776784391294  1.0000
  Fe  Fe86      1.0  0.7279790204294311  0.8029445254011371  0.23846674034721632  1.0000
  S   S171      1.0  0.7403960838102803  0.7696401097295131  0.18864349825243382  1.0000
  S   S172      1.0  0.7109884218997214  0.8632037472614938  0.23651435775183924  1.0000
  Fe  Fe87      1.0  0.7086300916523666  0.7257495746937468  0.21146806940337592  1.0000
  S   S173      1.0  0.6731520466910846  0.6984506958443224  0.17642756597476905  1.0000
  Fe  Fe88      1.0  0.7755376368237779  0.7413946943165323  0.2249105335818896  1.0000
  S   S174      1.0  0.8213900248566562  0.7238663760807266  0.20210966051344162  1.0000
  S   S175      1.0  0.6929980399091001  0.7610249932740383  0.2583271500926029  1.0000
  S   S176      1.0  0.7664997207855022  0.7793783623367909  0.27309020335060585  1.0000
  Fe  Fe89      1.0  0.7673578268689457  0.7872662414174378  0.5385443020064807  1.0000
  S   S177      1.0  0.7600304702489887  0.8393830482729187  0.504536930054527  1.0000
  S   S178      1.0  0.8062438781729605  0.7458461021249018  0.5297474031085597  1.0000
  Fe  Fe90      1.0  0.7145388725113854  0.8066226372031324  0.5897406089138927  1.0000
  S   S179      1.0  0.7026494868991479  0.8607486492655744  0.5602646728932261  1.0000
  S   S180      1.0  0.6923336029048461  0.7887173250369939  0.6426366637279455  1.0000
  Fe  Fe91      1.0  0.7096244265713807  0.8260268060930799  0.5095679185622761  1.0000
  S   S181      1.0  0.6817273998466243  0.8340490239492703  0.45826383372228974  1.0000
  Fe  Fe92      1.0  0.7539309271800034  0.8690841763419789  0.5577809443695406  1.0000
  S   S182      1.0  0.7776271957991125  0.924711624462042  0.566524445903669  1.0000
  S   S183      1.0  0.7171987994241188  0.7707900884540846  0.5393037925112446  1.0000
  S   S184      1.0  0.7655250943754115  0.8180930918174336  0.5916500128597381  1.0000
  Fe  Fe93      1.0  0.0020786777399059986  0.7791608630179042  0.20850942842066503  1.0000
  S   S185      1.0  0.9981875983855327  0.7475829064700582  0.26164952290553406  1.0000
  S   S186      1.0  4.0047281653299294e-05  0.7515907163516002  0.15358256662623337  1.0000
  Fe  Fe94      1.0  0.007349005204325243  0.8556704681618874  0.2443988864338624  1.0000
  S   S187      1.0  0.003334692239677528  0.8314081947290253  0.3006846570689718  1.0000
  S   S188      1.0  0.01324681113997217  0.9185931158108663  0.2400874295404979  1.0000
  Fe  Fe95      1.0  0.5227704909154176  0.7927840173543086  0.1850639894701487  1.0000
  S   S189      1.0  0.5487581987900656  0.7691201481015807  0.23324837145901242  1.0000
  Fe  Fe96      1.0  0.966310954592772  0.7947352845004877  0.2772522989686377  1.0000
  S   S190      1.0  0.9245502195540312  0.7802531495020911  0.31046701535439436  1.0000
  S   S191      1.0  0.53640369447881  0.7798149874599407  0.1273866158270205  1.0000
  S   S192      1.0  0.9667910518522678  0.8236563463793412  0.2224978157933531  1.0000
  Fe  Fe97      1.0  0.7771967703867678  0.02149343508262236  0.12469812982531181  1.0000
  S   S193      1.0  0.7722112360907325  0.012652340035311571  0.06439340830337548  1.0000
  S   S194      1.0  0.8023428382352785  0.9756367118847806  0.155862906409827  1.0000
  Fe  Fe98      1.0  0.7463944384432544  0.09922248219051788  0.12143702496369557  1.0000
  S   S195      1.0  0.7389993133671227  0.09712647034625266  0.06091406795855203  1.0000
  S   S196      1.0  0.7311782224285389  0.14842134493033488  0.15550283392894615  1.0000
  Fe  Fe99      1.0  0.7248470987041298  0.03693788405347376  0.07176832638837771  1.0000
  S   S197      1.0  0.6831963354372593  0.011434929324957155  0.04511026877922486  1.0000
  Fe  Fe100     1.0  0.7870172391085951  0.07315943833885918  0.059677818525534665  1.0000
  S   S198      1.0  0.8231997948509131  0.09149523478621657  0.01969156245188941  1.0000
  S   S199      1.0  0.728181126849363  0.040730693331231915  0.1326236681292554  1.0000
  S   S200      1.0  0.7957754412606002  0.0806419703839707  0.11966415559030417  1.0000
  Fe  Fe101     1.0  0.10753853739842945  0.012369725952681154  0.7309963236204163  1.0000
  S   S201      1.0  0.10909660800711984  0.07332080451160894  0.7136676044347225  1.0000
  S   S202      1.0  0.11100080821551872  0.9677423052541428  0.6874783031241343  1.0000
  Fe  Fe102     1.0  0.10521217429733154  0.03223735413481932  0.8114894439632825  1.0000
  S   S203      1.0  0.10682672807856042  0.09507176218036029  0.801289424712469  1.0000
  S   S204      1.0  0.10448684652298645  0.007782136316939692  0.8682385006132884  1.0000
  Fe  Fe103     1.0  0.07297355718393694  0.08254275412614032  0.7564680307261032  1.0000
  S   S205      1.0  0.03311678720780398  0.12183949134611782  0.7441737908726104  1.0000
  Fe  Fe104     1.0  0.6399929928837571  0.11119561407174383  0.7033549381325341  1.0000
  S   S206      1.0  0.6727381277520658  0.13857517420145582  0.6642963474831094  1.0000
  S   S207      1.0  0.06826338358615991  0.020458856828670102  0.7698732271318193  1.0000
  S   S208      1.0  0.6555337026900988  0.06772443133469808  0.7443638058765751  1.0000
  Fe  Fe105     1.0  0.03480494966273939  0.03250311786918503  0.07057350258480377  1.0000
  S   S209      1.0  0.031000243638599212  0.08313388600135885  0.10725385156560208  1.0000
  S   S210      1.0  0.055553592017136166  0.9760194725172967  0.08461809395510844  1.0000
  Fe  Fe106     1.0  0.0006903918428617928  0.07049196046357209  0.008109411346549633  1.0000
  S   S211      1.0  0.9929381354908503  0.12417626763249157  0.03894112984449838  1.0000
  S   S212      1.0  0.9860562054247956  0.06635330037314535  0.9498701513582306  1.0000
  Fe  Fe107     1.0  0.5298476864232814  0.10803782125154981  0.04453357987439732  1.0000
  S   S213      1.0  0.5697122433211826  0.11646491054609331  0.08304276225916829  1.0000
  Fe  Fe108     1.0  0.9823637289650445  0.0855857165727365  0.08605163385106285  1.0000
  S   S214      1.0  0.9403657954859996  0.08929410046313158  0.12107928391019507  1.0000
  S   S215      1.0  0.533916771920541  0.08228340507949627  0.9887862715184078  1.0000
  S   S216      1.0  0.9852564759685096  0.03236267369374635  0.05323247264056685  1.0000
  Fe  Fe109     1.0  0.82079049099197  0.10188740119690975  0.7466591146902818  1.0000
  S   S217      1.0  0.8151288546809549  0.06557330942099204  0.6971152660332816  1.0000
  S   S218      1.0  0.7916394241814041  0.15180598287429414  0.7615571294415183  1.0000
  Fe  Fe110     1.0  0.8764710091149208  0.05927195889386083  0.774004472794796  1.0000
  S   S219      1.0  0.8763290341738855  0.017947982849918054  0.7277764253942842  1.0000
  S   S220      1.0  0.9128682525285224  0.057350966247180946  0.8174296988586459  1.0000
  Fe  Fe111     1.0  0.8668822631871627  0.06887293019944174  0.6928872062549316  1.0000
  S   S221      1.0  0.8957291793869481  0.07980145040176856  0.6431751926329844  1.0000
  Fe  Fe112     1.0  0.8249255830850007  0.017328299927476865  0.7357615766652075  1.0000
  S   S222      1.0  0.797881531072925  0.9631897612514202  0.7319665874847631  1.0000
  S   S223      1.0  0.8712560688682478  0.11041271337937841  0.7383635752846462  1.0000
  S   S224      1.0  0.8259654565619338  0.053449583792615885  0.7860127808626055  1.0000
  Fe  Fe113     1.0  0.8950479730403419  0.2837508406258439  0.5714243720198752  1.0000
  S   S225      1.0  0.8846863106834097  0.30468304715685934  0.514749440806713  1.0000
  S   S226      1.0  0.8606861594965539  0.24766124867689499  0.6012960191842192  1.0000
  Fe  Fe114     1.0  0.9498663333886348  0.3365982991400382  0.5808153760660905  1.0000
  S   S227      1.0  0.9434017134647352  0.3638582356963595  0.5260046543809943  1.0000
  S   S228      1.0  0.9861970197832481  0.35428393050044954  0.6208198576602497  1.0000
  Fe  Fe115     1.0  0.892649724803957  0.362083525997829  0.5387732403428545  1.0000
  S   S229      1.0  0.8575248351278353  0.408221554549802  0.5305872469694297  1.0000
  Fe  Fe116     1.0  0.9362017429908382  0.3039996222496224  0.5073461114511577  1.0000
  S   S230      1.0  0.9635238733731546  0.2835615086634925  0.45936726974670206  1.0000
  S   S231      1.0  0.9000444578543594  0.3413998623977744  0.5958271658614201  1.0000
  S   S232      1.0  0.9459549356017812  0.2766745863588955  0.5618005879234996  1.0000
  Fe  Fe117     1.0  0.5942658464638025  0.2768604077806166  0.329084415612426  1.0000
  S   S233      1.0  0.6080493073469346  0.2399531323973474  0.28245036839549226  1.0000
  S   S234      1.0  0.5988687220159044  0.2597941937490184  0.38770650744218016  1.0000
  Fe  Fe118     1.0  0.5641030855012378  0.3363123151367828  0.27998956867411845  1.0000
  S   S235      1.0  0.5752073080551494  0.3048340564982685  0.2285110594068261  1.0000
  S   S236      1.0  0.5363911346412531  0.38966480925496727  0.2865418254459377  1.0000
  Fe  Fe119     1.0  0.06202957552202393  0.26029075257396117  0.23135381109735106  1.0000
  S   S237      1.0  0.04018022555684864  0.20771027224208843  0.20898447378741836  1.0000
  Fe  Fe120     1.0  0.6212877958956192  0.2947686275250054  0.2555951207553926  1.0000
  S   S238      1.0  0.6658577455716262  0.2974556839042647  0.22480232323501836  1.0000
  S   S239      1.0  0.03808558311496468  0.2945348643595959  0.27405806440960995  1.0000
  S   S240      1.0  0.6113882063059181  0.33113287964070715  0.30426007350968176  1.0000
  Fe  Fe121     1.0  0.15720412130221595  0.31670459232559245  0.53129021180594  1.0000
  S   S241      1.0  0.1540068868105291  0.25326204625852616  0.5294696336884589  1.0000
  S   S242      1.0  0.1663764648552979  0.3484440408981955  0.479011734081572  1.0000
  Fe  Fe122     1.0  0.14503785901957  0.32042866983203333  0.6122718009425102  1.0000
  S   S243      1.0  0.14000357522218954  0.2573501627953321  0.6175956905518437  1.0000
  S   S244      1.0  0.13930972518928675  0.35619238089441274  0.6625680148897345  1.0000
  Fe  Fe123     1.0  0.6932905990572028  0.3819701254448643  0.5937788940151497  1.0000
  S   S245      1.0  0.737788432657301  0.3622964285078929  0.6188860293137126  1.0000
  Fe  Fe124     1.0  0.11282114148048761  0.2611737972705545  0.5655721130745955  1.0000
  S   S246      1.0  0.07165131709577222  0.22295084622273892  0.5590453441326576  1.0000
  S   S247      1.0  0.6898181230774831  0.4314791990451127  0.5556269915198215  1.0000
  S   S248      1.0  0.11353815770689879  0.32484554595086934  0.5636337370707313  1.0000
  Fe  Fe125     1.0  0.8240107892119344  0.3024587290721642  0.29152945582566325  1.0000
  S   S249      1.0  0.8316610217374383  0.3456628125076375  0.24699512725026104  1.0000
  S   S250      1.0  0.7825838229336415  0.3075539430432458  0.32857780445112295  1.0000
  Fe  Fe126     1.0  0.879835191905048  0.255024271659281  0.2693059665280737  1.0000
  S   S251      1.0  0.8913732986521118  0.2939681864071119  0.22280991619314652  1.0000
  S   S252      1.0  0.9070559845847493  0.20144510579544386  0.27908512706627636  1.0000
  Fe  Fe127     1.0  0.8816118051069383  0.34022571661299544  0.26284351472045786  1.0000
  S   S253      1.0  0.9172125654630039  0.3856892716504933  0.2699345590914481  1.0000
  Fe  Fe128     1.0  0.8404970858212348  0.2948024767168209  0.21181103593626033  1.0000
  S   S254      1.0  0.8239543874247984  0.2868560759159768  0.15397516855249993  1.0000
  S   S255      1.0  0.8734669317751053  0.30118478610627664  0.3104228548961627  1.0000
  S   S256      1.0  0.8295911043247417  0.25180495235769434  0.25516062261073436  1.0000
  C   C193      1.0  0.001956003837852327  0.2056877872545402  0.22493688570966827  1.0000
  C   C194      1.0  0.9856068106158666  0.23921558916585642  0.2315889548841951  1.0000
  C   C195      1.0  0.9564705397087196  0.2379827125673019  0.24822500090125246  1.0000
  C   C196      1.0  0.9431331664762006  0.20312299511215723  0.25730053301297406  1.0000
  C   C197      1.0  0.9590673450847957  0.16944000318714392  0.24976944159886333  1.0000
  C   C198      1.0  0.9884234740237838  0.17071508974645844  0.23344727505995158  1.0000
  H   H129      1.0  0.9953955665743212  0.26621163281104293  0.2237350052700944  1.0000
  H   H130      1.0  0.9447910122695251  0.2641344272885236  0.25478299453865944  1.0000
  H   H131      1.0  0.948927214691878  0.14236790571586933  0.25689491122283875  1.0000
  H   H132      1.0  0.000951842435132022  0.14469461968762376  0.2282316729201068  1.0000
  C   C199      1.0  0.7495834862607249  0.3037588875642529  0.3007364218730191  1.0000
  C   C200      1.0  0.7198066062933028  0.3020794906567652  0.31570210878486155  1.0000
  C   C201      1.0  0.6938905584622622  0.299095078508322  0.29257599226232367  1.0000
  C   C202      1.0  0.6977378663984646  0.29801774807247633  0.2546320247111466  1.0000
  C   C203      1.0  0.7274746035761844  0.29869688927172666  0.23997981605632193  1.0000
  C   C204      1.0  0.7532156731412724  0.30216528733077025  0.2629149305706341  1.0000
  H   H133      1.0  0.7167854436761041  0.3028895414062219  0.34501274405468724  1.0000
  H   H134      1.0  0.6710501152386542  0.2974103214817385  0.3040860104164244  1.0000
  H   H135      1.0  0.7305791203602382  0.2967022674254069  0.2108077959102575  1.0000
  H   H136      1.0  0.7760136785748094  0.3035817841705397  0.25136362214339375  1.0000
  C   C205      1.0  0.10063176469973656  0.3006239780494349  0.3937524256759797  1.0000
  C   C206      1.0  0.616376566918867  0.30202796209271215  0.4461914276320764  1.0000
  C   C207      1.0  0.6328473575042933  0.3315214089288218  0.4626593195844937  1.0000
  C   C208      1.0  0.13982837375904666  0.3325795278216871  0.44628890256635917  1.0000
  C   C209      1.0  0.14282469987476887  0.34294213758294934  0.40944602898329974  1.0000
  C   C210      1.0  0.12322348113510273  0.32684000582924133  0.3830543602060376  1.0000
  H   H137      1.0  0.5984287345071806  0.2874050220035364  0.46122682905472384  1.0000
  H   H138      1.0  0.6276457776552931  0.3395451565473998  0.4904075923500175  1.0000
  H   H139      1.0  0.16063709105206558  0.36274936440282707  0.40128548584447227  1.0000
  H   H140      1.0  0.12595605418439093  0.3341872976153652  0.35455526624011385  1.0000
  C   C211      1.0  0.8236201463503561  0.3951326221197639  0.5537278759922265  1.0000
  C   C212      1.0  0.8216003445225215  0.3596951092220501  0.5708971550672534  1.0000
  C   C213      1.0  0.7952276363674753  0.3499061115746978  0.5909315818448238  1.0000
  C   C214      1.0  0.770176316196416  0.37488675145369454  0.5927266535680449  1.0000
  C   C215      1.0  0.7716980235093125  0.40990178559996593  0.5745565277127226  1.0000
  C   C216      1.0  0.7985016869997762  0.42013824727662674  0.5553085345379849  1.0000
  H   H141      1.0  0.8401922506632167  0.3394543980205419  0.5687025291266699  1.0000
  H   H142      1.0  0.7941244776342752  0.32260951853289416  0.6045846005952129  1.0000
  H   H143      1.0  0.7526591857653598  0.4296105060981938  0.5760145252721625  1.0000
  H   H144      1.0  0.7998299586536747  0.4474934309149081  0.5418518489164291  1.0000
  C   C217      1.0  0.9960549114097408  0.2643684550370749  0.4813955408920931  1.0000
  C   C218      1.0  0.9938767204294104  0.22878758262208806  0.49825662938959686  1.0000
  C   C219      1.0  0.017738039698370622  0.21578233917317313  0.5210657704989801  1.0000
  C   C220      1.0  0.04366721235903159  0.23851274035288544  0.5275274243607526  1.0000
  C   C221      1.0  0.0460426360404218  0.2738926175728837  0.5103136616272725  1.0000
  C   C222      1.0  0.022278214813448827  0.2867941709349494  0.4871550110080159  1.0000
  H   H145      1.0  0.973195697737189  0.2119141491354714  0.49495049158556215  1.0000
  H   H146      1.0  0.01567953214592488  0.18854567431773459  0.534576476498565  1.0000
  H   H147      1.0  0.06574511008110084  0.2917767107532766  0.5155688028143046  1.0000
  H   H148      1.0  0.02372661040499846  0.3147453359918131  0.47496046625498684  1.0000
  C   C223      1.0  0.8858348279518864  0.12535143107787672  0.6279160228232068  1.0000
  C   C224      1.0  0.8563098274767067  0.1394724075446776  0.63527747105686  1.0000
  C   C225      1.0  0.8484735047443732  0.17650562984045767  0.625182513165277  1.0000
  C   C226      1.0  0.8704081361189694  0.20005556445545883  0.6086885122901025  1.0000
  C   C227      1.0  0.8999459543623483  0.18596299547128214  0.6008196367700387  1.0000
  C   C228      1.0  0.9075848871032891  0.14835502078420837  0.6101556886737929  1.0000
  H   H149      1.0  0.8393188836949422  0.12175097751441055  0.648461649593805  1.0000
  H   H150      1.0  0.8253916757013651  0.1870017897558068  0.6304643157015215  1.0000
  H   H151      1.0  0.9169202209411945  0.20405820832504495  0.5879489087213317  1.0000
  H   H152      1.0  0.9304549360770115  0.13744664033013265  0.6044035399422651  1.0000
  C   C229      1.0  0.7058919708751522  0.14708172380937867  0.6902012198899432  1.0000
  C   C230      1.0  0.7031304574483783  0.1519363257151305  0.7279164267974368  1.0000
  C   C231      1.0  0.7296460882216742  0.1550829604370081  0.749593655336883  1.0000
  C   C232      1.0  0.7588836884875468  0.15193348413363195  0.7337164954894588  1.0000
  C   C233      1.0  0.7617284805827882  0.14737251717865552  0.695910281810484  1.0000
  C   C234      1.0  0.7351614753430555  0.14581266044210706  0.673997028953172  1.0000
  H   H153      1.0  0.6805478774869083  0.15298304880152802  0.7405477595859324  1.0000
  H   H154      1.0  0.7274672687753698  0.15844265154620651  0.7788412327065298  1.0000
  H   H155      1.0  0.7843561399538822  0.14502734065018608  0.6835572552589663  1.0000
  H   H156      1.0  0.737368017925266  0.14244567575504807  0.6447898044558521  1.0000
  C   C235      1.0  0.0004067357948984718  0.10837514728800635  0.7693067124985044  1.0000
  C   C236      1.0  0.002123201509991013  0.07807174543609152  0.7938989327281886  1.0000
  C   C237      1.0  0.9753098879661157  0.06344309042938057  0.809987273475702  1.0000
  C   C238      1.0  0.9466117710507197  0.0794723340442014  0.8017227801293305  1.0000
  C   C239      1.0  0.9451164837507579  0.11173801639350778  0.7793428311206333  1.0000
  C   C240      1.0  0.9719493743902294  0.12602701396242244  0.7628439164910419  1.0000
  H   H157      1.0  0.023965001447780798  0.06499904945208201  0.7995831814528469  1.0000
  H   H158      1.0  0.9767524775526948  0.03885542846189982  0.8277625702126924  1.0000
  H   H159      1.0  0.9234243826602685  0.12597211397515484  0.7749889798091518  1.0000
  H   H160      1.0  0.9704997239736597  0.15017454061467306  0.7445853585270894  1.0000
  C   C241      1.0  0.07002410424210481  0.021055077913558318  0.8895962577759553  1.0000
  C   C242      1.0  0.5718825414350835  0.13235994740607593  0.8412662833649138  1.0000
  C   C243      1.0  0.545180039289128  0.14610259939043324  0.8584518278957549  1.0000
  C   C244      1.0  0.016664189426256693  0.046166418957771294  0.9255187929358956  1.0000
  C   C245      1.0  0.02343212309431464  0.059444166308529  0.8904215253375332  1.0000
  C   C246      1.0  0.05031329711462185  0.04715274928682889  0.8726838481674243  1.0000
  H   H161      1.0  0.5731175424995272  0.13175363363139225  0.8118381878380246  1.0000
  H   H162      1.0  0.525740493730216  0.15583754660002658  0.8422552404213011  1.0000
  H   H163      1.0  0.008584400678710136  0.08034871852239855  0.8775593949082461  1.0000
  H   H164      1.0  0.056376116443335844  0.058607043758430954  0.8463442710405429  1.0000
  C   C247      1.0  0.7565040960688938  0.1871987290075965  0.15347262936186587  1.0000
  C   C248      1.0  0.7756806761655677  0.19347642624371741  0.12319551999633105  1.0000
  C   C249      1.0  0.7956496652930313  0.225015501434169  0.1225040288109398  1.0000
  C   C250      1.0  0.7972271970169276  0.24931095884740379  0.15263382723058858  1.0000
  C   C251      1.0  0.7781489230178953  0.24269333095900525  0.1826321862436214  1.0000
  C   C252      1.0  0.7575078454937098  0.21220049063084945  0.18291498613049018  1.0000
  H   H165      1.0  0.7749074741063807  0.1742836815045794  0.10024060359721831  1.0000
  H   H166      1.0  0.8103396495941353  0.23000250348792975  0.09906753342096099  1.0000
  H   H167      1.0  0.779259646317609  0.26120903620491903  0.2057278373389049  1.0000
  H   H168      1.0  0.7428902824282363  0.20748901084803384  0.20648395617751159  1.0000
  C   C253      1.0  0.6510314817031224  0.038734430669271847  0.05737451972863994  1.0000
  C   C254      1.0  0.6546334397798741  0.06928351714817316  0.08119852935318561  1.0000
  C   C255      1.0  0.629309003543547  0.09237821628171972  0.08965583405138355  1.0000
  C   C256      1.0  0.6004317924628042  0.08542337500534902  0.07395613298358739  1.0000
  C   C257      1.0  0.596665470802201  0.05437599527086667  0.05072873517269372  1.0000
  C   C258      1.0  0.6219546099825315  0.030962758443669802  0.0424335691346045  1.0000
  H   H169      1.0  0.6769476640475404  0.07550138124196049  0.09292976506285333  1.0000
  H   H170      1.0  0.6321393234119193  0.11595623836620716  0.10796981076367151  1.0000
  H   H171      1.0  0.5742644027692035  0.0482477413080018  0.03938342410282636  1.0000
  H   H172      1.0  0.6189667237016869  0.007123064223101272  0.024275444193200046  1.0000
  C   C259      1.0  0.857643008723466  0.08767908423458914  0.044532342673999636  1.0000
  C   C260      1.0  0.8820632785248352  0.11268516976900744  0.03788559535399472  1.0000
  C   C261      1.0  0.9081240853241467  0.11219889863125343  0.06069445410186902  1.0000
  C   C262      1.0  0.9092693179555847  0.0874871352873483  0.09071173590724069  1.0000
  C   C263      1.0  0.8851838693603736  0.06191978765698303  0.09684436938921182  1.0000
  C   C264      1.0  0.8596965182047306  0.06150449064077512  0.07327720250377956  1.0000
  H   H173      1.0  0.8802964346386449  0.13346375061598348  0.016197563585727437  1.0000
  H   H174      1.0  0.9265748032188075  0.13232607924672202  0.05619631627390809  1.0000
  H   H175      1.0  0.8860121581085536  0.042645448193115554  0.11987260605951477  1.0000
  H   H176      1.0  0.8413006289320011  0.041293072204837244  0.07782592172218394  1.0000
  C   C265      1.0  0.02531901907236489  0.9339637834690253  0.19690103444306728  1.0000
  C   C266      1.0  0.03425148865252359  0.9080212602462868  0.1701215201680888  1.0000
  C   C267      1.0  0.044083007471038105  0.9210946457660136  0.1357952990364728  1.0000
  C   C268      1.0  0.04412303755797908  0.9600035644707522  0.12791924259422283  1.0000
  C   C269      1.0  0.5280183951267723  0.974818084123825  0.036347042657375095  1.0000
  C   C270      1.0  0.5455752756413651  0.9501797603178009  0.05831432083758625  1.0000
  H   H177      1.0  0.03359821765834714  0.8779242144375017  0.17569997838285767  1.0000
  H   H178      1.0  0.051167965772094925  0.9010168792288679  0.11514706325545232  1.0000
  H   H179      1.0  0.5328628118303824  0.004851181430966411  0.03633195873303352  1.0000
  H   H180      1.0  0.5639961753849414  0.9613347071368721  0.07514972895201177  1.0000
  C   C271      1.0  0.7856637287283063  0.932589052589722  0.6125831273092718  1.0000
  C   C272      1.0  0.7721993159302445  0.9100015234900432  0.6397298821166064  1.0000
  C   C273      1.0  0.7774119595398209  0.9182496487892222  0.6766253730953332  1.0000
  C   C274      1.0  0.7955781854168483  0.9493891267829251  0.6862779709444506  1.0000
  C   C275      1.0  0.8101939213139066  0.9707770041783571  0.6591070556737689  1.0000
  C   C276      1.0  0.8050283893558344  0.9625948294332698  0.6222625922409726  1.0000
  H   H181      1.0  0.7570967199084908  0.886901073745602  0.6323601122713167  1.0000
  H   H182      1.0  0.7669750439131177  0.9010011435467019  0.6977250898111274  1.0000
  H   H183      1.0  0.8252443140084101  0.9939109695753084  0.6663746421000004  1.0000
  H   H184      1.0  0.8157348080862912  0.9798613353212482  0.6012737248732811  1.0000
  C   C277      1.0  0.7369001474721764  0.8941998788397363  0.21477591633179816  1.0000
  C   C278      1.0  0.7657166685459132  0.8814429742908253  0.20252055156657991  1.0000
  C   C279      1.0  0.7859106881367505  0.9066717494467884  0.1847570341048733  1.0000
  C   C280      1.0  0.7770946239105873  0.9444603449833789  0.1786444278619274  1.0000
  C   C281      1.0  0.7482427889664022  0.957080361692052  0.19090934856041897  1.0000
  C   C282      1.0  0.7282675756006299  0.9320720801097613  0.2091197105921617  1.0000
  H   H185      1.0  0.7725645693922056  0.8522380047396655  0.20692791398790775  1.0000
  H   H186      1.0  0.8082494250690775  0.8967889573403865  0.17546299392970033  1.0000
  H   H187      1.0  0.7417471424699588  0.9864251175664585  0.18749085014424324  1.0000
  H   H188      1.0  0.7062195611475465  0.9421671181059253  0.21910429019110034  1.0000
  C   C283      1.0  0.8505159906610018  0.7365470171379402  0.23294092619818976  1.0000
  C   C284      1.0  0.8438817869461688  0.7409314401112547  0.2700834175202612  1.0000
  C   C285      1.0  0.8668747959428015  0.7537014007926562  0.29410720251214656  1.0000
  C   C286      1.0  0.8965301894432636  0.7616749769879742  0.28101535055609556  1.0000
  C   C287      1.0  0.9035012540104774  0.7555930401421203  0.24420326078644877  1.0000
  C   C288      1.0  0.8804291417356667  0.7433132425125478  0.22013950556911976  1.0000
  H   H189      1.0  0.8210476648427445  0.7345326770987373  0.28021303504920614  1.0000
  H   H190      1.0  0.8616612655161465  0.7580376953182513  0.32261579646508565  1.0000
  H   H191      1.0  0.9264884073344614  0.7609833782657845  0.23404378961920375  1.0000
  H   H192      1.0  0.8854146681278594  0.7404608010904608  0.19138674643436152  1.0000
  C   C289      1.0  0.639079609485125  0.7188932362717563  0.19259632128173235  1.0000
  C   C290      1.0  0.6268882589153668  0.707173316788466  0.22616078554539357  1.0000
  C   C291      1.0  0.5993363517288623  0.7232289215456694  0.2390543590394794  1.0000
  C   C292      1.0  0.5846604640177525  0.7518983049563503  0.21897370267878546  1.0000
  C   C293      1.0  0.5981906644897041  0.7656106244883419  0.18686933618306495  1.0000
  C   C294      1.0  0.625192979674857  0.7487396990622613  0.17336679681598077  1.0000
  H   H193      1.0  0.6383279869825289  0.685014457866779  0.24171063402198223  1.0000
  H   H194      1.0  0.5891766349612887  0.713018285384894  0.26423762269484297  1.0000
  H   H195      1.0  0.5878947023889426  0.7892166500911658  0.17239306612851507  1.0000
  H   H196      1.0  0.6353840845838779  0.758945415784598  0.1481942932249827  1.0000
  C   C295      1.0  0.7120123254316596  0.7452859990334412  0.37570346191257237  1.0000
  C   C296      1.0  0.7053876218596793  0.7346355674844984  0.41169985287789185  1.0000
  C   C297      1.0  0.6961252673214905  0.7619494170259807  0.4371063477063959  1.0000
  C   C298      1.0  0.6928745212397461  0.7998463106510115  0.42638216915424904  1.0000
  C   C299      1.0  0.6991548293996085  0.8104853137090131  0.3902329733110527  1.0000
  C   C300      1.0  0.7089796435985681  0.7832368474487189  0.3649333487865551  1.0000
  H   H197      1.0  0.707711533852308  0.7052814057788589  0.42009021800740987  1.0000
  H   H198      1.0  0.6910844827130774  0.7535810746440545  0.46491822519016146  1.0000
  H   H199      1.0  0.6972454071962925  0.8399634777776654  0.38213350182606426  1.0000
  H   H200      1.0  0.7146969897669788  0.7916566805212986  0.33731581317248743  1.0000
  C   C301      1.0  0.898551818807857  0.8011580884894864  0.5021076460282937  1.0000
  C   C302      1.0  0.8979355470412838  0.7671702348719518  0.5219301122239123  1.0000
  C   C303      1.0  0.8694559444795431  0.7502441837275101  0.5305222000184848  1.0000
  C   C304      1.0  0.8416772440899952  0.768061938940255  0.5205643355754694  1.0000
  C   C305      1.0  0.8424791969030211  0.8025727270532281  0.501615647905882  1.0000
  C   C306      1.0  0.8708506852085531  0.8186154907658452  0.49164965135350885  1.0000
  H   H201      1.0  0.9193542788445237  0.753497874279108  0.5299488191715555  1.0000
  H   H202      1.0  0.8689419658708745  0.7234445602107159  0.5450730212969107  1.0000
  H   H203      1.0  0.8213138522259278  0.8164699838419747  0.49363001335365586  1.0000
  H   H204      1.0  0.8713233512712505  0.8449228419151841  0.47627289333519757  1.0000
  C   C307      1.0  0.5867391447769659  0.7869209974211167  0.6426040540280863  1.0000
  C   C308      1.0  0.6035025249606032  0.7765758296597572  0.6737625994124541  1.0000
  C   C309      1.0  0.6358650456642458  0.7771717188866326  0.6734303075514594  1.0000
  C   C310      1.0  0.6517749056107539  0.7875168092142417  0.6416644963934018  1.0000
  C   C311      1.0  0.6351934903686521  0.797348546506235  0.6101812659639348  1.0000
  C   C312      1.0  0.602663476417941  0.7970295654766636  0.6106705713797681  1.0000
  H   H205      1.0  0.591621717674848  0.7676562524091122  0.6980354939382472  1.0000
  H   H206      1.0  0.6485100742948849  0.7698432271298604  0.6979520698597418  1.0000
  H   H207      1.0  0.6473601734693125  0.8052620030590801  0.585492863930872  1.0000
  H   H208      1.0  0.5898723405235149  0.8048281048504788  0.5863440634241102  1.0000
  C   C313      1.0  0.018852516515733386  0.9128995063093203  0.6575565754033308  1.0000
  C   C314      1.0  0.5679221999148293  0.8880984900449946  0.7442329807877217  1.0000
  C   C315      1.0  0.5870655365470148  0.9105986780724353  0.7222618447914093  1.0000
  C   C316      1.0  0.07508701442573473  0.9477940947258653  0.6760651615585803  1.0000
  C   C317      1.0  0.05196899037119862  0.9431814302660733  0.7024241147114354  1.0000
  C   C318      1.0  0.02385731115383516  0.9257788807543855  0.6931524982566787  1.0000
  H   H209      1.0  0.5590153087812997  0.8617749262966252  0.7336517969301783  1.0000
  H   H210      1.0  0.5923102404045884  0.9017399261108996  0.6947143495856487  1.0000
  H   H211      1.0  0.05606991507716219  0.9518793603179057  0.7302400725484358  1.0000
  H   H212      1.0  0.0063040192786969484  0.9214004025296342  0.7137896998102263  1.0000
  C   C319      1.0  0.10784288263588504  0.6924329652259457  0.6634851769931795  1.0000
  C   C320      1.0  0.5992647343726989  0.6349829289316751  0.8200294951163571  1.0000
  C   C321      1.0  0.5683393844070213  0.6398922966089019  0.8095027466737285  1.0000
  C   C322      1.0  0.05007369144202567  0.7014202484024354  0.629268188764611  1.0000
  C   C323      1.0  0.05417775008399639  0.6736875126041083  0.6564425513502274  1.0000
  C   C324      1.0  0.0830583877501494  0.6692644849654695  0.6736789521669234  1.0000
  H   H213      1.0  0.6085724500163154  0.6067091828596568  0.8229843720528641  1.0000
  H   H214      1.0  0.5541648242041921  0.6153818414277529  0.8035651247557273  1.0000
  H   H215      1.0  0.03479137342944427  0.65636124371643  0.6648479697312618  1.0000
  H   H216      1.0  0.08582681562390926  0.6487317288386479  0.6954875106376939  1.0000
  C   C325      1.0  0.17943999800143162  0.4756057788751399  0.6546225131585424  1.0000
  C   C326      1.0  0.6735716477990314  0.5242992248186141  0.6950522084233567  1.0000
  C   C327      1.0  0.6519460318517423  0.5110169173551752  0.6697445559080357  1.0000
  C   C328      1.0  0.15594855769194704  0.4014657106278417  0.6594399433923945  1.0000
  C   C329      1.0  0.15335347294085766  0.42621273366752904  0.6890599403114948  1.0000
  C   C330      1.0  0.16452969910709525  0.4633812449103107  0.6864071242398276  1.0000
  H   H217      1.0  0.6700561069506012  0.518827381883979  0.7237750615924055  1.0000
  H   H218      1.0  0.6317366772993109  0.49588112077936614  0.6791705722952966  1.0000
  H   H219      1.0  0.1423800879284396  0.4167658759027469  0.7140397445579195  1.0000
  H   H220      1.0  0.1617510936785267  0.48237338521004686  0.7091556697897894  1.0000
  C   C331      1.0  0.90646301735417  0.48821141123392303  0.19475516454454822  1.0000
  C   C332      1.0  0.935010539802522  0.47992399802034097  0.21091253582261693  1.0000
  C   C333      1.0  0.9380068581198443  0.4486500430374254  0.2344019614554905  1.0000
  C   C334      1.0  0.9124632629683037  0.4255603896476407  0.2417579890607815  1.0000
  C   C335      1.0  0.8837346556171134  0.4341696881468265  0.2260972909913217  1.0000
  C   C336      1.0  0.8806949968000619  0.4656631177398343  0.2027770813084253  1.0000
  H   H221      1.0  0.955036033790879  0.49711848955061627  0.204580150532637  1.0000
  H   H222      1.0  0.9603576951191453  0.4418599611395485  0.24611235162468986  1.0000
  H   H223      1.0  0.8638293045279621  0.41686977022874383  0.23226045786612204  1.0000
  H   H224      1.0  0.8583898816087465  0.4726923768167563  0.191331782292947  1.0000
  C   C337      1.0  0.9558018205287918  0.30797227525419313  0.7310907563428182  1.0000
  C   C338      1.0  0.9794334064806901  0.3349163760483253  0.729053119032807  1.0000
  C   C339      1.0  0.9896821368059798  0.3481142350370267  0.695083876483264  1.0000
  C   C340      1.0  0.9760536695286186  0.33470273783587196  0.6630753077180607  1.0000
  C   C341      1.0  0.9533754261142027  0.3065362707005666  0.6650371915569878  1.0000
  C   C342      1.0  0.9434497624851337  0.2930062001166069  0.6990132785180286  1.0000
  H   H225      1.0  0.9891565245202559  0.3465522801415059  0.7537603828916181  1.0000
  H   H226      1.0  0.007176296448643038  0.36976924042995746  0.6939391437690549  1.0000
  H   H227      1.0  0.9429302505772521  0.29564646515135845  0.6404511381116834  1.0000
  H   H228      1.0  0.9249509126674488  0.27278761470168106  0.7002567151909691  1.0000
  C   C343      1.0  0.015817696466739806  0.48787833095457284  0.7462365187800235  1.0000
  C   C344      1.0  0.025921379517092946  0.4746983280554451  0.7802716724766823  1.0000
  C   C345      1.0  0.05267214818947896  0.4897111094806514  0.7961633290973616  1.0000
  C   C346      1.0  0.06925358326605546  0.5183179113497222  0.778318822466892  1.0000
  C   C347      1.0  0.05923413206369843  0.531553827148615  0.7442114169802416  1.0000
  C   C348      1.0  0.03253742072204813  0.516294488226754  0.728143418514126  1.0000
  H   H229      1.0  0.013346309967800618  0.45270116404948824  0.7943137099768505  1.0000
  H   H230      1.0  0.06059646925651241  0.47904828267907806  0.8222898391549072  1.0000
  H   H231      1.0  0.07148715742682521  0.5542709776512166  0.7306960240369536  1.0000
  H   H232      1.0  0.024514724700331225  0.5271720278340589  0.7021304118422944  1.0000
  C   C349      1.0  0.817873008875669  0.463212215328886  0.7972533864372107  1.0000
  C   C350      1.0  0.816915847398187  0.4459928536653777  0.8318096726538612  1.0000
  C   C351      1.0  0.7967647532681171  0.46001898859507273  0.8587002026871312  1.0000
  C   C352      1.0  0.7780884810045139  0.49162802670799066  0.8511031448564491  1.0000
  C   C353      1.0  0.7800506365619062  0.509381656411883  0.8169802168643059  1.0000
  C   C354      1.0  0.7997714127839765  0.49521747300334956  0.790128251694037  1.0000
  H   H233      1.0  0.8308645112196078  0.4211265121542209  0.8374057351158684  1.0000
  H   H234      1.0  0.7951991050929762  0.4458782241077485  0.8849249309085597  1.0000
  H   H235      1.0  0.7662951660990988  0.5341210720619373  0.811008855624691  1.0000
  H   H236      1.0  0.8008684915761148  0.5091843418318533  0.7638005160585606  1.0000
  C   C355      1.0  0.9192288791344545  0.4350042113320715  0.9365697787122294  1.0000
  C   C356      1.0  0.892135121641565  0.41459980092905985  0.9297973141754549  1.0000
  C   C357      1.0  0.8705515837589193  0.40874562673348924  0.9578228601668021  1.0000
  C   C358      1.0  0.8755457156126732  0.4242574274890788  0.9924340733790651  1.0000
  C   C359      1.0  0.9029935919916413  0.4438971006241253  0.999480720603079  1.0000
  C   C360      1.0  0.9249768866770084  0.44883098424561585  0.9717056652034115  1.0000
  H   H237      1.0  0.8875571730997456  0.403661561688068  0.9029365590163676  1.0000
  H   H238      1.0  0.8494710103680145  0.39327232756324726  0.9523017482604418  1.0000
  H   H239      1.0  0.9075038885813306  0.45532373238889434  0.026218514786026548  1.0000
  H   H240      1.0  0.9460761957079497  0.46428509168080895  0.9772733794856472  1.0000
  C   C361      1.0  0.036356901365036  0.6302571062269409  0.15113203024181374  1.0000
  C   C362      1.0  0.544075360353804  0.6834187222357089  0.04611972072304504  1.0000
  C   C363      1.0  0.5208600010065025  0.7073978360577927  0.05945893647887379  1.0000
  C   C364      1.0  0.015445972451096024  0.7056055929809127  0.1526034408431  1.0000
  C   C365      1.0  0.02900347235896117  0.6894145951817516  0.18368672108640235  1.0000
  C   C366      1.0  0.039269897299031076  0.6516778918895711  0.18303028921257658  1.0000
  H   H241      1.0  0.5663519521583522  0.695022870133574  0.03856208856985366  1.0000
  H   H242      1.0  0.5251052628301098  0.7374937530623581  0.06166372465474291  1.0000
  H   H243      1.0  0.03164152605078674  0.7058998531865247  0.20821423750720192  1.0000
  H   H244      1.0  0.04953786823251938  0.6391675972337039  0.2072380621977187  1.0000
  C   C367      1.0  0.9418484747289988  0.6102412124939504  0.9952336760325766  1.0000
  C   C368      1.0  0.931484880384316  0.6008975754235232  0.030178779376142995  1.0000
  C   C369      1.0  0.9001244643790918  0.6039465731269624  0.038778127662074  1.0000
  C   C370      1.0  0.8789878865344393  0.616381860012969  0.01253388730475491  1.0000
  C   C371      1.0  0.8895022115945488  0.6286795250577001  0.9783507347412522  1.0000
  C   C372      1.0  0.9210514809914907  0.6254634176487308  0.9696320705949342  1.0000
  H   H245      1.0  0.9474499978359214  0.5904908543422369  0.05037647444860083  1.0000
  H   H246      1.0  0.8920664343163113  0.595405711511858  0.06545243962949177  1.0000
  H   H247      1.0  0.873163110024132  0.6386684279397341  0.9580694380826408  1.0000
  H   H248      1.0  0.9291190522798334  0.6333966020453813  0.9427115934891279  1.0000
  C   C373      1.0  0.6727181544080275  0.46427372917912  0.07143149728670783  1.0000
  C   C374      1.0  0.7030309064837553  0.4619889938587175  0.05833372807421622  1.0000
  C   C375      1.0  0.7275162785389584  0.4764853814596319  0.07917360083067271  1.0000
  C   C376      1.0  0.7216838476326219  0.49355027335131096  0.11290626756795397  1.0000
  C   C377      1.0  0.6915675034214509  0.49406435773440377  0.12674657154632252  1.0000
  C   C378      1.0  0.6671592812595496  0.4791640681563598  0.1061509453566647  1.0000
  H   H249      1.0  0.7075414874779163  0.4498178297836366  0.03180685899057112  1.0000
  H   H250      1.0  0.7507932595859277  0.4742619802279452  0.06906989869235525  1.0000
  H   H251      1.0  0.6869776712126174  0.5064255909558231  0.15319565448335615  1.0000
  H   H252      1.0  0.6439707467216935  0.47942737275328456  0.11712831781374522  1.0000
  C   C379      1.0  0.5632219093097239  0.4910714826194681  0.21591374727916285  1.0000
  C   C380      1.0  0.5438863371026699  0.4955462693431706  0.24614916349123606  1.0000
  C   C381      1.0  0.5357057425262847  0.46410229873561604  0.2674545338115057  1.0000
  C   C382      1.0  0.5476705160303723  0.42824695302868965  0.25940416075311895  1.0000
  C   C383      1.0  0.012349721976778305  0.4435778115538323  0.1819676414926236  1.0000
  C   C384      1.0  0.004805633679872745  0.4505675117742865  0.14533092561673389  1.0000
  H   H253      1.0  0.5346026736421086  0.5232493384608156  0.25258372678778007  1.0000
  H   H254      1.0  0.5200198956631458  0.4676331142811609  0.2901992346916051  1.0000
  H   H255      1.0  0.014132773905893181  0.46701053769876577  0.20083933853581637  1.0000
  H   H256      1.0  0.0005341554045068531  0.4793276956852201  0.13618699814467794  1.0000
  N   N1        1.0  0.21329875696287837  0.2576733527617052  0.4089084069480616  1.0000
  C   C385      1.0  0.1799651314702282  0.2509210949915169  0.4150781594995632  1.0000
  C   C386      1.0  0.23133737379418484  0.23872952956536259  0.4380859031770078  1.0000
  C   C387      1.0  0.21952206332020197  0.2988783971406884  0.4096091096648431  1.0000
  C   C388      1.0  0.22235057872945596  0.242273319412682  0.37298951818743636  1.0000
  H   H257      1.0  0.1723644906534052  0.2626401158241058  0.4418139714640747  1.0000
  H   H258      1.0  0.17440051069384288  0.220136831365016  0.41520423195013734  1.0000
  H   H259      1.0  0.1655765316632003  0.26461105555642184  0.3934798858385674  1.0000
  H   H260      1.0  0.22784484377302672  0.20747835550345584  0.43795854640958204  1.0000
  H   H261      1.0  0.2565944418180539  0.24417819978551558  0.4351018262231197  1.0000
  H   H262      1.0  0.22425416733781445  0.2491078489556465  0.4655115371591925  1.0000
  H   H263      1.0  0.24426857399269708  0.3051282359543611  0.40371574204946076  1.0000
  H   H264      1.0  0.21385342812880315  0.31130883818012817  0.4366993736407188  1.0000
  H   H265      1.0  0.20545322656022358  0.3142580580590247  0.38883048728616154  1.0000
  H   H266      1.0  0.24752073885844394  0.24630755007596214  0.3677933035492322  1.0000
  H   H267      1.0  0.2097437004573457  0.2568112880809007  0.35032729790019207  1.0000
  H   H268      1.0  0.21740551422639953  0.21140258244085253  0.3710797563615966  1.0000
  N   N2        1.0  0.12859820271469757  0.9743762255837953  0.014147826042532063  1.0000
  C   C389      1.0  0.1277764118518111  0.9925901964855761  0.05038495720689262  1.0000
  C   C390      1.0  0.15372222761173687  0.9458868696235653  0.013523794510010179  1.0000
  C   C391      1.0  0.13420237977686683  0.0034514956018742993  0.9856546985466061  1.0000
  C   C392      1.0  0.09868177605974793  0.955467871692  0.007250686924185734  1.0000
  H   H269      1.0  0.10974006735403673  0.015088591980516153  0.05171778989988374  1.0000
  H   H270      1.0  0.1504330381290894  0.005412781903651576  0.05743137567376855  1.0000
  H   H271      1.0  0.12245793114996516  0.9716199736693033  0.07237860851258193  1.0000
  H   H272      1.0  0.150145432970576  0.9236903085102129  0.034888821040292894  1.0000
  H   H273      1.0  0.15515838517568345  0.9315365030571133  0.9865888932331255  1.0000
  H   H274      1.0  0.17660370974546086  0.9591063059394235  0.019191695146395293  1.0000
  H   H275      1.0  0.11569377561146556  0.02546578216730544  0.9855628032462945  1.0000
  H   H276      1.0  0.13476454121827686  0.9907341247983562  0.9578461112542686  1.0000
  H   H277      1.0  0.15668675869782758  0.01816552092934476  0.9900181341205818  1.0000
  H   H278      1.0  0.09347908735589452  0.933985702021916  0.028809944507163232  1.0000
  H   H279      1.0  0.09854087580105576  0.9407084143493705  0.9804770192816196  1.0000
  H   H280      1.0  0.07919768670676477  0.9761967735859176  0.007392738296831514  1.0000
  N   N3        1.0  0.8045336875066532  0.7513480387483402  0.4073580662764818  1.0000
  C   C393      1.0  0.7924230759121632  0.7129552415168909  0.41511680891176805  1.0000
  C   C394      1.0  0.8012487643517594  0.759990915232941  0.36798917512302226  1.0000
  C   C395      1.0  0.8375758147245888  0.7528883901207062  0.41770603986543015  1.0000
  C   C396      1.0  0.7868788972935519  0.7794648641927733  0.42874533539882625  1.0000
  H   H281      1.0  0.7941200522343242  0.705879072792478  0.44477642206322077  1.0000
  H   H282      1.0  0.8052331885708773  0.6908697364037084  0.39964985181954155  1.0000
  H   H283      1.0  0.7676624315295957  0.7105751103842184  0.4073039871515266  1.0000
  H   H284      1.0  0.7765249248466534  0.7610950359730062  0.3596727758010351  1.0000
  H   H285      1.0  0.8116283516732826  0.7879278189962682  0.36083486661924685  1.0000
  H   H286      1.0  0.8125053951281094  0.7379496113929644  0.35087886043623134  1.0000
  H   H287      1.0  0.8517167707639922  0.7331886713069051  0.40089387757420475  1.0000
  H   H288      1.0  0.840956584917474  0.7447160183413074  0.4468511648479012  1.0000
  H   H289      1.0  0.84720496291752  0.7819346322474551  0.41404871042655766  1.0000
  H   H290      1.0  0.7878583551958113  0.7728952062895171  0.4584551355763668  1.0000
  H   H291      1.0  0.7620058651799357  0.7797149365051644  0.4209427537386026  1.0000
  H   H292      1.0  0.7958836710346804  0.808711144236924  0.4246167001959589  1.0000
  N   N4        1.0  0.19205319656828068  0.5457405639158721  0.8954212462620261  1.0000
  C   C397      1.0  0.2211956462375437  0.5674956802989771  0.8978699089768788  1.0000
  C   C398      1.0  0.18017287649296884  0.5475458257881298  0.8575803868839702  1.0000
  C   C399      1.0  0.16890983002392126  0.5621095897710171  0.9205607344499565  1.0000
  C   C400      1.0  0.19803409120714446  0.5057703147427771  0.9056144407024838  1.0000
  H   H293      1.0  0.230778866120963  0.5670139283182584  0.9261141096162486  1.0000
  H   H294      1.0  0.21783164869475435  0.5976334371039199  0.8895234041021032  1.0000
  H   H295      1.0  0.2393407539417416  0.5554443484299947  0.8796818696528501  1.0000
  H   H296      1.0  0.17577895490628875  0.5773616773637054  0.8487734306580944  1.0000
  H   H297      1.0  0.1971789012249899  0.5354455019642447  0.8380305290935307  1.0000
  H   H298      1.0  0.158061604998866  0.5316648403663853  0.8545457526164445  1.0000
  H   H299      1.0  0.14694135161115973  0.5456028797019509  0.92034010695248  1.0000
  H   H300      1.0  0.1632299021644648  0.5919283523681378  0.9129873089300424  1.0000
  H   H301      1.0  0.1774991318966959  0.5621600439317643  0.9492354629052444  1.0000
  H   H302      1.0  0.1765951418843385  0.48841352914910113  0.904208520059353  1.0000
  H   H303      1.0  0.2073067967980275  0.5034537697448307  0.9339064716732383  1.0000
  H   H304      1.0  0.2156496551181016  0.4926680902832995  0.8874065048553842  1.0000
  N   N5        1.0  0.11341643075557953  0.4300813748136881  0.15499225416681345  1.0000
  C   C401      1.0  0.09401429955961907  0.41362400380123354  0.12582442667790872  1.0000
  C   C402      1.0  0.1020080350503876  0.4685181565036137  0.1638834222650913  1.0000
  C   C403      1.0  0.1458397509646225  0.4323276898185995  0.1423505820521367  1.0000
  C   C404      1.0  0.11174393664720497  0.40573979870080196  0.1879204367669582  1.0000
  H   H305      1.0  0.06924963734564216  0.4126428751316724  0.13399507452361714  1.0000
  H   H306      1.0  0.10120924805866169  0.38409458534204827  0.11930333665113624  1.0000
  H   H307      1.0  0.09532407554018155  0.43060392551722193  0.10015489851234327  1.0000
  H   H308      1.0  0.1151938389711233  0.4811742974122037  0.186891145225905  1.0000
  H   H309      1.0  0.10413799342415038  0.4881056017736123  0.14011963101499258  1.0000
  H   H310      1.0  0.07714428694264197  0.4680168546515542  0.1719988536546356  1.0000
  H   H311      1.0  0.14779946186560758  0.4495501700009739  0.11685419429144915  1.0000
  H   H312      1.0  0.1553296957534651  0.4036270059255998  0.13637836369645195  1.0000
  H   H313      1.0  0.1609870288181937  0.44565749321806913  0.16324666398219  1.0000
  H   H314      1.0  0.12579683404373626  0.41734871261578294  0.21074129780585035  1.0000
  H   H315      1.0  0.12047657163757365  0.37659418109514287  0.1823659220196295  1.0000
  H   H316      1.0  0.08750749948745003  0.40310317390634415  0.19785675960069232  1.0000
  N   N6        1.0  0.5921671555985253  0.4250906857559959  0.37419754069403605  1.0000
  C   C405      1.0  0.6102701737925913  0.42559918438242134  0.3399616655937847  1.0000
  C   C406      1.0  0.5808446248099358  0.38621839483389436  0.3813764636171511  1.0000
  C   C407      1.0  0.5654815728511745  0.45112331057490396  0.37061258563158533  1.0000
  C   C408      1.0  0.6120928640878843  0.43735909556710667  0.4047774874148288  1.0000
  H   H317      1.0  0.6305528025952999  0.40611174747025525  0.34168926767472224  1.0000
  H   H318      1.0  0.6191478020380907  0.45450408283416577  0.33364607664911977  1.0000
  H   H319      1.0  0.5959714382885126  0.4165064309326634  0.3162659762839724  1.0000
  H   H320      1.0  0.567433764496295  0.3845912325968479  0.40725005175742923  1.0000
  H   H321      1.0  0.5656332599586912  0.37606076316178005  0.35888930414508663  1.0000
  H   H322      1.0  0.6003238652581107  0.3658037951266174  0.3838829164114233  1.0000
  H   H323      1.0  0.5515312439284942  0.4517847388042115  0.39612650709735736  1.0000
  H   H324      1.0  0.5498388537760219  0.4421846793914597  0.34802898944517985  1.0000
  H   H325      1.0  0.5730789272825377  0.48062530006412735  0.36448133748099365  1.0000
  H   H326      1.0  0.5997666756572679  0.4358103560449328  0.43142641754276845  1.0000
  H   H327      1.0  0.620313777676634  0.4670026373669036  0.40094062976478106  1.0000
  H   H328      1.0  0.6330002195240634  0.4190631049648258  0.4072548180933551  1.0000
  N   N7        1.0  0.7411533968591663  0.38573805966856706  0.16438236255134148  1.0000
  C   C409      1.0  0.7526305232947419  0.42223231480684764  0.17869022620163075  1.0000
  C   C410      1.0  0.765326466397439  0.3563559050946286  0.1689949069767694  1.0000
  C   C411      1.0  0.7335403686806513  0.38988534469538594  0.12520783976488703  1.0000
  C   C412      1.0  0.713014453677282  0.3746007504517263  0.18464713646102957  1.0000
  H   H329      1.0  0.7345428852230371  0.4446896743896403  0.17692864229693403  1.0000
  H   H330      1.0  0.7730291554527459  0.4326004756896893  0.16303170659419036  1.0000
  H   H331      1.0  0.7596540245308404  0.4197431324162042  0.2078679688122603  1.0000
  H   H332      1.0  0.771524375948712  0.3522221562216634  0.1982463951593533  1.0000
  H   H333      1.0  0.7576439482859042  0.3283608862433117  0.15836040249889582  1.0000
  H   H334      1.0  0.7869190891923841  0.363985204326012  0.15413992278748442  1.0000
  H   H335      1.0  0.753840392607972  0.3999564994411664  0.10917572711544365  1.0000
  H   H336      1.0  0.7144616159867896  0.41068277792072777  0.12096131668189947  1.0000
  H   H337      1.0  0.7258648553271096  0.3624895822671406  0.11327962934145419  1.0000
  H   H338      1.0  0.7038422031957712  0.34689060144117984  0.17503999326612493  1.0000
  H   H339      1.0  0.6941686288932485  0.39590955520734095  0.18123193851417616  1.0000
  H   H340      1.0  0.7176508598960243  0.37189129588805453  0.21445939613697926  1.0000
  N   N8        1.0  0.009514922398536907  0.5389405149258175  0.8909978662979002  1.0000
  C   C413      1.0  0.029852073287475633  0.563811288369068  0.9127861205319368  1.0000
  C   C414      1.0  0.9775114211795144  0.5413486617770252  0.905014028714831  1.0000
  C   C415      1.0  0.02051008297592527  0.4992874335366276  0.89378755679336  1.0000
  C   C416      1.0  0.010202813493585206  0.5513284834801826  0.8523702309298297  1.0000
  H   H341      1.0  0.029827146056187415  0.5554881542418112  0.9420862529611224  1.0000
  H   H342      1.0  0.02200109043855547  0.5939018457789219  0.9115873513418761  1.0000
  H   H343      1.0  0.05422442491939372  0.562646737749427  0.9030724484216818  1.0000
  H   H344      1.0  0.9613755115362052  0.523972330446156  0.8883728530980105  1.0000
  H   H345      1.0  0.9760186064927368  0.5307588044574405  0.9337012655463822  1.0000
  H   H346      1.0  0.968891941977032  0.5711186878427861  0.9049991831133997  1.0000
  H   H347      1.0  0.0059848898312153676  0.4798793015062362  0.8770598121167235  1.0000
  H   H348      1.0  0.019440481516874053  0.4886455074440247  0.9224434068218195  1.0000
  H   H349      1.0  0.04486315116461492  0.4965099716527595  0.8843806539168604  1.0000
  H   H350      1.0  0.0011650323391680928  0.5807275571429058  0.8491349378017051  1.0000
  H   H351      1.0  0.9959849574689043  0.5324106153595132  0.8347945237493164  1.0000
  H   H352      1.0  0.034222183319854604  0.5510291653953392  0.8413586597717958  1.0000
  N   N9        1.0  0.47801547848923953  0.41475526124581563  0.17018755909488972  1.0000
  C   C417      1.0  0.45372576726254027  0.40685107894132333  0.14281190639504526  1.0000
  C   C418      1.0  0.49036873725117713  0.4533415955723401  0.1641257168083987  1.0000
  C   C419      1.0  0.5032603963899038  0.3867154867286339  0.16646868426143513  1.0000
  C   C420      1.0  0.4647534826481134  0.4121182841404626  0.20730881420313646  1.0000
  H   H353      1.0  0.44206130440390873  0.3792583499739278  0.14820666168415775  1.0000
  H   H354      1.0  0.4633936010873125  0.4058491172522216  0.11467659739978807  1.0000
  H   H355      1.0  0.43560597462021006  0.42927286296538747  0.1427582654817079  1.0000
  H   H356      1.0  0.4719218599863773  0.4752347336227367  0.16662543983343445  1.0000
  H   H357      1.0  0.5088166419809486  0.46022724030101436  0.184188314789497  1.0000
  H   H358      1.0  0.5004957488866411  0.4563255060434161  0.13635515339629212  1.0000
  H   H359      1.0  0.5216054451555963  0.39128799864056024  0.18730290824844287  1.0000
  H   H360      1.0  0.5143392716145613  0.38866436315808606  0.13905875598872997  1.0000
  H   H361      1.0  0.4945574729967641  0.3572501030401596  0.17009983986617708  1.0000
  H   H362      1.0  0.48231589099635774  0.4185489760097948  0.228681221338876  1.0000
  H   H363      1.0  0.45573163717665066  0.383142950358579  0.21311812487193155  1.0000
  H   H364      1.0  0.44503707772176543  0.43215031655998426  0.21081413432215254  1.0000
  N   N10       1.0  0.6226757368575874  0.8205335997306119  0.3148622651173038  1.0000
  C   C421      1.0  0.5951082765274294  0.8286930911560656  0.29216136719412605  1.0000
  C   C422      1.0  0.6176727125545116  0.8347390479818608  0.3523200825022306  1.0000
  C   C423      1.0  0.6499220770770233  0.8394857771420623  0.29864384937221966  1.0000
  C   C424      1.0  0.6279816623374981  0.7791193455000226  0.31619034677473795  1.0000
  H   H365      1.0  0.598526682715444  0.819121981452605  0.26348696552922735  1.0000
  H   H366      1.0  0.5898396173306372  0.8595732017657047  0.29118982528929443  1.0000
  H   H367      1.0  0.5742109937857506  0.8137297472636466  0.3026143073599724  1.0000
  H   H368      1.0  0.6378733573223572  0.8284292453834686  0.37029851651900525  1.0000
  H   H369      1.0  0.614127606837954  0.8660092185625314  0.3525294208947738  1.0000
  H   H370      1.0  0.5970546517869098  0.8213501710623173  0.3651657400369975  1.0000
  H   H371      1.0  0.6540215168054596  0.8299481058029139  0.2701014957342971  1.0000
  H   H372      1.0  0.6713999647063228  0.8333623388227844  0.3143980136918566  1.0000
  H   H373      1.0  0.6470569002147338  0.8708410938186096  0.29768040011842534  1.0000
  H   H374      1.0  0.6488679022769352  0.7717720574458303  0.33264608197448664  1.0000
  H   H375      1.0  0.6314612463291666  0.7674729868784403  0.2883575450675569  1.0000
  H   H376      1.0  0.6079367117780055  0.7639106788472676  0.32839376189788616  1.0000
  N   N11       1.0  0.9303155029832924  0.9571575159522381  0.15536969510539045  1.0000
  C   C425      1.0  0.9420164339071887  0.9960123982713927  0.14912021211887022  1.0000
  C   C426      1.0  0.9332968003927319  0.9473149420783946  0.1945179869616565  1.0000
  C   C427      1.0  0.9486824805938763  0.9301727455246636  0.1334368165480615  1.0000
  C   C428      1.0  0.8973909773831895  0.9551881369765121  0.1444000708651021  1.0000
  H   H377      1.0  0.940186940451361  0.004415951067139989  0.11983481175879751  1.0000
  H   H378      1.0  0.9667961893650271  0.998644385553568  0.15697544959971443  1.0000
  H   H379      1.0  0.9288325475428701  0.01730941451499901  0.16520303401468753  1.0000
  H   H380      1.0  0.9252516382724004  0.9178695183713383  0.20016218004056577  1.0000
  H   H381      1.0  0.9577872971177053  0.9490655378396307  0.20381936151842048  1.0000
  H   H382      1.0  0.9194861593947515  0.9668272352851304  0.2119016822836327  1.0000
  H   H383      1.0  0.9470672064254538  0.9367834903998249  0.10372869587557232  1.0000
  H   H384      1.0  0.9407436981606719  0.9004359512387485  0.13761306837581544  1.0000
  H   H385      1.0  0.973637340371843  0.9311788985405023  0.14099117223642454  1.0000
  H   H386      1.0  0.8877475984667449  0.9262304500297787  0.14865626971203283  1.0000
  H   H387      1.0  0.8942188174116515  0.9627148873657543  0.11505802384674847  1.0000
  H   H388      1.0  0.8827826249362981  0.9751219659115972  0.16049575723268264  1.0000
  N   N12       1.0  0.8698667106384056  0.1630633531765975  0.17441939049222488  1.0000
  C   C429      1.0  0.89382531132928  0.13730397846428  0.1893253522667584  1.0000
  C   C430      1.0  0.8646358236666005  0.15455752040395843  0.13544359313852472  1.0000
  C   C431      1.0  0.8803834575263685  0.20269549792521513  0.17801353805732467  1.0000
  C   C432      1.0  0.8407173058826234  0.15782593308302606  0.19490091704301138  1.0000
  H   H389      1.0  0.8975143529152555  0.14215079903966754  0.21903920651155673  1.0000
  H   H390      1.0  0.9165131708601911  0.1416834952296655  0.17553408784160762  1.0000
  H   H391      1.0  0.8874088880213692  0.10702398396876434  0.18551429463341673  1.0000
  H   H392      1.0  0.8466800822471817  0.1734265323092898  0.12331233327943192  1.0000
  H   H393      1.0  0.8862212823212935  0.15829847225482085  0.11931060174519126  1.0000
  H   H394      1.0  0.8567119146948473  0.12485408813693265  0.1316231362817999  1.0000
  H   H395      1.0  0.8840336321239877  0.21021794345492345  0.2070988479857312  1.0000
  H   H396      1.0  0.8631152043515473  0.22290484289899046  0.1665488877398238  1.0000
  H   H397      1.0  0.9026777057853145  0.20748205325139768  0.16353603143963058  1.0000
  H   H398      1.0  0.8222217732496783  0.17705950822081631  0.1845431995491451  1.0000
  H   H399      1.0  0.8438919202031732  0.16403338322180927  0.22448096047267696  1.0000
  H   H400      1.0  0.8319631505244466  0.12825854044039686  0.1924981251741702  1.0000
  N   N13       1.0  0.7506453540688212  0.6344171107616293  0.1371120995633628  1.0000
  C   C433      1.0  0.7495981165927612  0.6763078490787329  0.13564275405289505  1.0000
  C   C434      1.0  0.7740689818738872  0.6222048573535913  0.16419713649748477  1.0000
  C   C435      1.0  0.7588966049866832  0.6195170924180504  0.10071451258639708  1.0000
  C   C436      1.0  0.7199956544818008  0.6196531731603229  0.14800130958388147  1.0000
  H   H401      1.0  0.7321076986625046  0.6866618042684093  0.11557834183521232  1.0000
  H   H402      1.0  0.7724775274604102  0.6885409862021163  0.12810409363347897  1.0000
  H   H403      1.0  0.7431050573345677  0.6883200219438776  0.16255261052882483  1.0000
  H   H404      1.0  0.77532897762487  0.5906888588226566  0.16618162419975374  1.0000
  H   H405      1.0  0.7974903044500267  0.6329617798504491  0.1569673883244606  1.0000
  H   H406      1.0  0.7685696647174135  0.6331137824224229  0.19191307580726585  1.0000
  H   H407      1.0  0.7596796234715262  0.5879342206178066  0.10082166791481773  1.0000
  H   H408      1.0  0.7820139639757169  0.6298633979311772  0.09166748963680771  1.0000
  H   H409      1.0  0.7417162036557672  0.6283243673652611  0.07964468590208584  1.0000
  H   H410      1.0  0.7197704973612823  0.5880549089263504  0.14868600413908273  1.0000
  H   H411      1.0  0.7015403912024559  0.6292053914875907  0.128793888522865  1.0000
  H   H412      1.0  0.7133216834810716  0.6297830366861676  0.1756648023924061  1.0000
  N   N14       1.0  0.6848128248456913  0.8820079854070421  0.7152876433723147  1.0000
  C   C437      1.0  0.6670005627411072  0.8792502058975549  0.7496389572532569  1.0000
  C   C438      1.0  0.701011801763849  0.9188691402832758  0.7138799434527356  1.0000
  C   C439      1.0  0.6635580405585557  0.879082143220957  0.6837353246066843  1.0000
  C   C440      1.0  0.7076874843192221  0.8508341674931788  0.7138851766270778  1.0000
  H   H413      1.0  0.6537077398689575  0.8522603219846356  0.7512235411509776  1.0000
  H   H414      1.0  0.6500258905785805  0.9028477019593456  0.7519412811564806  1.0000
  H   H415      1.0  0.6824006129764272  0.8806661366116854  0.7739632657714932  1.0000
  H   H416      1.0  0.718520270505424  0.9213733182962797  0.7361061864349753  1.0000
  H   H417      1.0  0.7131107468016569  0.9227489738582554  0.6874017761953944  1.0000
  H   H418      1.0  0.6845129351003586  0.9429177614068205  0.7169507878673279  1.0000
  H   H419      1.0  0.6477816702226207  0.9039221956086738  0.6819285784412932  1.0000
  H   H420      1.0  0.6487783111483115  0.8534130791528568  0.6857093709699249  1.0000
  H   H421      1.0  0.676374038877676  0.877311356616028  0.6574233954053479  1.0000
  H   H422      1.0  0.7212124819717255  0.8516168273196411  0.687998610577478  1.0000
  H   H423      1.0  0.6961303085153167  0.8226604825268763  0.715130745548577  1.0000
  H   H424      1.0  0.7244297656690197  0.8523295922240304  0.7369419641392176  1.0000
  N   N15       1.0  0.3856607080977445  0.30770325353419775  0.42396367754548586  1.0000
  C   C441      1.0  0.404848129668283  0.33011482906019374  0.3984161261756003  1.0000
  C   C442      1.0  0.37492807973494857  0.3322400037814269  0.4540497800765256  1.0000
  C   C443      1.0  0.404308162500365  0.2761608205222979  0.43912787157721245  1.0000
  C   C444      1.0  0.3586102050520321  0.29223981998814597  0.4042712010308006  1.0000
  H   H425      1.0  0.4132251059067123  0.31232795731692226  0.37536314987056013  1.0000
  H   H426      1.0  0.425524527430967  0.34203825697982787  0.41234523904341097  1.0000
  H   H427      1.0  0.39150522773471147  0.354151470040869  0.38635377931493264  1.0000
  H   H428      1.0  0.3602908934285509  0.31613655918000955  0.4737429940214634  1.0000
  H   H429      1.0  0.3947143192299391  0.34405294173211115  0.4697814743431067  1.0000
  H   H430      1.0  0.3607586975662092  0.35636555742373544  0.44363149847971783  1.0000
  H   H431      1.0  0.3903085787821544  0.25833418097897254  0.4578916113467662  1.0000
  H   H432      1.0  0.4246378827305513  0.2866589862479167  0.45479420886428035  1.0000
  H   H433      1.0  0.4129206434067812  0.25716986194562563  0.41722518714943163  1.0000
  H   H434      1.0  0.3436072451712315  0.2751386848218763  0.42259353101393715  1.0000
  H   H435      1.0  0.3658225194099497  0.2731884217825922  0.38168128975335663  1.0000
  H   H436      1.0  0.3439053102100144  0.3151800209528492  0.39248033159007967  1.0000
  N   N16       1.0  0.8945117502820562  0.08078067485830531  0.9246076156524792  1.0000
  C   C445      1.0  0.9057088438330722  0.06227063301297764  0.958467754543389  1.0000
  C   C446      1.0  0.8742385000086844  0.1130685784600687  0.9340068214243145  1.0000
  C   C447      1.0  0.8768991938790026  0.05307616226166668  0.9027271318906533  1.0000
  C   C448      1.0  0.9211715779519647  0.0947170698208093  0.9031831290391668  1.0000
  H   H437      1.0  0.9209448084142806  0.03761611596745462  0.9522578748362135  1.0000
  H   H438      1.0  0.8861811721460064  0.05193680493809128  0.975633794486369  1.0000
  H   H439      1.0  0.9195990491315663  0.08215432444542015  0.9753767799332866  1.0000
  H   H440      1.0  0.8869534043679536  0.13469919439420042  0.9501224138356592  1.0000
  H   H441      1.0  0.8650457166257968  0.12731275083154547  0.909050290852892  1.0000
  H   H442      1.0  0.8540841187503179  0.10365281190081221  0.9506287845473972  1.0000
  H   H443      1.0  0.8678326773537253  0.06619748095754519  0.8771178116781836  1.0000
  H   H444      1.0  0.856902413422092  0.04148640778004675  0.9182601157797479  1.0000
  H   H445      1.0  0.8918057297083036  0.02880668042083734  0.8943467810310425  1.0000
  H   H446      1.0  0.9135800488627446  0.10966087501902089  0.8778717976200847  1.0000
  H   H447      1.0  0.9364812180318817  0.0708973764928662  0.8945696918252029  1.0000
  H   H448      1.0  0.9356582927943962  0.11464657090542807  0.9192561631946777  1.0000
  N   N17       1.0  0.4264465258772088  0.17766097214982737  0.7034025622085304  1.0000
  C   C449      1.0  0.39335666836512423  0.18004728012275178  0.6933423977628181  1.0000
  C   C450      1.0  0.44069134655108355  0.21568215300505145  0.7011281209226067  1.0000
  C   C451      1.0  0.44241819477799404  0.15188373619379147  0.677934072483632  1.0000
  C   C452      1.0  0.4294193725063186  0.16287519251889515  0.7411235618723798  1.0000
  H   H449      1.0  0.3818060778174813  0.1519562460515116  0.6958199568393892  1.0000
  H   H450      1.0  0.39036769974234764  0.1898140302989657  0.6645767128004129  1.0000
  H   H451      1.0  0.380742027607821  0.20051340158181127  0.7109564340612159  1.0000
  H   H452      1.0  0.46527693400499665  0.21505582460037792  0.7101756190881774  1.0000
  H   H453      1.0  0.44028533238086853  0.22681364053752442  0.672660892838011  1.0000
  H   H454      1.0  0.42815234727731477  0.2366137856898536  0.718372345859255  1.0000
  H   H455      1.0  0.43394764277320363  0.12241347861259479  0.6810794139016545  1.0000
  H   H456      1.0  0.4677957534431837  0.15150155503297258  0.6827577456638837  1.0000
  H   H457      1.0  0.43859046038381067  0.16021281579209745  0.6489249078633065  1.0000
  H   H458      1.0  0.4541426649425025  0.16003705713267746  0.7493448089717809  1.0000
  H   H459      1.0  0.4187537470824652  0.13426938331150162  0.7439728294915381  1.0000
  H   H460      1.0  0.41794256723761775  0.18192867275714222  0.761126733656046  1.0000
  N   N18       1.0  0.43576501343008145  0.9621893482978925  0.10549726391208458  1.0000
  C   C453      1.0  0.44496977390916714  0.9921255964402755  0.07938643707185467  1.0000
  C   C454      1.0  0.4017211910500284  0.9619486255897556  0.10941850999474712  1.0000
  C   C455      1.0  0.4502426883195022  0.96965899531848  0.1413460330641736  1.0000
  C   C456      1.0  0.4463201101502165  0.9250167752455033  0.0918320007843989  1.0000
  H   H461      1.0  0.4376496918939853  0.020659485990466298  0.08893188566572885  1.0000
  H   H462      1.0  0.4345872287196456  0.9875647832400403  0.05189912096386151  1.0000
  H   H463      1.0  0.47050607797856325  0.9926945681543456  0.07566645828781615  1.0000
  H   H464      1.0  0.3941545259763842  0.9397034562767329  0.12919223714165273  1.0000
  H   H465      1.0  0.392900537403424  0.9897643452159401  0.11932801288504402  1.0000
  H   H466      1.0  0.3900678131889706  0.9562497066996817  0.08286759991236403  1.0000
  H   H467      1.0  0.4438775670787876  0.9475498542302581  0.1617847021457901  1.0000
  H   H468      1.0  0.4428708975430352  0.9975808018090296  0.1524193115487491  1.0000
  H   H469      1.0  0.47595894961023427  0.969758436659296  0.13934937569296624  1.0000
  H   H470      1.0  0.43851200589015915  0.9015695638311932  0.10997330200465227  1.0000
  H   H471      1.0  0.47202363558719695  0.9235585500190324  0.09048096530804184  1.0000
  H   H472      1.0  0.43727886563988455  0.9192970175311618  0.0639242409858829  1.0000
  N   N19       1.0  0.9254168816900702  0.6415172752514201  0.16566332571827536  1.0000
  C   C457      1.0  0.9265773165620792  0.6279577088364325  0.1275657645509103  1.0000
  C   C458      1.0  0.894330871606617  0.634489557413523  0.1810562282850713  1.0000
  C   C459      1.0  0.9318594898588675  0.6826448831820897  0.1663526677560288  1.0000
  C   C460      1.0  0.9489210511183317  0.6210408025229427  0.18757254630026046  1.0000
  H   H473      1.0  0.9498454597903518  0.6325705545465327  0.11526474594133118  1.0000
  H   H474      1.0  0.909409992653111  0.6430692441982291  0.1100783704835422  1.0000
  H   H475      1.0  0.9216512490046839  0.5969896485409217  0.12599371353058642  1.0000
  H   H476      1.0  0.8926359688333296  0.6447971341527071  0.20968343061522848  1.0000
  H   H477      1.0  0.8760367111770476  0.6493650538312062  0.16498860850809435  1.0000
  H   H478      1.0  0.8887202748917433  0.6036697168050696  0.181199451013487  1.0000
  H   H479      1.0  0.954501614821416  0.6892108614416765  0.1536964138924631  1.0000
  H   H480      1.0  0.9324834282106953  0.6937233669927386  0.19475110459281694  1.0000
  H   H481      1.0  0.9141259533543061  0.699023505563162  0.15082547446364378  1.0000
  H   H482      1.0  0.9447809388994646  0.589825223008379  0.18733085726444873  1.0000
  H   H483      1.0  0.9487997838488074  0.6304321215627537  0.21652267534297046  1.0000
  H   H484      1.0  0.9726224279072005  0.6258574726765975  0.17665860652379162  1.0000
  N   N20       1.0  0.9845852349227167  0.7726370046612832  0.4005271392430956  1.0000
  C   C461      1.0  0.9762806958825969  0.7511759251351335  0.4338505361265476  1.0000
  C   C462      1.0  0.9615141379564203  0.8030235554546593  0.3942709682331298  1.0000
  C   C463      1.0  0.9848860327061185  0.7466657154718642  0.3689679482216927  1.0000
  C   C464      1.0  0.01559239685692515  0.7896492206396316  0.40510544371990403  1.0000
  H   H485      1.0  0.9755846933090938  0.7700344058350077  0.45805183914403985  1.0000
  H   H486      1.0  0.9932610719996043  0.7281846424301417  0.4397530742888783  1.0000
  H   H487      1.0  0.9529430054258304  0.738140618952598  0.43139229769582826  1.0000
  H   H488      1.0  0.9664427180999011  0.819252649764776  0.3688272646171475  1.0000
  H   H489      1.0  0.9377445624670376  0.791282713988386  0.3914076992728463  1.0000
  H   H490      1.0  0.9610704891829634  0.8235532617439214  0.4172742157280331  1.0000
  H   H491      1.0  0.002018047908955989  0.723366866546967  0.3727149722560284  1.0000
  H   H492      1.0  0.9911073369000314  0.7618955433020344  0.34339500123103905  1.0000
  H   H493      1.0  0.961719887389906  0.7337392662484418  0.364380462641483  1.0000
  H   H494      1.0  0.022564602405289014  0.8060447107018981  0.3803841578411189  1.0000
  H   H495      1.0  0.033620830393089385  0.7675339719864891  0.40970088840070107  1.0000
  H   H496      1.0  0.016225305814822732  0.8093134228182962  0.4288444528475286  1.0000
  N   N21       1.0  0.37687404906965016  0.6752894670076941  0.11023981470907285  1.0000
  C   C465      1.0  0.4006217979327218  0.6507538702882935  0.1273588073492553  1.0000
  C   C466      1.0  0.3458433983585951  0.6590472789381849  0.11678015426905719  1.0000
  C   C467      1.0  0.38261696153234515  0.6777871936570238  0.0705067238281647  1.0000
  C   C468      1.0  0.3783803676720213  0.7136470416897037  0.12623532107515945  1.0000
  H   H497      1.0  0.4242594079692639  0.6624572752652627  0.12306364120586166  1.0000
  H   H498      1.0  0.4002197085573659  0.6216591167958809  0.11558074327834046  1.0000
  H   H499      1.0  0.3969082151790033  0.6480909567539607  0.15731663833750223  1.0000
  H   H500      1.0  0.3273706925457867  0.6770592421424989  0.10440041215953277  1.0000
  H   H501      1.0  0.3437947831551557  0.6301277162815274  0.10487535219089383  1.0000
  H   H502      1.0  0.34076807416495597  0.6567515391124263  0.1465091283824338  1.0000
  H   H503      1.0  0.3651041705878223  0.6960372009524022  0.056674790401920694  1.0000
  H   H504      1.0  0.3817390877741477  0.6493007775842358  0.057553025673998004  1.0000
  H   H505      1.0  0.40583654577986916  0.690007396906217  0.06465618464707257  1.0000
  H   H506      1.0  0.37383386151192904  0.7131095931742768  0.1561630618853887  1.0000
  H   H507      1.0  0.36076891894899116  0.7327197580497924  0.11371136286035344  1.0000
  H   H508      1.0  0.40147371342411226  0.7269268154152251  0.12195522731767496  1.0000
  N   N22       1.0  0.5358410196802056  0.6485461396122038  0.9187656308982809  1.0000
  C   C469      1.0  0.557106442854758  0.6172921621444076  0.9288881590409229  1.0000
  C   C470      1.0  0.5145520579341931  0.63575083954282  0.8897006712101886  1.0000
  C   C471      1.0  0.554132183181756  0.6811972375998472  0.9055237838719978  1.0000
  C   C472      1.0  0.5177381992723079  0.6600909571057257  0.9510505122185271  1.0000
  H   H509      1.0  0.5739372009199459  0.6264136478099899  0.9501546815767334  1.0000
  H   H510      1.0  0.5708017643349219  0.6075184585753349  0.9049521586269207  1.0000
  H   H511      1.0  0.5443572889288193  0.5924307301066916  0.9401099800234111  1.0000
  H   H512      1.0  0.4982438950100609  0.6586634660070909  0.8812972629225764  1.0000
  H   H513      1.0  0.5273656084307775  0.6273898405550178  0.8647420262500298  1.0000
  H   H514      1.0  0.5007265110543373  0.610724052735547  0.8985643868343819  1.0000
  H   H515      1.0  0.5390557347519799  0.7043848511432874  0.894843556919917  1.0000
  H   H516      1.0  0.5699272745203037  0.6726183804939794  0.8831895020341056  1.0000
  H   H517      1.0  0.5689698638524603  0.6931314283974038  0.9275236254681939  1.0000
  H   H518      1.0  0.5008455053711905  0.6829020914294599  0.9441939381245307  1.0000
  H   H519      1.0  0.5331276901022527  0.6712413898109042  0.9727971558311951  1.0000
  H   H520      1.0  0.5047677080509325  0.635773174454975  0.9630164519647556  1.0000
  N   N23       1.0  0.12482631089272593  0.17056328075221394  0.15801271416397902  1.0000
  C   C473      1.0  0.11449982607628666  0.20705080638077678  0.14202100630339953  1.0000
  C   C474      1.0  0.10037716541440206  0.14179558136516612  0.152868668886305  1.0000
  C   C475      1.0  0.1307756767335243  0.17550431542853762  0.19746640653652678  1.0000
  C   C476      1.0  0.15355211257950563  0.15792308964879775  0.13979209460499067  1.0000
  H   H521      1.0  0.13222046813856628  0.22959218354268773  0.14567802954522158  1.0000
  H   H522      1.0  0.0926805003804077  0.21709984526949588  0.15501884781331735  1.0000
  H   H523      1.0  0.10979509330004467  0.20434704213238808  0.11223330572688185  1.0000
  H   H524      1.0  0.09535342866077362  0.1373157967050893  0.12340874972124904  1.0000
  H   H525      1.0  0.10719605850756497  0.11393795783287697  0.164835804530196  1.0000
  H   H526      1.0  0.07826022172525854  0.1507117696080873  0.16596239616718034  1.0000
  H   H527      1.0  0.13945190272524075  0.14877390645622612  0.21021344807657916  1.0000
  H   H528      1.0  0.10930766829143819  0.18402527714524597  0.21215489094982667  1.0000
  H   H529      1.0  0.14851325371413057  0.1977949256768614  0.20241620040869868  1.0000
  H   H530      1.0  0.15010488741836908  0.154412778707272  0.10986849248662067  1.0000
  H   H531      1.0  0.16174676930264478  0.13020186776367138  0.15093039286669588  1.0000
  H   H532      1.0  0.17272486359844624  0.17855392462516395  0.14380699831641897  1.0000
  N   N24       1.0  0.42864240125389286  0.9098066954632479  0.7888114860964044  1.0000
  C   C477      1.0  0.43634041459090356  0.9471947563332986  0.8044049501040585  1.0000
  C   C478      1.0  0.4165571115523668  0.9148489521183765  0.751312928641243  1.0000
  C   C479      1.0  0.40500553190480826  0.8909832509728826  0.8117069820007876  1.0000
  C   C480      1.0  0.45673581245591643  0.8860073463767754  0.787769867001094  1.0000
  H   H533      1.0  0.45428552104671305  0.9621414702522108  0.7879726842435119  1.0000
  H   H534      1.0  0.44514028778459563  0.9444656911669966  0.8328380102160033  1.0000
  H   H535      1.0  0.4157008934149429  0.9660152456311187  0.8052469678546859  1.0000
  H   H536      1.0  0.43374665513740557  0.9289535542605498  0.7332465422672859  1.0000
  H   H537      1.0  0.4102943804396985  0.8871616611835356  0.7388443459624878  1.0000
  H   H538      1.0  0.3951613941433266  0.9322967642172988  0.7511142413688146  1.0000
  H   H539      1.0  0.3970346754968081  0.8639106954268521  0.7991752705318896  1.0000
  H   H540      1.0  0.38421501369143163  0.9092448625891665  0.815124719225272  1.0000
  H   H541      1.0  0.41400276385127743  0.8843682027496054  0.8394810995309122  1.0000
  H   H542      1.0  0.4515055475601245  0.857597571968945  0.7763456568238616  1.0000
  H   H543      1.0  0.4666780814069992  0.8815581842046442  0.8155308127822161  1.0000
  H   H544      1.0  0.47514425083610495  0.8991346910959715  0.7706464116474674  1.0000
  N   N25       1.0  0.9079722722289116  0.4526777387976754  0.6459972045856434  1.0000
  C   C481      1.0  0.8854907366505336  0.44439807512323853  0.6166173451283113  1.0000
  C   C482      1.0  0.9275114096487476  0.4852000048847899  0.6351669677354522  1.0000
  C   C483      1.0  0.9278493607822211  0.419097603653408  0.6521708400420129  1.0000
  C   C484      1.0  0.8912372817446735  0.4619946845699437  0.6799886257255439  1.0000
  H   H545      1.0  0.8704744589730875  0.419820845703385  0.6237786626179742  1.0000
  H   H546      1.0  0.8973712048293792  0.4371626659604442  0.5905648461178422  1.0000
  H   H547      1.0  0.8701012117449229  0.46905282166641493  0.610882858893627  1.0000
  H   H548      1.0  0.9447831837826722  0.4919672657072473  0.6568471714881088  1.0000
  H   H549      1.0  0.9405282535142159  0.4791115115245202  0.6096370454302827  1.0000
  H   H550      1.0  0.9133651033869584  0.5111579777031696  0.6303062756498764  1.0000
  H   H551      1.0  0.9456252433530247  0.42438898123524493  0.6735774419993236  1.0000
  H   H552      1.0  0.9403419238205293  0.4110488307125375  0.6268366583801803  1.0000
  H   H553      1.0  0.9141627805287686  0.3940017452490054  0.6610801389428829  1.0000
  H   H554      1.0  0.9076041491265413  0.4688015149149718  0.7025784375549736  1.0000
  H   H555      1.0  0.8765880969231028  0.43789906025307623  0.6893920545115617  1.0000
  H   H556      1.0  0.8758050025204117  0.4870055739377482  0.6762838742378827  1.0000
  N   N26       1.0  0.8502068313475901  0.5308794656851445  0.9277584766220731  1.0000
  C   C485      1.0  0.8355273303478089  0.5681716033457942  0.9210312129329207  1.0000
  C   C486      1.0  0.8272396757047537  0.5048657160280127  0.9440645544620881  1.0000
  C   C487      1.0  0.8764462918149252  0.5353550174390644  0.9532235500432537  1.0000
  C   C488      1.0  0.8615750231565027  0.5151114639172775  0.8929094569052208  1.0000
  H   H557      1.0  0.8520925084352522  0.5885902354816901  0.9086189091556631  1.0000
  H   H558      1.0  0.8270146153583202  0.5809351156569892  0.9469355931201034  1.0000
  H   H559      1.0  0.8152561408734232  0.5656090086769047  0.902346672739153  1.0000
  H   H560      1.0  0.8373153100776709  0.47635983157367584  0.9495145551499908  1.0000
  H   H561      1.0  0.8183867128190291  0.5159715030356259  0.9704135739029676  1.0000
  H   H562      1.0  0.8069335308706325  0.5010743022799565  0.9258567193852908  1.0000
  H   H563      1.0  0.888346908454121  0.5079694801793874  0.9581212482575908  1.0000
  H   H564      1.0  0.8686298788482926  0.5459044497717329  0.9802452249099013  1.0000
  H   H565      1.0  0.8939763580014769  0.5555371767709258  0.9424714547282609  1.0000
  H   H566      1.0  0.8799760731745084  0.5331983324399746  0.8807707528796674  1.0000
  H   H567      1.0  0.8426445358760994  0.5129329914744953  0.8724488469155511  1.0000
  H   H568      1.0  0.8715353984408266  0.48618993725886644  0.8967908355093602  1.0000
  N   N27       1.0  0.9894205089030805  0.36952321760345247  0.3448251943792748  1.0000
  C   C489      1.0  0.9780620770672119  0.40764460020200255  0.3343371955489704  1.0000
  C   C490      1.0  0.9792077662738867  0.36025448211815314  0.3823686098996003  1.0000
  C   C491      1.0  0.02359774392004521  0.3689030929069942  0.3432472406911411  1.0000
  C   C492      1.0  0.9767893467858564  0.3412863511185735  0.31914673691766693  1.0000
  H   H569      1.0  0.9851006844802396  0.4151065453357408  0.3058748574093965  1.0000
  H   H570      1.0  0.9872248539718064  0.429942347216881  0.352754838397879  1.0000
  H   H571      1.0  0.9523195742483868  0.4090820592567441  0.3350867318312597  1.0000
  H   H572      1.0  0.9875525847297653  0.3317218609143839  0.39120621226193913  1.0000
  H   H573      1.0  0.9881855389378524  0.3810997840650768  0.402474280192229  1.0000
  H   H574      1.0  0.9535083502565986  0.3602215170752003  0.38456547942242736  1.0000
  H   H575      1.0  0.0330310093431907  0.3405779923197167  0.35101925940833595  1.0000
  H   H576      1.0  0.03394275244758149  0.3900127374279383  0.36212801042283155  1.0000
  H   H577      1.0  0.03206155705420621  0.3756109936531937  0.31525368981779034  1.0000
  H   H578      1.0  0.9860050890375673  0.3124973683580811  0.3249088194813924  1.0000
  H   H579      1.0  0.9826416443892785  0.3486974153648675  0.2902927001431777  1.0000
  H   H580      1.0  0.951099901048467  0.3399074949940034  0.3207767686226414  1.0000
  N   N28       1.0  0.5219955631867413  0.020241928714284096  0.8863735267326283  1.0000
  C   C493      1.0  0.5344592856566498  0.030390057605651277  0.850037823596144  1.0000
  C   C494      1.0  0.506255718068859  0.9831341061534847  0.8842972940165489  1.0000
  C   C495      1.0  0.49958569817772225  0.04943413276445874  0.8981541937149836  1.0000
  C   C496      1.0  0.5475887600676771  0.018031840133689192  0.9130939497662848  1.0000
  H   H581      1.0  0.5448575127235807  0.059255530820683244  0.8500425692370994  1.0000
  H   H582      1.0  0.5160040546384794  0.03014675415665491  0.8288472483272057  1.0000
  H   H583      1.0  0.5527036386285712  0.010169834683557033  0.8411261441746216  1.0000
  H   H584      1.0  0.5222561923836931  0.9604522971383171  0.8747810693054157  1.0000
  H   H585      1.0  0.49703491636311026  0.9743602636835446  0.9114672613868066  1.0000
  H   H586      1.0  0.4863215379074633  0.9844117003769531  0.8650454996169762  1.0000
  H   H587      1.0  0.4895865324196391  0.0425019030622511  0.9253362448761533  1.0000
  H   H588      1.0  0.47994565016158697  0.05212774371374107  0.8787228856531416  1.0000
  H   H589      1.0  0.5105156703392317  0.07785763066600349  0.9001324771593758  1.0000
  H   H590      1.0  0.5597669216453236  0.04575703733103165  0.9153104308935275  1.0000
  H   H591      1.0  0.564954631466055  0.9962709580179687  0.9051514820433421  1.0000
  H   H592      1.0  0.5388856166262197  0.010329309845910073  0.9408052518706534  1.0000
  N   N29       1.0  0.6751030746735817  0.6684395308847497  0.7083057526171925  1.0000
  C   C497      1.0  0.666210623137364  0.6345033433087781  0.6872368210260822  1.0000
  C   C498      1.0  0.7001057699379871  0.6584810423733262  0.7342346317414692  1.0000
  C   C499      1.0  0.6479932004510993  0.6826200989800094  0.72877717134507  1.0000
  C   C500      1.0  0.6862265377079431  0.6980811523311963  0.6828639738953826  1.0000
  H   H593      1.0  0.6470980734930957  0.6408248850178176  0.6677202330203363  1.0000
  H   H594      1.0  0.6583788990360899  0.6110711513372149  0.7054449513070931  1.0000
  H   H595      1.0  0.686069454794032  0.6234822868940831  0.6711081492247848  1.0000
  H   H596      1.0  0.7075649495067282  0.6834767933057064  0.7504352738434037  1.0000
  H   H597      1.0  0.6924757850205548  0.6364338233180664  0.7540178895143682  1.0000
  H   H598      1.0  0.7207718912480161  0.6470137899753562  0.7198331667737233  1.0000
  H   H599      1.0  0.654016459372693  0.7077548625160751  0.7456198116825152  1.0000
  H   H600      1.0  0.6388465876597114  0.6606111860787905  0.747860272528867  1.0000
  H   H601      1.0  0.6288170691775189  0.6910789419133356  0.7100715787847386  1.0000
  H   H602      1.0  0.6930760421326696  0.724291470114661  0.6975816267567044  1.0000
  H   H603      1.0  0.6681353367204758  0.7061067619101341  0.6625482202991891  1.0000
  H   H604      1.0  0.7067918843870176  0.6883666507210766  0.6671616448128003  1.0000
  N   N30       1.0  0.438521118145142  0.1915398635990222  0.1655560731134977  1.0000
  C   C501      1.0  0.45556947740512893  0.1596753204376553  0.14883207242537777  1.0000
  C   C502      1.0  0.41338632124768193  0.2039826347336522  0.14080097119242607  1.0000
  C   C503      1.0  0.45992848513053314  0.22347910400439486  0.17181604102926934  1.0000
  C   C504      1.0  0.42522114459178856  0.1790183082398391  0.20077521691190198  1.0000
  H   H605      1.0  0.4748575376120084  0.1497158614279488  0.1666546536891061  1.0000
  H   H606      1.0  0.4656856800265582  0.1679933708804553  0.12199361683747645  1.0000
  H   H607      1.0  0.43997802835751215  0.1351640558186562  0.14365965358792732  1.0000
  H   H608      1.0  0.4006796755429783  0.22884044478625487  0.15196124867494268  1.0000
  H   H609      1.0  0.42234581286578515  0.2119433546165992  0.11333022609710541  1.0000
  H   H610      1.0  0.3960646689850814  0.18105629630616749  0.13664095036500257  1.0000
  H   H611      1.0  0.4480179966031393  0.24751679840665997  0.18557278993872223  1.0000
  H   H612      1.0  0.46972898394966656  0.23419691334738735  0.14565063780924747  1.0000
  H   H613      1.0  0.47967283792085524  0.21473594405624197  0.18946920408876877  1.0000
  H   H614      1.0  0.4123088491074843  0.20237127303112956  0.21423808114036136  1.0000
  H   H615      1.0  0.4434902191009674  0.16926089317388282  0.22009988155276444  1.0000
  H   H616      1.0  0.40841458104142697  0.15545769959611344  0.19692656787834134  1.0000
  N   N31       1.0  0.8786631699229581  0.8751803093143742  0.5981113191242561  1.0000
  C   C505      1.0  0.9069968138492471  0.8866193127528759  0.5783468217590253  1.0000
  C   C506      1.0  0.8513023562442701  0.8821505566864534  0.5747553593332939  1.0000
  C   C507      1.0  0.8758243510967362  0.8975240632394105  0.6320257172592884  1.0000
  C   C508      1.0  0.8805013053931232  0.8343553390283691  0.6073102869762952  1.0000
  H   H617      1.0  0.9280916128973552  0.8820315925069336  0.5953686694069438  1.0000
  H   H618      1.0  0.906305587251267  0.9171538107421292  0.5705512529453967  1.0000
  H   H619      1.0  0.9100507306539478  0.869981871454577  0.5527923812744572  1.0000
  H   H620      1.0  0.8295958332142513  0.872782362769082  0.5883949949874271  1.0000
  H   H621      1.0  0.8485513840319364  0.9128118031743644  0.5680022204394197  1.0000
  H   H622      1.0  0.8529309314244488  0.8665803728109095  0.548539099749979  1.0000
  H   H623      1.0  0.8545798630198227  0.8897342506100568  0.6475332398323896  1.0000
  H   H624      1.0  0.8743309831281638  0.928479940881007  0.6260283673349313  1.0000
  H   H625      1.0  0.896119976602676  0.8929371647897183  0.6503504101610359  1.0000
  H   H626      1.0  0.8594162936441045  0.8245813569880391  0.622004281638115  1.0000
  H   H627      1.0  0.9008861781199178  0.8280398068947009  0.624983458080644  1.0000
  H   H628      1.0  0.8827302696135176  0.8167496148046831  0.582285203728686  1.0000
  N   N32       1.0  0.6547757209024705  0.4542546404818888  0.9317437761460677  1.0000
  C   C509      1.0  0.6842098575034216  0.4519487899486427  0.9113219277749368  1.0000
  C   C510      1.0  0.6286732781577127  0.457867028088363  0.9057864758492592  1.0000
  C   C511      1.0  0.655390894690504  0.48764080620481615  0.9560284204001391  1.0000
  C   C512      1.0  0.6508064824576774  0.41948132603966853  0.9539541889814379  1.0000
  H   H629      1.0  0.7044897380337894  0.4499472156807139  0.9300471448467785  1.0000
  H   H630      1.0  0.6878327834388956  0.4774633333051094  0.8939072441434589  1.0000
  H   H631      1.0  0.684760393234619  0.42690323370806055  0.8929660400443377  1.0000
  H   H632      1.0  0.6060480471001982  0.4590286648458876  0.9202197002150918  1.0000
  H   H633      1.0  0.6305386965936369  0.4840924714428336  0.8889613165375272  1.0000
  H   H634      1.0  0.6278706252213695  0.43363972341753004  0.8863995284184447  1.0000
  H   H635      1.0  0.6334447259267222  0.4903692421926797  0.971726677879561  1.0000
  H   H636      1.0  0.6588263805626718  0.5144135930559411  0.9403837043418999  1.0000
  H   H637      1.0  0.6744646588023088  0.4854799711456537  0.976439493485694  1.0000
  H   H638      1.0  0.6503681703267781  0.3936482537780264  0.9366430666559685  1.0000
  H   H639      1.0  0.6288115249299446  0.4203156650718402  0.9697797550040825  1.0000
  H   H640      1.0  0.6698688211736876  0.41614675530992845  0.9742377046046419  1.0000
  N   N33       1.0  0.27525295963817503  0.47691704010580666  0.7164884374300168  1.0000
  C   C513      1.0  0.27477210149265113  0.512147519650392  0.69441421509686  1.0000
  C   C514      1.0  0.24413293063474947  0.45960286601729067  0.7161623177967564  1.0000
  C   C515      1.0  0.28422811136665865  0.4858674427807423  0.7544601673959931  1.0000
  C   C516      1.0  0.29793961997222557  0.4501132177531037  0.7008240080267221  1.0000
  H   H641      1.0  0.29809823563503457  0.5254822599315349  0.6932474824986815  1.0000
  H   H642      1.0  0.258425160164044  0.533415287080842  0.7059521419358197  1.0000
  H   H643      1.0  0.26717037436552565  0.5066049580783797  0.6658567544024421  1.0000
  H   H644      1.0  0.22638526892575064  0.47943571623655473  0.7271052469153484  1.0000
  H   H645      1.0  0.2368259586569126  0.4521581998840094  0.6879047611141841  1.0000
  H   H646      1.0  0.24336828025205537  0.43316532848698514  0.7328627351212451  1.0000
  H   H647      1.0  0.28379435577305306  0.4601947560300974  0.7722877216743622  1.0000
  H   H648      1.0  0.2684773327918004  0.5073915950186074  0.7666930764117261  1.0000
  H   H649      1.0  0.3081322616716365  0.4974654571408321  0.755652424530506  1.0000
  H   H650      1.0  0.29917627786970175  0.4233289880673108  0.7170197130978544  1.0000
  H   H651      1.0  0.32164668769781507  0.462534846465072  0.70037969461824  1.0000
  H   H652      1.0  0.29181712999467607  0.4425404488982878  0.6722264120684208  1.0000
  N   N34       1.0  0.7165095112246908  0.028549313794479003  0.6354455921066581  1.0000
  C   C517      1.0  0.7201623599583109  0.9918030604544623  0.616660461122534  1.0000
  C   C518      1.0  0.7139011919635689  0.05922106195919352  0.607934316509652  1.0000
  C   C519      1.0  0.743745294014583  0.03546515294416097  0.6589491802881229  1.0000
  C   C520      1.0  0.6882698349737523  0.02790035734798546  0.65817502363346  1.0000
  H   H653      1.0  0.6997364793134513  0.9851573222891453  0.5993095073819782  1.0000
  H   H654      1.0  0.7232020422462986  0.9681219915173164  0.6364751508018611  1.0000
  H   H655      1.0  0.7408428760413641  0.9918185291657818  0.5985057300386974  1.0000
  H   H656      1.0  0.7107388978987108  0.08731693888192305  0.6211294565457773  1.0000
  H   H657      1.0  0.7350119288199923  0.06097011963738197  0.5906116520850733  1.0000
  H   H658      1.0  0.693690783028092  0.05480491278570443  0.5895962035483702  1.0000
  H   H659      1.0  0.7417092597061566  0.06295441047246308  0.6736658828987291  1.0000
  H   H660      1.0  0.7654809196429615  0.03633615711395333  0.6426771974307327  1.0000
  H   H661      1.0  0.746636278310383  0.01279515311826196  0.6800038531143683  1.0000
  H   H662      1.0  0.6847238640001776  0.055597552408606754  0.6720458161490761  1.0000
  H   H663      1.0  0.6895396886001169  0.0056683410234630305  0.6797905595477756  1.0000
  H   H664      1.0  0.6671763097536246  0.02231237348715509  0.6415803050701884  1.0000
  N   N35       1.0  0.20445986026936672  0.7712944828028869  0.4155177693982372  1.0000
  C   C521      1.0  0.2025545562685897  0.7960175253465199  0.38285183416805035  1.0000
  C   C522      1.0  0.22493930588323297  0.7888658648569555  0.44297534174734987  1.0000
  C   C523      1.0  0.21722216790279383  0.7339743158386457  0.40496847018044363  1.0000
  C   C524      1.0  0.17323390156534776  0.7663263722835933  0.4312661474649752  1.0000
  H   H665      1.0  0.18705451679765137  0.7837477412678286  0.3616759568481063  1.0000
  H   H666      1.0  0.22569980275450846  0.7998528731787905  0.37006332206113507  1.0000
  H   H667      1.0  0.19360440993379224  0.8247098986865589  0.38976167350473817  1.0000
  H   H668      1.0  0.24893951171942028  0.791548200164898  0.4325370667326634  1.0000
  H   H669      1.0  0.21697573457378538  0.8178529703085043  0.4503672810187169  1.0000
  H   H670      1.0  0.22600664138993712  0.7716718900746614  0.46856022124707364  1.0000
  H   H671      1.0  0.20251163583210385  0.7199057522880331  0.38406589775972  1.0000
  H   H672      1.0  0.21922793775556848  0.7145946505853649  0.4289401148809732  1.0000
  H   H673      1.0  0.2408173649832151  0.7368331897464003  0.3929495192815885  1.0000
  H   H674      1.0  0.17392404759911023  0.7482362860772721  0.4563084534305689  1.0000
  H   H675      1.0  0.15716115172865705  0.7528066733948852  0.4114507318000981  1.0000
  H   H676      1.0  0.1629251323763162  0.7940474621641667  0.4392833789546157  1.0000
  N   N36       1.0  0.22257481156681824  0.0009483599968782563  0.7083177529844153  1.0000
  C   C525      1.0  0.2210906572391258  0.9987085463741313  0.7486019245373092  1.0000
  C   C526      1.0  0.19359665262133707  0.01758384434955018  0.6938582904206745  1.0000
  C   C527      1.0  0.2265998447415778  0.9623558449669525  0.6934396199727679  1.0000
  C   C528      1.0  0.24897353498345653  0.025093425545827053  0.6974536960868076  1.0000
  H   H677      1.0  0.21728388103692065  0.027159842969073367  0.7608789414228302  1.0000
  H   H678      1.0  0.24290787252220825  0.9871053330311458  0.7603870267977182  1.0000
  H   H679      1.0  0.20201507980461253  0.9798733013473647  0.7578401247658253  1.0000
  H   H680      1.0  0.1896870679853664  0.04666600950102051  0.7046037611798476  1.0000
  H   H681      1.0  0.19395435613061762  0.019599719666959725  0.6635350663909876  1.0000
  H   H682      1.0  0.17312352825916855  0.00018943395969106547  0.7014913083780537  1.0000
  H   H683      1.0  0.23016723408166184  0.9629464236890798  0.6633238025219352  1.0000
  H   H684      1.0  0.20603737735536454  0.9443124657567614  0.6990547311112875  1.0000
  H   H685      1.0  0.24689419523604617  0.9477966480792115  0.7059619674092447  1.0000
  H   H686      1.0  0.27132058448844854  0.012946555552698413  0.707005334985734  1.0000
  H   H687      1.0  0.24701594836467633  0.05406687489712336  0.7093092017884981  1.0000
  H   H688      1.0  0.25052754354614315  0.028227241618199228  0.6672786473270086  1.0000
  N   N37       1.0  0.9070708825493924  0.3839226443275986  0.11657796158327338  1.0000
  C   C529      1.0  0.9229901645202935  0.3729630906701469  0.15080941366848277  1.0000
  C   C530      1.0  0.9089502976592243  0.4254622482732786  0.11157191287289447  1.0000
  C   C531      1.0  0.874270405359931  0.3722984466580405  0.11862366364894616  1.0000
  C   C532      1.0  0.9220163123221733  0.36509593896795167  0.08521523521268648  1.0000
  H   H689      1.0  0.947113718629532  0.38369215980122606  0.15142042993590654  1.0000
  H   H690      1.0  0.9237880287224871  0.3416382012867318  0.1544412257924479  1.0000
  H   H691      1.0  0.9112075989791654  0.38502920965957993  0.17507909214997053  1.0000
  H   H692      1.0  0.8967126524670355  0.43471939000774656  0.08635605623856768  1.0000
  H   H693      1.0  0.8984726476677121  0.4407312514784587  0.13486232711769963  1.0000
  H   H694      1.0  0.9333664438079765  0.43524820231602135  0.10938432947395471  1.0000
  H   H695      1.0  0.8615977364365073  0.3797765326498491  0.09307638655780592  1.0000
  H   H696      1.0  0.8622032979199077  0.38640779565462857  0.14170773963147898  1.0000
  H   H697      1.0  0.8720195428919961  0.34109897595655303  0.12271729924930264  1.0000
  H   H698      1.0  0.9206039564162892  0.3336885708881085  0.08750908228676191  1.0000
  H   H699      1.0  0.9469170045709466  0.3728317738645849  0.08323802103906708  1.0000
  H   H700      1.0  0.9109131471707715  0.3736742776145445  0.05891525549398713  1.0000
  N   N38       1.0  0.02847406731577018  0.22667147975147847  0.6587098299020648  1.0000
  C   C533      1.0  0.054712599960477615  0.20107144896849866  0.6506823357248369  1.0000
  C   C534      1.0  0.020090917850483336  0.2482296213846868  0.6253761787748853  1.0000
  C   C535      1.0  0.03749781349332593  0.2533445781561025  0.6878393544330537  1.0000
  C   C536      1.0  0.0016418777118052397  0.20402074211375523  0.6709795307042195  1.0000
  H   H701      1.0  0.06136443955673587  0.18378843121418878  0.6750345844302496  1.0000
  H   H702      1.0  0.07548213896703881  0.2172935251884096  0.6417179132155847  1.0000
  H   H703      1.0  0.049016081635810727  0.18118857067817407  0.6281197332747344  1.0000
  H   H704      1.0  0.0002179999088469664  0.26752855171869144  0.6300657525027735  1.0000
  H   H705      1.0  0.039696812852949126  0.265989904817646  0.6155319712590958  1.0000
  H   H706      1.0  0.013601620068227627  0.2290105233487417  0.6026037664753204  1.0000
  H   H707      1.0  0.018144228975309984  0.2728621378952763  0.6947902807766682  1.0000
  H   H708      1.0  0.057549595652212515  0.27111364747920763  0.6793380996599447  1.0000
  H   H709      1.0  0.04417785566415211  0.23795582656244152  0.7133078512702906  1.0000
  H   H710      1.0  0.9815197242686156  0.2225297031463576  0.6775606269967112  1.0000
  H   H711      1.0  0.0073205413680341724  0.18716284347567563  0.6959680208301926  1.0000
  H   H712      1.0  0.9941181368102584  0.18378984015329886  0.6494993432980222  1.0000
  N   N39       1.0  0.5536549713343146  0.4279976320740481  0.6719885416920771  1.0000
  C   C537      1.0  0.5790026318826357  0.40638086363016257  0.689545387677885  1.0000
  C   C538      1.0  0.5310871776970892  0.4013335025440683  0.6560143773258598  1.0000
  C   C539      1.0  0.5664345092795767  0.45239098629395297  0.6427578063457373  1.0000
  C   C540      1.0  0.5381012727547785  0.45184697268034857  0.6995773802940612  1.0000
  H   H713      1.0  0.5907725580556645  0.38745843278904013  0.6696199951509505  1.0000
  H   H714      1.0  0.570178985680246  0.38814125733614474  0.7121254497055672  1.0000
  H   H715      1.0  0.5968026086267609  0.42565131084067315  0.7012415424440115  1.0000
  H   H716      1.0  0.5113760367289142  0.4167245519140799  0.6430623446937273  1.0000
  H   H717      1.0  0.5418953444170951  0.38322103968182986  0.6347334626502719  1.0000
  H   H718      1.0  0.5210897810975942  0.38221461450422023  0.6772143532064452  1.0000
  H   H719      1.0  0.5830892443439801  0.4734319667278749  0.653817840889462  1.0000
  H   H720      1.0  0.547906726260846  0.46857454730390513  0.628384338509535  1.0000
  H   H721      1.0  0.5789811469472883  0.43541175965090945  0.6218800498189697  1.0000
  H   H722      1.0  0.518790284540545  0.46854027883579474  0.6872634847197867  1.0000
  H   H723      1.0  0.5544768954820308  0.47214178662539996  0.712465305204978  1.0000
  H   H724      1.0  0.5277845591721357  0.4342367785455897  0.7217713043975713  1.0000
  N   N40       1.0  0.26785125875546445  0.19555315053925915  0.6880454026628177  1.0000
  C   C541      1.0  0.24611756338321888  0.2279498376464666  0.6895961434769994  1.0000
  C   C542      1.0  0.25085562918735627  0.16100558088806194  0.6772157926295277  1.0000
  C   C543      1.0  0.28203468087923045  0.18957976590679748  0.7243852262220852  1.0000
  C   C544      1.0  0.29236483403329205  0.2036693873637001  0.6609896407721695  1.0000
  H   H725      1.0  0.23516412725268365  0.23337405435478842  0.66251625302767  1.0000
  H   H726      1.0  0.25804427090721593  0.25450011923843174  0.697833356888288  1.0000
  H   H727      1.0  0.22702821067794487  0.22252429859739697  0.7093364754712203  1.0000
  H   H728      1.0  0.26640129543961355  0.1358054111893321  0.6763829489567045  1.0000
  H   H729      1.0  0.23168325149761526  0.15452477412595256  0.6965806783861109  1.0000
  H   H730      1.0  0.24030142325590642  0.1643133963417731  0.6496277606756875  1.0000
  H   H731      1.0  0.29762018217852404  0.16433244595654428  0.7245196701888749  1.0000
  H   H732      1.0  0.26407690248947646  0.18484175060212538  0.7456963861360516  1.0000
  H   H733      1.0  0.29595580107499386  0.2145578907552519  0.7328475733787296  1.0000
  H   H734      1.0  0.3089176881886766  0.17957616986721603  0.6587249135006579  1.0000
  H   H735      1.0  0.3058808326984228  0.22939361714153006  0.6683410590205997  1.0000
  H   H736      1.0  0.2823469891366581  0.2089064648134551  0.633407242390271  1.0000
  N   N41       1.0  0.9799916255833317  0.03254369200848428  0.6804673529093047  1.0000
  C   C545      1.0  0.9554163965157471  0.008748139730723414  0.6643989910056253  1.0000
  C   C546      1.0  0.9700686063638118  0.07269310126422646  0.6801344708781031  1.0000
  C   C547      1.0  0.008692439783526185  0.02849303604159581  0.6588958277738062  1.0000
  C   C548      1.0  0.9858158002567688  0.020330149007914855  0.7185231376459413  1.0000
  H   H737      1.0  0.9622447518296129  0.9782316321315839  0.6639380390561954  1.0000
  H   H738      1.0  0.9500480141475994  0.017655327752741368  0.635860340402151  1.0000
  H   H739      1.0  0.9335109956598211  0.01115126638667574  0.6801583334956967  1.0000
  H   H740      1.0  0.9488704323480917  0.07694804695696744  0.6969348817815361  1.0000
  H   H741      1.0  0.9883771508635413  0.09149890845290232  0.6912846010396189  1.0000
  H   H742      1.0  0.9645128405750659  0.08263445826843685  0.6519746225172258  1.0000
  H   H743      1.0  0.016604097551365715  0.9984644364189987  0.6581257306933849  1.0000
  H   H744      1.0  0.027906750942384262  0.04554739492669779  0.6707251622770962  1.0000
  H   H745      1.0  0.005228147617920786  0.037985972196544315  0.6301523077642439  1.0000
  H   H746      1.0  0.005257240935270913  0.03650126291505651  0.7307557845604911  1.0000
  H   H747      1.0  0.992049213581384  0.9897913010082137  0.7201229664962043  1.0000
  H   H748      1.0  0.9650927816583009  0.024758306543046782  0.7360923141388989  1.0000
  N   N42       1.0  0.2662325908917612  0.39487509065044846  0.16720699984593757  1.0000
  C   C549      1.0  0.2954583609858292  0.40298946233331623  0.18661579783369708  1.0000
  C   C550      1.0  0.25005388296345715  0.3633492907910486  0.18582187511043502  1.0000
  C   C551      1.0  0.2731062642235442  0.3840545705194622  0.12912567863768687  1.0000
  C   C552      1.0  0.24646181665808606  0.42913826625486273  0.16721807548838985  1.0000
  H   H749      1.0  0.2913015938411315  0.41105249139843636  0.21554592388042182  1.0000
  H   H750      1.0  0.30836897184026013  0.4265662140931423  0.17327420400109217  1.0000
  H   H751      1.0  0.31096935218122984  0.37777461720459243  0.18694007343380115  1.0000
  H   H752      1.0  0.22768238068059204  0.35647944848980195  0.17227575326094735  1.0000
  H   H753      1.0  0.26434166180370344  0.3369963136541974  0.18592403822230263  1.0000
  H   H754      1.0  0.2448893504516487  0.3702280344578232  0.21484852344808547  1.0000
  H   H755      1.0  0.288718476715798  0.35889447563034504  0.12791598384257408  1.0000
  H   H756      1.0  0.28484651205632117  0.40748871922083035  0.11415051219187489  1.0000
  H   H757      1.0  0.25171283119799215  0.3770092312911566  0.11369294717897449  1.0000
  H   H758      1.0  0.22454667606960288  0.42441517519906574  0.1519544107120896  1.0000
  H   H759      1.0  0.25831550343921617  0.4535975203821987  0.1538563837413578  1.0000
  H   H760      1.0  0.2404200012812686  0.43787145552240697  0.1954864710170312  1.0000
  N   N43       1.0  0.07498825627364082  0.15065269831073502  0.9297529307752066  1.0000
  C   C553      1.0  0.09074340975354761  0.11649060653577625  0.9442697296137873  1.0000
  C   C554      1.0  0.04268419483735064  0.15145429365896557  0.9429660858809475  1.0000
  C   C555      1.0  0.07530772142132003  0.14975188984186438  0.8893815717105598  1.0000
  C   C556      1.0  0.09120731762757635  0.18497558018946303  0.9425611692854009  1.0000
  H   H761      1.0  0.1150800102719888  0.11454748949144045  0.9344962343146137  1.0000
  H   H762      1.0  0.07868710788363656  0.09010642402868085  0.9357260043212624  1.0000
  H   H763      1.0  0.09137651854414451  0.11666372860281138  0.974616531445256  1.0000
  H   H764      1.0  0.030185733981296536  0.1771679735218008  0.9331367607895704  1.0000
  H   H765      1.0  0.029523775815315515  0.12635675116650846  0.933391649347811  1.0000
  H   H766      1.0  0.04167457384788853  0.15131417433571337  0.9734023214486688  1.0000
  H   H767      1.0  0.0635499199271663  0.17502772393970178  0.8773913579672843  1.0000
  H   H768      1.0  0.06317985492089018  0.12428465418657231  0.8788008885966473  1.0000
  H   H769      1.0  0.09937118436810963  0.14891228583553362  0.8785638333539176  1.0000
  H   H770      1.0  0.08106881953750983  0.2111947477879974  0.9303987086688364  1.0000
  H   H771      1.0  0.11624782607298162  0.18419038447113545  0.9354753969911366  1.0000
  H   H772      1.0  0.08938072054516727  0.18781927641356644  0.9727306756858836  1.0000
  N   N44       1.0  0.6635577484360987  0.9191158116200672  0.11938851298500652  1.0000
  C   C557      1.0  0.6722533148741082  0.9573320676279619  0.1322273171301407  1.0000
  C   C558      1.0  0.668153189143818  0.9169859117828096  0.079457003290764  1.0000
  C   C559      1.0  0.6306760076282977  0.9118325868575485  0.12796470087504486  1.0000
  C   C560      1.0  0.6831496968543714  0.8903731484096664  0.13782923731936814  1.0000
  H   H773      1.0  0.6969142860016199  0.9636807846183167  0.12590613702984865  1.0000
  H   H774      1.0  0.6693042978098701  0.9600107214495756  0.16228515290590062  1.0000
  H   H775      1.0  0.6579955108366039  0.9797883651148748  0.11880112816698696  1.0000
  H   H776      1.0  0.6534208926968639  0.9381315599778689  0.06480074384228285  1.0000
  H   H777      1.0  0.692600567798428  0.923086031905064  0.07187011183980596  1.0000
  H   H778      1.0  0.662063890756197  0.888457630767888  0.06877346008895646  1.0000
  H   H779      1.0  0.6233816450873063  0.8831241971923871  0.1187510927653539  1.0000
  H   H780      1.0  0.6151350288903675  0.9326766299706117  0.11410020326207215  1.0000
  H   H781      1.0  0.6261726520026535  0.9134887864606753  0.15781632844596816  1.0000
  H   H782      1.0  0.7082218278631746  0.8956076860962364  0.13285660381796638  1.0000
  H   H783      1.0  0.6777792664627276  0.861195466962673  0.1282819497831702  1.0000
  H   H784      1.0  0.6796585093428941  0.8906283986931838  0.16795638678598301  1.0000
  N   N45       1.0  0.6418188302735574  0.19575876859158425  0.17013162617156224  1.0000
  C   C561      1.0  0.6569486008749231  0.18744028539537538  0.13488975309493223  1.0000
  C   C562      1.0  0.6190868625429028  0.16568466206360366  0.17862992702411826  1.0000
  C   C563      1.0  0.6257544954758668  0.23271266596908213  0.16763240609582353  1.0000
  C   C564      1.0  0.6654997973033273  0.19726030531195082  0.19929097749211605  1.0000
  H   H785      1.0  0.6751545130038501  0.2087159206449234  0.12834556539806363  1.0000
  H   H786      1.0  0.6399523305939547  0.18715747486246048  0.11201566354432681  1.0000
  H   H787      1.0  0.6685537536219004  0.15923871309031035  0.13556970543634916  1.0000
  H   H788      1.0  0.6012756202875361  0.1632007937385962  0.15669553891296079  1.0000
  H   H789      1.0  0.6305288610829646  0.13748155437916232  0.18135262021957924  1.0000
  H   H790      1.0  0.6066986227249076  0.17152965932754727  0.2046842848438001  1.0000
  H   H791      1.0  0.6146251304382153  0.24017693769624415  0.19402992080962853  1.0000
  H   H792      1.0  0.6073751829863051  0.23243506542669645  0.1463200954672239  1.0000
  H   H793      1.0  0.6421930492881297  0.2559828309880765  0.16085359018875092  1.0000
  H   H794      1.0  0.6831225210118158  0.21953303442642946  0.19355966733079102  1.0000
  H   H795      1.0  0.6781394343991218  0.16982223195225155  0.20196061882051186  1.0000
  H   H796      1.0  0.6550781458047089  0.20396438186740373  0.22627276999430082  1.0000
  N   N46       1.0  0.5575251780685598  0.6436482260165931  0.16325908516992982  1.0000
  C   C565      1.0  0.5546411861261075  0.6845176019574645  0.15487100573218318  1.0000
  C   C566      1.0  0.5268334121786789  0.6255367383991078  0.16033225259806597  1.0000
  C   C567      1.0  0.5695994514980081  0.638569883128608  0.2007435647366188  1.0000
  C   C568      1.0  0.5791272602012933  0.6260081698361353  0.13706743167731839  1.0000
  H   H797      1.0  0.5775880212424009  0.6985989639114244  0.15512444533908662  1.0000
  H   H798      1.0  0.5396623536220165  0.6993892628156843  0.17501120159410963  1.0000
  H   H799      1.0  0.5444804126840137  0.6892994226344937  0.1273570681727525  1.0000
  H   H800      1.0  0.5100061923740371  0.6385332482700893  0.17956530543149873  1.0000
  H   H801      1.0  0.5172078309695302  0.6285501330826816  0.13226726188525784  1.0000
  H   H802      1.0  0.5282009173356212  0.5946377114370778  0.16668192622755704  1.0000
  H   H803      1.0  0.5554471556539315  0.6543129227763281  0.22105077448616292  1.0000
  H   H804      1.0  0.5938058335251654  0.6487434987600036  0.20288023510875874  1.0000
  H   H805      1.0  0.5698579104868174  0.6081631424476658  0.20899648631579754  1.0000
  H   H806      1.0  0.5824186871821154  0.5953728318020755  0.1431608663180759  1.0000
  H   H807      1.0  0.602380313087386  0.6395546937818158  0.1380762091031147  1.0000
  H   H808      1.0  0.5705493582507961  0.6285642922684834  0.10852906440835919  1.0000
  N   N47       1.0  0.10998618862256253  0.8866128282385958  0.26900331422513657  1.0000
  C   C569      1.0  0.12362875639421285  0.8481085600964999  0.2676369370031624  1.0000
  C   C570      1.0  0.10323811816577028  0.8999887675325463  0.23145939517716127  1.0000
  C   C571      1.0  0.1319791859218541  0.9128750057113938  0.2865814289339109  1.0000
  C   C572      1.0  0.08107344480236013  0.8856344871187721  0.29047832167436133  1.0000
  H   H809      1.0  0.12883166561254028  0.8369142976278875  0.29545306972893737  1.0000
  H   H810      1.0  0.14562144065096422  0.8478492452383288  0.2518447704603734  1.0000
  H   H811      1.0  0.10766193010352372  0.8275189693451482  0.2545122247278356  1.0000
  H   H812      1.0  0.08695471370360511  0.8806261606938057  0.21722516132995226  1.0000
  H   H813      1.0  0.09229337774812547  0.9286254826233941  0.231432429536031  1.0000
  H   H814      1.0  0.12465837616064823  0.9016972741033872  0.21463770229020526  1.0000
  H   H815      1.0  0.15391262366708092  0.914840891828781  0.2709568315017101  1.0000
  H   H816      1.0  0.1380762935228051  0.9032645410115911  0.3146741707054254  1.0000
  H   H817      1.0  0.122260747957198  0.9420659142668278  0.2883569855808649  1.0000
  H   H818      1.0  0.07003857720213102  0.9141744097607917  0.2919554391563662  1.0000
  H   H819      1.0  0.08520387251086584  0.8752494645906703  0.3188243125156083  1.0000
  H   H820      1.0  0.06382217233180132  0.8664814239693246  0.27795413433391125  1.0000
  N   N48       1.0  0.31672754074813  0.965858248234479  0.5260223966205052  1.0000
  C   C573      1.0  0.2858150486946168  0.9482102033703768  0.5235895373698666  1.0000
  C   C574      1.0  0.33825832584097304  0.9457603831185954  0.5014021012490478  1.0000
  C   C575      1.0  0.3281733890571753  0.963191092150777  0.5640378552342927  1.0000
  C   C576      1.0  0.3145795381303722  0.006189690340657972  0.5150434413098737  1.0000
  H   H821      1.0  0.2765236176797709  0.9492006449833964  0.49521562617056564  1.0000
  H   H822      1.0  0.26887146303065884  0.9622598159233827  0.5420092167383557  1.0000
  H   H823      1.0  0.2867589966257964  0.9178563279610092  0.5317719641775542  1.0000
  H   H824      1.0  0.3618322835150962  0.958319884827523  0.5022176154152778  1.0000
  H   H825      1.0  0.34030900823922333  0.915194216967138  0.5088998269421027  1.0000
  H   H826      1.0  0.3299964500339576  0.9466536563992449  0.47255395691264834  1.0000
  H   H827      1.0  0.3513726991476975  0.9764491954414597  0.5670741072617216  1.0000
  H   H828      1.0  0.33000273163204774  0.9331248538672869  0.5733023395095498  1.0000
  H   H829      1.0  0.3121771019167015  0.9775960343777271  0.5833739981231801  1.0000
  H   H830      1.0  0.2984023098259205  0.022083599443001978  0.5330488235427605  1.0000
  H   H831      1.0  0.30604001887817234  0.009232254277067975  0.4864676302290432  1.0000
  H   H832      1.0  0.3375122035904748  0.020459294445687837  0.5166961296752578  1.0000
  N   N49       1.0  0.05945333091060134  0.42927531388913487  0.6487174445404417  1.0000
  C   C577      1.0  0.027769189771302827  0.4448141259492792  0.6455883660983724  1.0000
  C   C578      1.0  0.06078546715545219  0.3916560782677654  0.6310688704067636  1.0000
  C   C579      1.0  0.06789305306217752  0.42547559088601  0.6877331509947241  1.0000
  C   C580      1.0  0.08142381403477716  0.45520802777073927  0.6304093893614614  1.0000
  H   H833      1.0  0.010578119611774017  0.42586797715107777  0.6589583441058818  1.0000
  H   H834      1.0  0.02061929711678845  0.44802345833127816  0.6165471367465893  1.0000
  H   H835      1.0  0.025872333361620647  0.47297192069972055  0.6589553418335945  1.0000
  H   H836      1.0  0.05162831975457882  0.39259378483974805  0.6026483325142538  1.0000
  H   H837      1.0  0.08486595824606824  0.3807114653445799  0.629618649149364  1.0000
  H   H838      1.0  0.04706664712618691  0.3702613736479911  0.64639886333615  1.0000
  H   H839      1.0  0.09022614836292164  0.41019459758566246  0.691118236281  1.0000
  H   H840      1.0  0.050222077014922206  0.40924648006420977  0.7033064066022718  1.0000
  H   H841      1.0  0.07013200814554899  0.45361881483925226  0.7011186813906932  1.0000
  H   H842      1.0  0.1055869359339352  0.44447063409994714  0.6326046497145174  1.0000
  H   H843      1.0  0.0809841017479469  0.4839538129312682  0.6428686395697296  1.0000
  H   H844      1.0  0.07603900096888427  0.45827347111532307  0.6008176841724558  1.0000
  N   N50       1.0  0.1899381121750806  0.6459097321981424  0.5956857470436101  1.0000
  C   C581      1.0  0.1865555632313387  0.6553959531160879  0.5565267550138328  1.0000
  C   C582      1.0  0.16032034555925437  0.6308996845216557  0.6097354806185741  1.0000
  C   C583      1.0  0.19843005997080074  0.6804902423035112  0.6160494250518793  1.0000
  C   C584      1.0  0.21440986356809327  0.6169136722738803  0.6003617701450332  1.0000
  H   H845      1.0  0.2084008373790432  0.667294989744519  0.5451711441396522  1.0000
  H   H846      1.0  0.16827706090033032  0.6772778066867228  0.5521840308176722  1.0000
  H   H847      1.0  0.18024274976063598  0.6300261099909406  0.5402116587599484  1.0000
  H   H848      1.0  0.14125322679282365  0.6519265285008919  0.6064018214657051  1.0000
  H   H849      1.0  0.153422398393781  0.6044192376686468  0.5954986765990498  1.0000
  H   H850      1.0  0.16190369716514683  0.624136382819626  0.639366395434563  1.0000
  H   H851      1.0  0.2203129373794661  0.693155530972515  0.6056415323615104  1.0000
  H   H852      1.0  0.2015617768974738  0.6744656380617098  0.6456926250475766  1.0000
  H   H853      1.0  0.18015908506281259  0.7027032489509386  0.6136237045515961  1.0000
  H   H854      1.0  0.2174704975294681  0.609024239639459  0.6296035944304416  1.0000
  H   H855      1.0  0.2371132544665484  0.6273072516236756  0.5901100744374098  1.0000
  H   H856      1.0  0.20865251512365737  0.5902992082000712  0.585586333176243  1.0000
  N   N51       1.0  0.4289258038439902  0.6354733399752523  0.7687873711362215  1.0000
  C   C585      1.0  0.42443565589448706  0.6250377663852079  0.7300839397833363  1.0000
  C   C586      1.0  0.43229811167789106  0.6770737901845719  0.771607433364179  1.0000
  C   C587      1.0  0.4571601022271667  0.6167795891865447  0.7830331277326733  1.0000
  C   C588      1.0  0.40186697628690793  0.6230042732304745  0.7903430981272614  1.0000
  H   H857      1.0  0.42271274489498045  0.5937473882384011  0.7268059674905896  1.0000
  H   H858      1.0  0.44399402099862745  0.6349837715239636  0.7128004362074563  1.0000
  H   H859      1.0  0.4026911731486049  0.6374594754345613  0.7187827696680203  1.0000
  H   H860      1.0  0.4354229395676118  0.6860897799903857  0.8004581330837465  1.0000
  H   H861      1.0  0.4529812957143818  0.6870933809402278  0.7563755706135904  1.0000
  H   H862      1.0  0.4117224652298037  0.6922545465339813  0.76035350010994  1.0000
  H   H863      1.0  0.46228651590105135  0.6254347896549947  0.8115835121391822  1.0000
  H   H864      1.0  0.47781628194115844  0.6239678644024339  0.7662602689665227  1.0000
  H   H865      1.0  0.4549533441356189  0.5854020525360231  0.7830788384247634  1.0000
  H   H866      1.0  0.39890066174489586  0.5916993501267254  0.7889897917112506  1.0000
  H   H867      1.0  0.38002624485898884  0.6359363750852942  0.7798543224964605  1.0000
  H   H868      1.0  0.40429557246469205  0.6306966451474552  0.8196221928534155  1.0000
  N   N52       1.0  0.1234756255847953  0.8353819705311571  0.6605340432597194  1.0000
  C   C589      1.0  0.1208518067760187  0.826944842872905  0.6211331608799624  1.0000
  C   C590      1.0  0.1391745267304001  0.8722598592189583  0.6651938095901943  1.0000
  C   C591      1.0  0.14166035585121328  0.8052857343338485  0.6789890037973451  1.0000
  C   C592      1.0  0.09221212707039017  0.8370945861368472  0.6768114749986986  1.0000
  H   H869      1.0  0.10844573209286978  0.7998440084093673  0.6164648906400535  1.0000
  H   H870      1.0  0.14397145833977687  0.8245954520048836  0.6079394508760747  1.0000
  H   H871      1.0  0.10768147327052313  0.8494623749846942  0.6062637222103375  1.0000
  H   H872      1.0  0.14021826521264313  0.880701743387159  0.6944339791795183  1.0000
  H   H873      1.0  0.1632264281704654  0.8714691991556958  0.6544052996529462  1.0000
  H   H874      1.0  0.12674135786612672  0.8953275288409617  0.6503930037029944  1.0000
  H   H875      1.0  0.14520928297436475  0.811710243026778  0.7084256537838646  1.0000
  H   H876      1.0  0.1648551923870476  0.8016735903737563  0.6662672503070524  1.0000
  H   H877      1.0  0.12975567623374906  0.7773600541922756  0.677740397265816  1.0000
  H   H878      1.0  0.07764877673585535  0.8590297366931272  0.6632318174097733  1.0000
  H   H879      1.0  0.093171504505551  0.8441865831472454  0.7063755654312738  1.0000
  H   H880      1.0  0.07986361059639857  0.8095145589204443  0.6741020480373542  1.0000
  N   N53       1.0  0.5115910160581644  0.22279713765980144  0.4079225892544283  1.0000
  C   C593      1.0  0.47999576401432836  0.20883551408715664  0.41543270267406146  1.0000
  C   C594      1.0  0.523237028212061  0.2056015749919776  0.3738416180176258  1.0000
  C   C595      1.0  0.5321939334332447  0.2122751155047166  0.438625525208673  1.0000
  C   C596      1.0  0.5108738413793036  0.2645228955398274  0.403754342473816  1.0000
  H   H881      1.0  0.470455413016913  0.22149739395311785  0.440862275156071  1.0000
  H   H882      1.0  0.47961215661772816  0.17747556859181754  0.4189305480313304  1.0000
  H   H883      1.0  0.4639115418970976  0.21601887647909196  0.39268834591594615  1.0000
  H   H884      1.0  0.5092471023690397  0.21471686290931452  0.34985900035982226  1.0000
  H   H885      1.0  0.5475335558034405  0.2141596289828618  0.3682030017823326  1.0000
  H   H886      1.0  0.522696306883028  0.1740899510327165  0.37514105917898327  1.0000
  H   H887      1.0  0.523995045255323  0.2246365037094594  0.4647951623953147  1.0000
  H   H888      1.0  0.556155122096587  0.22277230307833126  0.43413202202476564  1.0000
  H   H889      1.0  0.5335028866693575  0.18098208667673116  0.4422800246804202  1.0000
  H   H890      1.0  0.4954582661134964  0.2733558391158674  0.38082719890191336  1.0000
  H   H891      1.0  0.5343483090456819  0.2759626772476924  0.39797907854348036  1.0000
  H   H892      1.0  0.5024286980328304  0.2784735111968774  0.42905016111771704  1.0000
  N   N54       1.0  0.3043299771593732  0.10213243683633455  0.9762465703890408  1.0000
  C   C597      1.0  0.33152753791975176  0.09238953475467793  0.9536899826657206  1.0000
  C   C598      1.0  0.2898813546057676  0.06691554578044778  0.9900285212400433  1.0000
  C   C599      1.0  0.2815873932031244  0.12346118891088698  0.9539575773924559  1.0000
  C   C600      1.0  0.31426451972392994  0.1256865694351672  0.0073938846511028  1.0000
  H   H893      1.0  0.3491615198582778  0.07642911395918484  0.9698388101728225  1.0000
  H   H894      1.0  0.34288662731521696  0.11824595200922428  0.9424942054775303  1.0000
  H   H895      1.0  0.32485277008855845  0.07440412130767626  0.9300455427891882  1.0000
  H   H896      1.0  0.28246420743036066  0.04829782746261935  0.9671396235930249  1.0000
  H   H897      1.0  0.30610379315867775  0.05036007242485585  0.007622997542495069  1.0000
  H   H898      1.0  0.2689362480117659  0.07328980416856234  0.0065088648636928426  1.0000
  H   H899      1.0  0.261239482075616  0.1322596133222087  0.9705330566385008  1.0000
  H   H900      1.0  0.27255099393499516  0.10594319614713998  0.9311205353482988  1.0000
  H   H901      1.0  0.29194850303515785  0.14944667908592302  0.9417820751529415  1.0000
  H   H902      1.0  0.33173123786073994  0.11062654231492419  0.0244376627756695  1.0000
  H   H903      1.0  0.2944029096475578  0.13296614486010805  0.025423040500164307  1.0000
  H   H904      1.0  0.3249576659742  0.1527212064197685  0.9980169356520204  1.0000
  N   N55       1.0  0.7687727215809033  0.3452141345000067  0.4604277553892706  1.0000
  C   C601      1.0  0.7999509006895095  0.36122822650525555  0.46644934529872617  1.0000
  C   C602      1.0  0.7715387971297301  0.30459015503948844  0.4511070201890661  1.0000
  C   C603      1.0  0.7534301457137966  0.36558740818926416  0.4299916029873835  1.0000
  C   C604      1.0  0.7501381065140547  0.3493883918122535  0.4940400480706244  1.0000
  H   H905      1.0  0.7987902417948559  0.39177069914634094  0.4739790779589464  1.0000
  H   H906      1.0  0.8145783691272738  0.358901259511085  0.4415546110648271  1.0000
  H   H907      1.0  0.8123211332993975  0.3462457526703405  0.48902394387373327  1.0000
  H   H908      1.0  0.7832951764715185  0.288293988811486  0.47327693306199586  1.0000
  H   H909      1.0  0.7483925090591113  0.2915829448752838  0.44659205637907884  1.0000
  H   H910      1.0  0.7851064457674066  0.30054364008241274  0.42551114145892505  1.0000
  H   H911      1.0  0.7298810875129345  0.35407652450213895  0.4248222610102683  1.0000
  H   H912      1.0  0.7667610002025502  0.36290352491662675  0.40407137912270846  1.0000
  H   H913      1.0  0.7506498553682259  0.39630867829663424  0.436095851585335  1.0000
  H   H914      1.0  0.7264519118596843  0.3375361418671364  0.49051515812107543  1.0000
  H   H915      1.0  0.7472966980733642  0.37976298061543245  0.5015857269945787  1.0000
  H   H916      1.0  0.7611222645028105  0.33463706780500513  0.5177182004532666  1.0000
  N   N56       1.0  0.7561150451995458  0.4445118534305981  0.6941347159044647  1.0000
  C   C605      1.0  0.7425918187037017  0.45024082644469504  0.7307169807260361  1.0000
  C   C606      1.0  0.7780755203052664  0.47547701927309843  0.6859461149688558  1.0000
  C   C607      1.0  0.7311041068334937  0.44460794279180615  0.6665916312643898  1.0000
  C   C608      1.0  0.7726640853345871  0.40779239923189864  0.6933042023839647  1.0000
  H   H917      1.0  0.7248650757927114  0.42836000334144275  0.7371009509053672  1.0000
  H   H918      1.0  0.7312618099058922  0.478535801532989  0.7326819347612015  1.0000
  H   H919      1.0  0.7605680865583329  0.4486698753187358  0.7524227456054933  1.0000
  H   H920      1.0  0.7974007323447757  0.47591444927077253  0.7060437955890061  1.0000
  H   H921      1.0  0.7883068108057923  0.47227063783822054  0.6582684699762612  1.0000
  H   H922      1.0  0.7664774486057935  0.5036916360224707  0.6868739718102178  1.0000
  H   H923      1.0  0.7175774299347762  0.47133823470741876  0.6672320960084864  1.0000
  H   H924      1.0  0.7146657539418081  0.42077901448684496  0.671097938651572  1.0000
  H   H925      1.0  0.7404622126919846  0.441723732853497  0.6385387436062303  1.0000
  H   H926      1.0  0.7566423718671232  0.38364966398373307  0.6984199265148681  1.0000
  H   H927      1.0  0.7913361377894569  0.4065763299246165  0.714293622015688  1.0000
  H   H928      1.0  0.7835263582548465  0.40284756592665766  0.6661987184770629  1.0000
  N   N57       1.0  0.8533726732283388  0.23539238760053793  0.7238906742156233  1.0000
  C   C609      1.0  0.8799206795177046  0.21645093822736647  0.706195969971835  1.0000
  C   C610      1.0  0.8247144295550055  0.22629774274621772  0.7037250647004862  1.0000
  C   C611      1.0  0.8580732539813309  0.2769171426349813  0.723535277879357  1.0000
  C   C612      1.0  0.8508118518389179  0.22187407462228817  0.7620472352504188  1.0000
  H   H929      1.0  0.8757296336804  0.18556200901262593  0.7027365779010846  1.0000
  H   H930      1.0  0.9014004279410294  0.21945354835949893  0.7227004076758088  1.0000
  H   H931      1.0  0.8842987577512498  0.2283757735735879  0.6784762660980578  1.0000
  H   H932      1.0  0.8039187121904409  0.23853470916270914  0.7171693211710138  1.0000
  H   H933      1.0  0.8255473712294279  0.23744015377297895  0.6752083808390066  1.0000
  H   H934      1.0  0.8210661186991046  0.19511488280930953  0.7022622008154407  1.0000
  H   H935      1.0  0.8382219012472458  0.2919886647864349  0.7362622547857428  1.0000
  H   H936      1.0  0.8607096555794003  0.28794888673999636  0.6951245620674492  1.0000
  H   H937      1.0  0.8792264157890307  0.2849391284624763  0.738999340348972  1.0000
  H   H938      1.0  0.8298675713247889  0.23354251922036212  0.7756542290072866  1.0000
  H   H939      1.0  0.8713868626789264  0.23019274882894022  0.7785082486396561  1.0000
  H   H940      1.0  0.8490325950184013  0.19042143116825677  0.763327011290897  1.0000
  N   N58       1.0  0.5904488800388166  0.20814402379179392  0.6350583651478737  1.0000
  C   C613      1.0  0.5927888178214803  0.21848609874411917  0.5959786766297177  1.0000
  C   C614      1.0  0.5863549871988568  0.1666787662336071  0.6386285721588679  1.0000
  C   C615      1.0  0.5636226123129826  0.2276801735776172  0.6515202164177544  1.0000
  C   C616      1.0  0.6190588890470293  0.2197389641084653  0.6541405717086599  1.0000
  H   H941      1.0  0.597264406533408  0.2493411634620078  0.5923847786335595  1.0000
  H   H942      1.0  0.5710633912134301  0.21186968008205753  0.5809630652087538  1.0000
  H   H943      1.0  0.6121326762660483  0.20310465641759665  0.5824928812793567  1.0000
  H   H944      1.0  0.5833124262673791  0.15812201674650117  0.667667779032292  1.0000
  H   H945      1.0  0.5654432079023569  0.15673988820130536  0.6237158490857462  1.0000
  H   H946      1.0  0.6067907902941029  0.15095753265281897  0.6279553931939551  1.0000
  H   H947      1.0  0.5416937902388227  0.22026436121347973  0.6372763883019873  1.0000
  H   H948      1.0  0.5662902882551639  0.259042987045569  0.650004441108022  1.0000
  H   H949      1.0  0.5608854538802107  0.2198163878225711  0.6808411505053997  1.0000
  H   H950      1.0  0.6186582066400405  0.21122501437533678  0.6834602809076564  1.0000
  H   H951      1.0  0.6223957858985496  0.2510607158625396  0.6527659656965282  1.0000
  H   H952      1.0  0.639898329835574  0.2063715911185129  0.6417677657728227  1.0000
  N   N59       1.0  0.4170010291217263  0.4651408796955982  0.9388097247039167  1.0000
  C   C617      1.0  0.40430669615227033  0.4271907438846049  0.947300010623106  1.0000
  C   C618      1.0  0.4431198918755446  0.4612570889285512  0.9130456935929214  1.0000
  C   C619      1.0  0.4278845802902945  0.48305286408616693  0.9728535619493184  1.0000
  C   C620      1.0  0.39264212625728423  0.48900587805851015  0.9220169401313114  1.0000
  H   H953      1.0  0.3838648708904458  0.4290607507625625  0.9657297505042921  1.0000
  H   H954      1.0  0.4217928377734991  0.40877682423822387  0.9610216367643986  1.0000
  H   H955      1.0  0.3967542560108383  0.4123495316162508  0.9220422053023473  1.0000
  H   H956      1.0  0.45297582366912564  0.4893804958998558  0.9054271393128615  1.0000
  H   H957      1.0  0.4621308364740086  0.44381368032903507  0.9249834916951578  1.0000
  H   H958      1.0  0.435633699191052  0.44723936518444457  0.8872989528762035  1.0000
  H   H959      1.0  0.4379474381501515  0.5115824288300111  0.9676342211283874  1.0000
  H   H960      1.0  0.4459977300210793  0.4655262605933279  0.9865960322228906  1.0000
  H   H961      1.0  0.40856379357929035  0.4867283263207122  0.9925950665619891  1.0000
  H   H962      1.0  0.40111353980307307  0.5181899080429059  0.9162286866693305  1.0000
  H   H963      1.0  0.37194926527350947  0.49134868416344907  0.9399684461531661  1.0000
  H   H964      1.0  0.3847056352759078  0.47684749900543555  0.895725446896484  1.0000
  N   N60       1.0  0.2917326906739917  0.9047330457531771  0.16494971640258602  1.0000
  C   C621      1.0  0.32208091292074703  0.8959620503931236  0.18150540306856333  1.0000
  C   C622      1.0  0.27327091122054215  0.9273639090019117  0.1908128723449358  1.0000
  C   C623      1.0  0.2752491608687448  0.8690747636247886  0.15667223504659405  1.0000
  C   C624      1.0  0.2962763993517229  0.9266427808845374  0.13085498923274286  1.0000
  H   H965      1.0  0.3195362003924206  0.8784610718476774  0.20674492813020334  1.0000
  H   H966      1.0  0.33486472979707116  0.9221730474293552  0.18896120121766283  1.0000
  H   H967      1.0  0.3368674805919896  0.8798792030567669  0.16225980210741234  1.0000
  H   H968      1.0  0.25092300733549555  0.9358025156149922  0.17832446771793545  1.0000
  H   H969      1.0  0.2680550288740976  0.9110932605645762  0.21625906563042133  1.0000
  H   H970      1.0  0.28536686172676107  0.9539284485511104  0.1987243805941055  1.0000
  H   H971      1.0  0.2714617891900213  0.8518172553691497  0.18178526870258094  1.0000
  H   H972      1.0  0.28858157593683814  0.8510875612748044  0.13731449151359487  1.0000
  H   H973      1.0  0.2520952275700655  0.8747211972961038  0.14437034137804972  1.0000
  H   H974      1.0  0.3082222994484793  0.9540052674508753  0.13621604234625906  1.0000
  H   H975      1.0  0.27378753793010424  0.9334932900042173  0.11741570158710003  1.0000
  H   H976      1.0  0.3104702944125611  0.910666110806977  0.11077114607733664  1.0000
  N   N61       1.0  0.46029903855601967  0.8172640848684964  0.6002142714978551  1.0000
  C   C625      1.0  0.487863373052919  0.841917807927527  0.6024701622746093  1.0000
  C   C626      1.0  0.43504132551247177  0.8336967015058964  0.6222879633816684  1.0000
  C   C627      1.0  0.46812763781069583  0.7791100710987251  0.6143757388708893  1.0000
  C   C628      1.0  0.4501434901209996  0.8141779318576946  0.56177705508848  1.0000
  H   H977      1.0  0.5076475645077269  0.8299182450736932  0.5867823138175537  1.0000
  H   H978      1.0  0.49595949089751185  0.8448688932245458  0.6312204678869578  1.0000
  H   H979      1.0  0.48307933005708376  0.8708694228616276  0.5916467736931559  1.0000
  H   H980      1.0  0.41351985086376614  0.8166807921734318  0.6198121260719862  1.0000
  H   H981      1.0  0.44120217893622854  0.834576289342361  0.6518424755634709  1.0000
  H   H982      1.0  0.429336925965697  0.8630985815688829  0.6134070870005321  1.0000
  H   H983      1.0  0.44816338638980324  0.7593941103389767  0.6122590063025491  1.0000
  H   H984      1.0  0.4751736744785604  0.7802931442025504  0.6435442022452524  1.0000
  H   H985      1.0  0.4878527373019205  0.7663429854588387  0.5991775836424761  1.0000
  H   H986      1.0  0.42932166545762906  0.7956801394281569  0.5592944406199932  1.0000
  H   H987      1.0  0.46863774427346316  0.8016848456206641  0.5444085070870982  1.0000
  H   H988      1.0  0.4439912965534108  0.8424113811475066  0.5501237952837577  1.0000
  N   N62       1.0  0.6890198323799023  0.08044585594307252  0.9497094148095765  1.0000
  C   C629      1.0  0.6921782814032195  0.10188721808036694  0.9150807031373606  1.0000
  C   C630      1.0  0.7197981912908903  0.06686288468201851  0.961780207962107  1.0000
  C   C631      1.0  0.6683860212683235  0.04758813351293223  0.9440206934428576  1.0000
  C   C632      1.0  0.6757207816904781  0.10536364034761259  0.9780369157134715  1.0000
  H   H989      1.0  0.6695002851906204  0.11320212675774566  0.9054656969210925  1.0000
  H   H990      1.0  0.7013246883759945  0.08369047923228412  0.8927645273055937  1.0000
  H   H991      1.0  0.708083899349989  0.12645724968915606  0.9180912993967866  1.0000
  H   H992      1.0  0.7358847236351398  0.09087896884197111  0.9670276335726796  1.0000
  H   H993      1.0  0.7181604082390105  0.05008659663151649  0.9875766565711996  1.0000
  H   H994      1.0  0.730707609110071  0.048284887540195776  0.9409392858741932  1.0000
  H   H995      1.0  0.6652046088246338  0.031046642455381024  0.9697550618644999  1.0000
  H   H996      1.0  0.677875759791351  0.02794958421844229  0.9231168863398175  1.0000
  H   H997      1.0  0.6450710593171904  0.05671820642139114  0.9344822373832247  1.0000
  H   H998      1.0  0.6905185565195218  0.13065531349278747  0.9828361389570494  1.0000
  H   H999      1.0  0.6734690580474789  0.09014891736668051  0.004611822241602503  1.0000
  H   H1000     1.0  0.6522301801701021  0.11562613054387438  0.9702392969195265  1.0000
  N   N63       1.0  0.9790063455725503  0.21340984265336346  0.36860208826951396  1.0000
  C   C633      1.0  0.005819276185480282  0.2381212811011316  0.37614134770564606  1.0000
  C   C634      1.0  0.9866920900003003  0.18753545035625516  0.338282706666897  1.0000
  C   C635      1.0  0.9519705196320664  0.23693388868764992  0.358324853745753  1.0000
  C   C636      1.0  0.9715507887779442  0.19103311126691502  0.4016720742504076  1.0000
  H   H1001     1.0  0.0010756817466006652  0.2580631345256791  0.3989104561880568  1.0000
  H   H1002     1.0  0.012301062809777275  0.25520700136225055  0.3517339204497527  1.0000
  H   H1003     1.0  0.026644843259614026  0.22134573673878782  0.3841300996622063  1.0000
  H   H1004     1.0  0.9666028873079695  0.16932713861227144  0.33095364161274476  1.0000
  H   H1005     1.0  0.9933609749176414  0.20360797103416944  0.3132281099039263  1.0000
  H   H1006     1.0  0.006469947334752257  0.16864292839747197  0.3454230351993109  1.0000
  H   H1007     1.0  0.9561395918848096  0.25283848439636447  0.332498377776273  1.0000
  H   H1008     1.0  0.9461658631816027  0.25769790836974216  0.38014270280712237  1.0000
  H   H1009     1.0  0.9310595872998081  0.21914399300867096  0.35368912860023577  1.0000
  H   H1010     1.0  0.9518813553202302  0.1713819846506102  0.39671877427498875  1.0000
  H   H1011     1.0  0.9648428156870632  0.20981692373675367  0.4247106221786432  1.0000
  H   H1012     1.0  0.9917277897172119  0.17385704451590187  0.4110015743401738  1.0000
  N   N64       1.0  0.13730482249714698  0.6396285417322247  0.13724475786898527  1.0000
  C   C637      1.0  0.11863806838495253  0.6216151310640039  0.10827507206345932  1.0000
  C   C638      1.0  0.13616260120017565  0.6812952953505881  0.13259897552282784  1.0000
  C   C639      1.0  0.16973875849098255  0.6264719278771136  0.13485367887079613  1.0000
  C   C640      1.0  0.12458812266036867  0.6291867383113536  0.17336308010447854  1.0000
  H   H1013     1.0  0.1283924354020893  0.6271033968074359  0.08065074082082013  1.0000
  H   H1014     1.0  0.0943884496692559  0.6323759937823223  0.10835881354345656  1.0000
  H   H1015     1.0  0.11734973559070085  0.5903758599765793  0.11221858938774076  1.0000
  H   H1016     1.0  0.15036779089423877  0.6958330896161977  0.1536773836180585  1.0000
  H   H1017     1.0  0.14512266631933401  0.6901327607158027  0.10540490798109658  1.0000
  H   H1018     1.0  0.11205282272891981  0.6922504852273844  0.13511237463823744  1.0000
  H   H1019     1.0  0.18434971761469895  0.6398236713322188  0.15638202030022885  1.0000
  H   H1020     1.0  0.1801438636416111  0.6336338810204171  0.10791623921355176  1.0000
  H   H1021     1.0  0.1714892358433809  0.5951890686557808  0.1385151136018854  1.0000
  H   H1022     1.0  0.12340646306585207  0.5978876948890591  0.1770779089153769  1.0000
  H   H1023     1.0  0.10079699501047613  0.6403851000659597  0.17684021657067106  1.0000
  H   H1024     1.0  0.13881011383460232  0.6408152317544183  0.19599879589459301  1.0000
