data_image0
_chemical_formula_structural       FeS2FeS2FeSFeS3FeS2FeS2FeSFeS3FeS2FeS2FeSFeS3FeS2FeS2FeSFeS3FeS2FeS2FeSFeS3FeS2FeS2FeSFeS3FeS2FeS2FeSFeS3FeS2FeS2FeSFeS3FeS2FeS2FeSFeS3FeS2FeS2FeSFeS3FeS2FeS2FeSFeS3FeS2FeS2FeSFeS3FeS2FeS2FeSFeS3FeS2FeS2FeSFeS3FeS2FeS2FeSFeS3FeS2FeS2FeSFeS3FeS2FeS2FeSFeS3FeS2FeS2FeSFeS3FeS2FeS2FeSFeS3FeS2FeS2FeSFeS3FeS2FeS2FeSFeS3FeS2FeS2FeSFeS3FeS2FeS2FeSFeS3FeS2FeS2FeSFeS3FeS2FeS2FeSFeS3FeS2FeS2FeSFeS3FeS2FeS2FeSFeS3FeS2FeS2FeSFeS3FeS2FeS2FeSFeS3FeS2FeS2FeSFeS3FeS2FeS2FeSFeS3FeS2FeS2FeSFeS3C6H4C6H4C6H4C6H4C6H4C6H4C6H4C6H4C6H4C6H4C6H4C6H4C6H4C6H4C6H4C6H4C6H4C6H4C6H4C6H4C6H4C6H4C6H4C6H4C6H4C6H4C6H4C6H4C6H4C6H4C6H4C6H4C6H4C6H4C6H4C6H4C6H4C6H4C6H4C6H4C6H4C6H4C6H4C6H4C6H4C6H4C6H4C6H4C6H4C6H4C6H4C6H4C6H4C6H4C6H4C6H4C6H4C6H4C6H4C6H4C6H4C6H4C6H4C6H4NC4H12NC4H12NC4H12NC4H12NC4H12NC4H12NC4H12NC4H12NC4H12NC4H12NC4H12NC4H12NC4H12NC4H12NC4H12NC4H12NC4H12NC4H12NC4H12NC4H12NC4H12NC4H12NC4H12NC4H12NC4H12NC4H12NC4H12NC4H12NC4H12NC4H12NC4H12NC4H12NC4H12NC4H12NC4H12NC4H12NC4H12NC4H12NC4H12NC4H12NC4H12NC4H12NC4H12NC4H12NC4H12NC4H12NC4H12NC4H12NC4H12NC4H12NC4H12NC4H12NC4H12NC4H12NC4H12NC4H12NC4H12NC4H12NC4H12NC4H12NC4H12NC4H12NC4H12NC4H12
_chemical_formula_sum              "Fe128 S256 C640 H1024 N64"
_cell_length_a       44.18037025858043
_cell_length_b       45.05387758686461
_cell_length_c       59.43338337180787
_cell_angle_alpha    90.12570665067038
_cell_angle_beta     90.23001045363839
_cell_angle_gamma    87.38677151592034

_space_group_name_H-M_alt    "P 1"
_space_group_IT_number       1

loop_
  _space_group_symop_operation_xyz
  'x, y, z'

loop_
  _atom_site_type_symbol
  _atom_site_label
  _atom_site_symmetry_multiplicity
  _atom_site_fract_x
  _atom_site_fract_y
  _atom_site_fract_z
  _atom_site_occupancy
  Fe  Fe1       1.0  0.7304068890859229  0.08919788666816482  0.6351282465165918  1.0000
  S   S1        1.0  0.6841823133368813  0.07271972612612505  0.6282341860799117  1.0000
  S   S2        1.0  0.7737165900539582  0.06666372199633068  0.6230176296054707  1.0000
  Fe  Fe2       1.0  0.7070940626458971  0.14107234309764544  0.6633477087681384  1.0000
  S   S3        1.0  0.658787990374057  0.12870561215332144  0.6595770523171162  1.0000
  S   S4        1.0  0.7181976186759162  0.1810414504131228  0.6843532937270386  1.0000
  Fe  Fe3       1.0  0.6758735557153089  0.08199897100456834  0.6647519501074608  1.0000
  S   S5        1.0  0.6471201131227664  0.048857996043714984  0.681414471521271  1.0000
  Fe  Fe4       1.0  0.6706202516506582  0.12061607470174372  0.6234334878993226  1.0000
  S   S6        1.0  0.6336561165273322  0.13590544326220344  0.5998014610947826  1.0000
  S   S7        1.0  0.723368297709444  0.09451425553317601  0.6723439484570357  1.0000
  S   S8        1.0  0.7177635728052275  0.1367605910800203  0.6266061449733646  1.0000
  Fe  Fe5       1.0  0.7412972358694163  0.9050754762592887  0.5960648600063452  1.0000
  S   S9        1.0  0.6956756659162433  0.9267853545686731  0.5903709403362294  1.0000
  S   S10       1.0  0.7764658695037214  0.9266364041735117  0.6171557556171939  1.0000
  Fe  Fe6       1.0  0.7274681536056475  0.8514056840919776  0.5677998982530695  1.0000
  S   S11       1.0  0.6806122722420649  0.8691179405210628  0.5588334114109171  1.0000
  S   S12       1.0  0.7415438426835047  0.806095958800907  0.5544704375047144  1.0000
  Fe  Fe7       1.0  0.7020136659102467  0.9127138630814174  0.5546015689098533  1.0000
  S   S13       1.0  0.6851624912374732  0.9475663892931618  0.5302561882742579  1.0000
  Fe  Fe8       1.0  0.678119178790605  0.8815829628263594  0.5951073201643958  1.0000
  S   S14       1.0  0.6358591790980281  0.8749082207898206  0.6143970714357463  1.0000
  S   S15       1.0  0.7495693266526404  0.894141592898299  0.5596619488145466  1.0000
  S   S16       1.0  0.7231249999443109  0.8607683236540014  0.6047224850966707  1.0000
  Fe  Fe9       1.0  0.5351245050714719  0.23302468279966984  0.6665255694755245  1.0000
  S   S17       1.0  0.5010633708537969  0.24240609449043665  0.6393434272114177  1.0000
  S   S18       1.0  0.5838245923106363  0.24010275439144882  0.6609286947787418  1.0000
  Fe  Fe10      1.0  0.4895177444445658  0.2114286752501476  0.6993288000938397  1.0000
  S   S19       1.0  0.45079051071114634  0.21925990751332206  0.6751126793475721  1.0000
  S   S20       1.0  0.4842492895812217  0.1919121710840575  0.7336353758887132  1.0000
  Fe  Fe11      1.0  0.4827130060046954  0.1990611783586117  0.6498042804297334  1.0000
  S   S21       1.0  0.46614767912010013  0.16527741570474222  0.625784476745239  1.0000
  Fe  Fe12      1.0  0.4730287721682491  0.26183501295914474  0.6674238715744192  1.0000
  S   S22       1.0  0.44861409993352974  0.3058153271211997  0.6617468738125205  1.0000
  S   S23       1.0  0.5198365486865764  0.18771254140007612  0.674480538565706  1.0000
  S   S24       1.0  0.5088322641556193  0.2558178363701892  0.6941273867625226  1.0000
  Fe  Fe13      1.0  0.5134659845050191  0.9856187706024976  0.6189711933178585  1.0000
  S   S25       1.0  0.506534798807753  0.9813688233084294  0.6560259078257651  1.0000
  S   S26       1.0  0.5579029503255157  0.9940702107110536  0.6029754224097547  1.0000
  Fe  Fe14      1.0  0.4493762498748783  0.9703554765276585  0.607317420316138  1.0000
  S   S27       1.0  0.4360174329433658  0.9647194997432946  0.6435107294303111  1.0000
  S   S28       1.0  0.4217116059122509  0.9587231990448365  0.576982132581958  1.0000
  Fe  Fe15      1.0  0.46206319326334816  0.005890022196230804  0.6494205183824305  1.0000
  S   S29       1.0  0.449682005271542  0.04277194035584242  0.6738480863672053  1.0000
  Fe  Fe16      1.0  0.4814610063437122  0.9408692779492892  0.6470699777428942  1.0000
  S   S30       1.0  0.49123744629880706  0.8967903055317944  0.6634728546741373  1.0000
  S   S31       1.0  0.4714237291249444  0.013756452946779074  0.612802710635565  1.0000
  S   S32       1.0  0.49244345833125885  0.9429227227588753  0.6105118689184754  1.0000
  Fe  Fe17      1.0  0.4739951859216838  0.7578578425211377  0.5949081223368781  1.0000
  S   S33       1.0  0.5154254781573125  0.7487073337317914  0.5738827171221824  1.0000
  S   S34       1.0  0.4466558313607774  0.8010977545989334  0.5948971796959407  1.0000
  Fe  Fe18      1.0  0.4733490479735922  0.6955630821584442  0.6133493050589889  1.0000
  S   S35       1.0  0.5146344415595269  0.6802941390384326  0.5942158089047177  1.0000
  S   S36       1.0  0.4485171475746598  0.6665564702161358  0.6368964559045882  1.0000
  Fe  Fe19      1.0  0.5330452037031664  0.723894115213615  0.604175128893861  1.0000
  S   S37       1.0  0.580787180570415  0.7266499879424906  0.6166063821632376  1.0000
  Fe  Fe20      1.0  0.49394254837864066  0.7059599495142133  0.5653207681586431  1.0000
  S   S38       1.0  0.4987267898061923  0.6866794183295124  0.5304528142475662  1.0000
  S   S39       1.0  0.4935982303834361  0.7369227833237955  0.6261901941040845  1.0000
  S   S40       1.0  0.45061090712581564  0.7172407021675852  0.583703490805466  1.0000
  Fe  Fe21      1.0  0.5268582562582669  0.44795861286994604  0.6514723144915595  1.0000
  S   S41       1.0  0.5305587481406726  0.46096458301360355  0.6877076057388777  1.0000
  S   S42       1.0  0.5448708520519541  0.4020090296822156  0.6429906349199503  1.0000
  Fe  Fe22      1.0  0.5007050480697383  0.5086301092311285  0.6375844021620564  1.0000
  S   S43       1.0  0.5023189931240769  0.5268460253321652  0.6727108261716376  1.0000
  S   S44       1.0  0.48684100881169673  0.5365522850155338  0.6077000456378127  1.0000
  Fe  Fe23      1.0  0.5479328489568165  0.5032630696980364  0.6742352054042672  1.0000
  S   S45       1.0  0.5885359342757193  0.5242315695013158  0.6888382650078572  1.0000
  Fe  Fe24      1.0  0.48461656954492827  0.48292562503693276  0.6824498976184625  1.0000
  S   S46       1.0  0.4475961424893086  0.4769172881244224  0.7074202311342435  1.0000
  S   S47       1.0  0.5481612361007062  0.4886139978992421  0.638361284079456  1.0000
  S   S48       1.0  0.4791739899187377  0.4663364342945398  0.6471556147089125  1.0000
  Fe  Fe25      1.0  0.7581391185692264  0.5931373664026448  0.6124105849934479  1.0000
  S   S49       1.0  0.7285286318153087  0.5803280483850156  0.5834700516938887  1.0000
  S   S50       1.0  0.785841771876573  0.5626406988314444  0.6350541066767261  1.0000
  Fe  Fe26      1.0  0.7391552905576958  0.6584277069125933  0.6099009929295853  1.0000
  S   S51       1.0  0.7071286983730086  0.651931838147577  0.581243491918027  1.0000
  S   S52       1.0  0.7494108473476533  0.7021402276992115  0.625977946569811  1.0000
  Fe  Fe27      1.0  0.6940889238846256  0.6111656822573909  0.599670360853718  1.0000
  S   S53       1.0  0.6452648645162502  0.6011077070953278  0.6017336504715374  1.0000
  Fe  Fe28      1.0  0.7442820307700052  0.6218507614951214  0.5672931077125596  1.0000
  S   S54       1.0  0.7584762466620116  0.6255411569179938  0.5313421932769825  1.0000
  S   S55       1.0  0.7219779272370989  0.6206931309494155  0.6300078817986912  1.0000
  S   S56       1.0  0.7775310346729085  0.6315418607281829  0.5945057869022284  1.0000
  Fe  Fe29      1.0  0.7044689202781704  0.344486874095779  0.6576209466917636  1.0000
  S   S57       1.0  0.7178801949068722  0.34625454152012586  0.6939977925079444  1.0000
  S   S58       1.0  0.6833029497430947  0.30586098810664536  0.6406450671275185  1.0000
  Fe  Fe30      1.0  0.7307715617013524  0.40411087482566777  0.6467124847800849  1.0000
  S   S59       1.0  0.7469818350790349  0.41079900891381693  0.6820019107356401  1.0000
  S   S60       1.0  0.7354692960012678  0.43578832598688844  0.6178697366423083  1.0000
  Fe  Fe31      1.0  0.7616026394962775  0.3626385053016569  0.6809279465543172  1.0000
  S   S61       1.0  0.8074454110446226  0.3455858370331784  0.6927327186467084  1.0000
  Fe  Fe32      1.0  0.7018542087316378  0.3942133591586735  0.6917079215578326  1.0000
  S   S62       1.0  0.6780526567841839  0.41928152486134324  0.719531136445354  1.0000
  S   S63       1.0  0.7495479397774492  0.35715321285413826  0.6445949159544238  1.0000
  S   S64       1.0  0.6842233473104511  0.39110376621726456  0.6564575451579265  1.0000
  Fe  Fe33      1.0  0.005415691871624606  0.9216068502668003  0.3469654828503362  1.0000
  S   S65       1.0  0.9936380491474405  0.8904832433525603  0.31957993915867083  1.0000
  S   S66       1.0  0.9778921642616691  0.9191686650001705  0.3785092178611591  1.0000
  Fe  Fe34      1.0  0.055558978582253005  0.947018955523665  0.31975959990307407  1.0000
  S   S67       1.0  0.04748326924052981  0.9180552716144647  0.28972061481199324  1.0000
  S   S68       1.0  0.0938038873537288  0.9775129974622289  0.315826615818864  1.0000
  Fe  Fe35      1.0  0.9986032100309536  0.9290752331359444  0.29669328673520434  1.0000
  S   S69       1.0  0.9629686411989961  0.9350810764755777  0.27013526312432506  1.0000
  Fe  Fe36      1.0  0.043532926355270396  0.8823367537088428  0.3153612959148649  1.0000
  S   S70       1.0  0.05913484709223149  0.8349402025757945  0.3099905098327372  1.0000
  S   S71       1.0  0.006559362671638036  0.9614920598761453  0.3244414789836306  1.0000
  S   S72       1.0  0.05535301953432947  0.9100166267181286  0.3450875176944764  1.0000
  Fe  Fe37      1.0  0.7850836723936929  0.9562820633947434  0.4356957093609613  1.0000
  S   S73       1.0  0.771218316044039  0.972871986796119  0.4014056967534528  1.0000
  S   S74       1.0  0.7861530881231614  0.9882840512914461  0.464667885459524  1.0000
  Fe  Fe38      1.0  0.7888657286807097  0.8920842100795173  0.42080219704672206  1.0000
  S   S75       1.0  0.7745942658597684  0.9034328934499476  0.3856169413241362  1.0000
  S   S76       1.0  0.8009738785763835  0.8440427721041078  0.4270539776770972  1.0000
  Fe  Fe39      1.0  0.8070916078331428  0.9399298058207501  0.3890309648437787  1.0000
  S   S77       1.0  0.8383169381221426  0.9459884108089475  0.35961107928463576  1.0000
  Fe  Fe40      1.0  0.7403150046626609  0.9346203919943471  0.4014496662493611  1.0000
  S   S78       1.0  0.6919212170427566  0.9393525716456167  0.3893084413755352  1.0000
  S   S79       1.0  0.8236126935968943  0.9264971549842762  0.42343420422562283  1.0000
  S   S80       1.0  0.751742747657303  0.9203799269257501  0.436583270354587  1.0000
  Fe  Fe41      1.0  0.5012113920985307  0.9356051083550417  0.46791453733405874  1.0000
  S   S81       1.0  0.5307730852882723  0.9364403881214631  0.43740185037761214  1.0000
  S   S82       1.0  0.5018970147087347  0.9750998686833954  0.4906940033686556  1.0000
  Fe  Fe42      1.0  0.48859500105583564  0.8704636429861787  0.46215982549150325  1.0000
  S   S83       1.0  0.5186293799413179  0.8654775333891183  0.43198814943978336  1.0000
  S   S84       1.0  0.4630510079723341  0.8325294341769344  0.47561001519186347  1.0000
  Fe  Fe43      1.0  0.5505060386181129  0.8934996710203073  0.4509632989932189  1.0000
  S   S85       1.0  0.600104111719647  0.8825337834327909  0.4561335646259889  1.0000
  Fe  Fe44      1.0  0.4953420112825757  0.9087304608831184  0.42152907693523634  1.0000
  S   S86       1.0  0.4782129573701548  0.9111327546278037  0.3858311116197269  1.0000
  S   S87       1.0  0.5228025125403016  0.8940496962338413  0.48240079139734626  1.0000
  S   S88       1.0  0.46358444922513925  0.9121500453179857  0.45089947116261636  1.0000
  Fe  Fe45      1.0  0.27302421020316714  0.9279792343807115  0.31393844423148365  1.0000
  S   S89       1.0  0.26940601228004984  0.9622287765792948  0.34132552995215787  1.0000
  S   S90       1.0  0.2594685027948311  0.9397022736400705  0.2785980518259555  1.0000
  Fe  Fe46      1.0  0.28703264657319266  0.8776327700634305  0.3459177784234997  1.0000
  S   S91       1.0  0.2843947414623726  0.9070920472026751  0.3762151497122212  1.0000
  S   S92       1.0  0.29292046424016205  0.8283703579462749  0.35064308413974743  1.0000
  Fe  Fe47      1.0  0.24362252783889146  0.9284148972630359  0.3597229690436574  1.0000
  S   S93       1.0  0.20206360112907595  0.9384515465913424  0.3801605825487543  1.0000
  Fe  Fe48      1.0  0.31086812409298564  0.9382949107456992  0.3555548163034623  1.0000
  S   S94       1.0  0.3439059815179438  0.9646933835507904  0.375452533423438  1.0000
  S   S95       1.0  0.24355337427466636  0.8961707250544384  0.3312704634577689  1.0000
  S   S96       1.0  0.31718805874281625  0.9068297853531447  0.326257379708546  1.0000
  Fe  Fe49      1.0  0.3877053750635111  0.6766005064794046  0.44558741669523505  1.0000
  S   S97       1.0  0.4010480698356859  0.6337773121304707  0.42853231519250107  1.0000
  S   S98       1.0  0.3726661167480259  0.6790440176169025  0.4812548148449436  1.0000
  Fe  Fe50      1.0  0.40528338401993447  0.7142009946572822  0.40625570932525473  1.0000
  S   S99       1.0  0.4202584213292917  0.6748503287542593  0.38533897686654955  1.0000
  S   S100      1.0  0.4089912850974401  0.7609690451573318  0.3946679420249606  1.0000
  Fe  Fe51      1.0  0.3781346647803377  0.655031597262154  0.39856228936175564  1.0000
  S   S101      1.0  0.3478080928472698  0.6298428312827378  0.37585192756723557  1.0000
  Fe  Fe52      1.0  0.44168949714906786  0.6576318925258318  0.4173424925338136  1.0000
  S   S102      1.0  0.48884595035467054  0.6389813794933238  0.42295799053536814  1.0000
  S   S103      1.0  0.36123276026854495  0.6962408959002316  0.416704470794802  1.0000
  S   S104      1.0  0.43026584347313657  0.6986996064582534  0.43699770724834786  1.0000
  Fe  Fe53      1.0  0.18121533384268834  0.7278752340465731  0.31028350020641415  1.0000
  S   S105      1.0  0.15248235831789822  0.7102571585924355  0.3375810274948769  1.0000
  S   S106      1.0  0.182910551105184  0.7748604592543734  0.29902836249616493  1.0000
  Fe  Fe54      1.0  0.21002930275498272  0.6680007690037217  0.2981193026262038  1.0000
  S   S107      1.0  0.18385493037226944  0.6438717731522209  0.324035255518617  1.0000
  S   S108      1.0  0.24801773399501398  0.6496885346413884  0.2766852091879079  1.0000
  Fe  Fe55      1.0  0.14427829267652428  0.6735819079040284  0.31302775996445253  1.0000
  S   S109      1.0  0.0987823551671197  0.6562424866640454  0.3042955638981901  1.0000
  Fe  Fe56      1.0  0.19413744420339588  0.6822232161982501  0.34651717200780957  1.0000
  S   S110      1.0  0.21169233084015748  0.6769845784684494  0.3816827586380143  1.0000
  S   S111      1.0  0.1696584712217469  0.6938676290561464  0.28471248703601804  1.0000
  S   S112      1.0  0.22377041829554645  0.7037405516060412  0.32157926544760673  1.0000
  Fe  Fe57      1.0  0.9169055448925684  0.7600246431636017  0.30086542210135814  1.0000
  S   S113      1.0  0.9208654286553529  0.7625030162389252  0.3381634968294915  1.0000
  S   S114      1.0  0.9294807320908833  0.7991150687274297  0.28072351720274713  1.0000
  Fe  Fe58      1.0  0.8954366558993624  0.6977169144886433  0.30161533567957644  1.0000
  S   S115      1.0  0.8986711665000149  0.6938138204498963  0.339343498427017  1.0000
  S   S116      1.0  0.8747637266609771  0.6642856341677722  0.27879764183436834  1.0000
  Fe  Fe59      1.0  0.8770515003450802  0.7397552029206318  0.33899058310917074  1.0000
  S   S117      1.0  0.8400596786248377  0.7589218190358781  0.36103682713641805  1.0000
  Fe  Fe60      1.0  0.9425693913293202  0.7168487713909214  0.3351759120601654  1.0000
  S   S118      1.0  0.9851782280003879  0.7127173463721249  0.3559390529117692  1.0000
  S   S119      1.0  0.8706593421719623  0.7421730292097128  0.30172108646187723  1.0000
  S   S120      1.0  0.9415793173523972  0.7158568135561234  0.29741571631825514  1.0000
  Fe  Fe61      1.0  0.6563403176821488  0.6779758614989828  0.44234877409014095  1.0000
  S   S121      1.0  0.6520513236156599  0.6699647708108272  0.4053057408367336  1.0000
  S   S122      1.0  0.6435740994985469  0.6464036389119953  0.46944448932917726  1.0000
  Fe  Fe62      1.0  0.674162805358632  0.7415930243535288  0.43624102911380985  1.0000
  S   S123      1.0  0.6716461235866389  0.7395452202339813  0.3986333738725821  1.0000
  S   S124      1.0  0.6817809624098855  0.7828481532147867  0.45591527679739274  1.0000
  Fe  Fe63      1.0  0.629064487486473  0.7154543281782237  0.40462642851654707  1.0000
  S   S125      1.0  0.5842165307273229  0.7287690034281954  0.3890223685046268  1.0000
  Fe  Fe64      1.0  0.6950610110112788  0.6945299490897193  0.4028770571008094  1.0000
  S   S126      1.0  0.7335113174005964  0.6752339771434687  0.3820073900505338  1.0000
  S   S127      1.0  0.6298129946059965  0.721286664386416  0.44186885986026375  1.0000
  S   S128      1.0  0.7012764012250728  0.6988898790522862  0.44019083795532155  1.0000
  Fe  Fe65      1.0  0.4914828447930083  0.4204514863487298  0.8166100633595901  1.0000
  S   S129      1.0  0.5115239459994306  0.4030828595574111  0.8488556751584488  1.0000
  S   S130      1.0  0.5049734690129175  0.46463700345052317  0.8040471866825156  1.0000
  Fe  Fe66      1.0  0.45735301240312004  0.36464720218666813  0.8078180017306107  1.0000
  S   S131      1.0  0.47567791637025153  0.3422099971661247  0.838943262302473  1.0000
  S   S132      1.0  0.4247770231312757  0.34040792124522185  0.7863561722819012  1.0000
  Fe  Fe67      1.0  0.4650746132763625  0.3864576695711142  0.8551434669193293  1.0000
  S   S133      1.0  0.4416051823767064  0.3916953186381448  0.8886469776875306  1.0000
  Fe  Fe68      1.0  0.5196460145410506  0.3611773329583699  0.8290399729354723  1.0000
  S   S134      1.0  0.5630272082281348  0.3336942530961464  0.8277299080685055  1.0000
  S   S135      1.0  0.4442885890977039  0.4079211213314458  0.8244099644482484  1.0000
  S   S136      1.0  0.502342189536418  0.3794919849165355  0.7962790729005214  1.0000
  Fe  Fe69      1.0  0.2780937139477063  0.42420499850747595  0.9105379995729487  1.0000
  S   S137      1.0  0.2956209541970859  0.3917231636703541  0.9364199970171584  1.0000
  S   S138      1.0  0.30486886882226344  0.4383544544476548  0.8809127692547649  1.0000
  Fe  Fe70      1.0  0.21479798229915442  0.427810984473775  0.9294060550622083  1.0000
  S   S139      1.0  0.22591781651107565  0.39533681455118075  0.9569410668910072  1.0000
  S   S140      1.0  0.16924273245268068  0.4516199887462839  0.9261745499539412  1.0000
  Fe  Fe71      1.0  0.2684708712448122  0.4201623033234342  0.9605924274528437  1.0000
  S   S141      1.0  0.283598226219784  0.43044557225132035  0.9954291750010196  1.0000
  Fe  Fe72      1.0  0.2519943267510489  0.36954569213698446  0.9305595953968363  1.0000
  S   S142      1.0  0.25262472518169804  0.3199127795716409  0.9278179573279489  1.0000
  S   S143      1.0  0.2552186474288411  0.4551605638229046  0.9353352084599625  1.0000
  S   S144      1.0  0.2366195025676626  0.39948218901005716  0.9024201626031341  1.0000
  Fe  Fe73      1.0  0.956530757618744  0.40306813814831494  0.8995086854450648  1.0000
  S   S145      1.0  0.9468274707975698  0.40263215522526175  0.9365097659437572  1.0000
  S   S146      1.0  0.9225365882841768  0.41221403966753234  0.872025571743852  1.0000
  Fe  Fe74      1.0  0.02243866536566208  0.38355185090659655  0.9057154887156238  1.0000
  S   S147      1.0  0.01843501887197685  0.38064981201779297  0.9431263352570165  1.0000
  S   S148      1.0  0.06698261393828298  0.3708674409049172  0.8897026168513379  1.0000
  Fe  Fe75      1.0  0.9744014566473382  0.35980468056603376  0.9362105158874768  1.0000
  S   S149      1.0  0.9595037851750636  0.31946324531237585  0.9541796945410355  1.0000
  Fe  Fe76      1.0  0.9915049264328631  0.42376476664455004  0.9398039914055394  1.0000
  S   S150      1.0  0.002553654951221729  0.45927249275474197  0.9644584633083577  1.0000
  S   S151      1.0  0.9808489552045382  0.3583187175359813  0.8989328239624136  1.0000
  S   S152      1.0  0.9989293687229444  0.42840093670459295  0.9027280217422181  1.0000
  Fe  Fe77      1.0  0.7810872620597585  0.34699495141831993  0.8183102903466632  1.0000
  S   S153      1.0  0.7660945949066594  0.39273454197151797  0.8298120162361158  1.0000
  S   S154      1.0  0.8229046819139512  0.33679653484702643  0.7980218218431475  1.0000
  Fe  Fe78      1.0  0.734130291271683  0.3174713990129528  0.8465802859170174  1.0000
  S   S155      1.0  0.7154368023942079  0.36034199621314633  0.8608979555693884  1.0000
  S   S156      1.0  0.7184075915677437  0.2734446313869373  0.8578305195341511  1.0000
  Fe  Fe79      1.0  0.7189709911785099  0.37687575738867785  0.8254693294734362  1.0000
  S   S157      1.0  0.6804594896659372  0.4057230206444895  0.8114104671224694  1.0000
  Fe  Fe80      1.0  0.7641545009848761  0.37185302923921115  0.8639373515315028  1.0000
  S   S158      1.0  0.7860276487053043  0.38905234029858327  0.8951188753614868  1.0000
  S   S159      1.0  0.7342862463343823  0.332751664042164  0.8106450104576677  1.0000
  S   S160      1.0  0.7824512056250645  0.32732026904813794  0.8527006974563779  1.0000
  Fe  Fe81      1.0  0.34535595540987823  0.22282451351584384  0.8390021769736278  1.0000
  S   S161      1.0  0.34223343379020654  0.17922754307887317  0.8570310308452155  1.0000
  S   S162      1.0  0.34949390224079263  0.2675261843946704  0.855154144366794  1.0000
  Fe  Fe82      1.0  0.3421312369942588  0.1952425017695398  0.7928316872224905  1.0000
  S   S163      1.0  0.33817854349531024  0.14933725556647803  0.8061464385548099  1.0000
  S   S164      1.0  0.3457963764417285  0.2066292922808133  0.756449647325324  1.0000
  Fe  Fe83      1.0  0.306139695318431  0.17064648544467959  0.8312895315732808  1.0000
  S   S165      1.0  0.25955954026569955  0.15352911546093775  0.8363850131600676  1.0000
  Fe  Fe84      1.0  0.3746474842636485  0.1617338293587907  0.8303707079777832  1.0000
  S   S166      1.0  0.4153183023950915  0.1300662528533884  0.8334760492931979  1.0000
  S   S167      1.0  0.30684196562483057  0.21579318718512264  0.8154398364450873  1.0000
  S   S168      1.0  0.3810778375357965  0.2061746305576194  0.8150211570011906  1.0000
  Fe  Fe85      1.0  0.1157087672207747  0.23003733768105528  0.935095214874437  1.0000
  S   S169      1.0  0.13986120663487603  0.20900961664844586  0.9058755674797034  1.0000
  S   S170      1.0  0.11919974451468585  0.2790493873596337  0.9398826278079936  1.0000
  Fe  Fe86      1.0  0.09012858427079068  0.17202760127595038  0.9498460246591163  1.0000
  S   S171      1.0  0.1123788066558293  0.14578191372147276  0.9217623089752961  1.0000
  S   S172      1.0  0.06024062892251858  0.15313512630460283  0.9761846648803649  1.0000
  Fe  Fe87      1.0  0.152777695902752  0.17246375079556628  0.9299174194794668  1.0000
  S   S173      1.0  0.20149383783442076  0.1564487934535208  0.9331969792501479  1.0000
  Fe  Fe88      1.0  0.09706879867387029  0.1849607918206239  0.9005450886309433  1.0000
  S   S174      1.0  0.08083937788162544  0.18379961290580335  0.8647539501480971  1.0000
  S   S175      1.0  0.13178430104558633  0.19552123786040412  0.9598799613138753  1.0000
  S   S176      1.0  0.0715998516903326  0.20918909124764176  0.9279373708175676  1.0000
  Fe  Fe89      1.0  0.859518149956088  0.2334282990676455  0.8859147103449113  1.0000
  S   S177      1.0  0.8626562940090597  0.22922054049625276  0.8485286907351342  1.0000
  S   S178      1.0  0.8460189511798369  0.2777170580392597  0.9005143045737887  1.0000
  Fe  Fe90      1.0  0.8828120285129448  0.17076179140607922  0.8936299155967361  1.0000
  S   S179      1.0  0.8892728596719777  0.16101391445655613  0.8568872563525721  1.0000
  S   S180      1.0  0.8920475781479552  0.13757191099796107  0.9210831229581748  1.0000
  Fe  Fe91      1.0  0.9078398827467481  0.2065568055606716  0.8556732839334275  1.0000
  S   S181      1.0  0.9468327388174733  0.2228040890821109  0.8359260231357213  1.0000
  Fe  Fe92      1.0  0.8435386733885432  0.18455205334161356  0.8532288045784339  1.0000
  S   S182      1.0  0.8098254739217503  0.16799550628301288  0.8281916129040869  1.0000
  S   S183      1.0  0.9060057036337442  0.2138865337279203  0.8927196798448949  1.0000
  S   S184      1.0  0.8356518332302896  0.19106102744455183  0.8901179384449224  1.0000
  Fe  Fe93      1.0  0.642794868477135  0.13733442796431303  0.8322648299325165  1.0000
  S   S185      1.0  0.649336821702735  0.1343390761468948  0.7948295653484073  1.0000
  S   S186      1.0  0.6795716319342923  0.13090200314028844  0.858511935489919  1.0000
  Fe  Fe94      1.0  0.5782211146112809  0.16572513923067064  0.8279290270952834  1.0000
  S   S187      1.0  0.5797369948856064  0.16545636342313735  0.7903356411777279  1.0000
  S   S188      1.0  0.5402559496938925  0.191375113971653  0.8455128433214685  1.0000
  Fe  Fe95      1.0  0.601344634811813  0.11976227424625668  0.7944711095036444  1.0000
  S   S189      1.0  0.5830520011401491  0.08341079928759249  0.7732278273367817  1.0000
  Fe  Fe96      1.0  0.6271994916375647  0.17995530063854148  0.7942614271917383  1.0000
  S   S190      1.0  0.6457525421255698  0.21950430904980223  0.7774849636715423  1.0000
  S   S191      1.0  0.5962710489496823  0.11870088272877076  0.8321987849016347  1.0000
  S   S192      1.0  0.6238847002256945  0.183941547253107  0.8315056237549652  1.0000
  Fe  Fe97      1.0  0.1314994386031052  0.07509137492887806  0.0676953346593161  1.0000
  S   S193      1.0  0.17278556556704155  0.07377650480050757  0.08975987762177828  1.0000
  S   S194      1.0  0.13011302373908276  0.05415689636938348  0.0336471642070002  1.0000
  Fe  Fe98      1.0  0.09500373518485668  0.11607563249446462  0.09861754353973962  1.0000
  S   S195      1.0  0.13274954909928577  0.11899289556550531  0.12345302153620062  1.0000
  S   S196      1.0  0.04953565531779414  0.13703079021779066  0.10683402099253492  1.0000
  Fe  Fe99      1.0  0.1627125169643807  0.1228764958635992  0.09334498918718293  1.0000
  S   S197      1.0  0.19627573736663806  0.15751960050884026  0.0863832841854284  1.0000
  Fe  Fe100     1.0  0.13924817400319783  0.07004342110855664  0.1178712575187808  1.0000
  S   S198      1.0  0.14046455258123935  0.04144450208931816  0.1485888341278844  1.0000
  S   S199      1.0  0.12421991088991616  0.12438889075149831  0.06895259378890506  1.0000
  S   S200      1.0  0.09879067988558854  0.06674725263675524  0.09529702022775455  1.0000
  Fe  Fe101     1.0  0.12902377880676136  0.8549195834804874  0.17130402466734218  1.0000
  S   S201      1.0  0.15015480269439319  0.8562171408868008  0.13724233013033785  1.0000
  S   S202      1.0  0.07861989709565086  0.8623177526996677  0.17311961025878606  1.0000
  Fe  Fe102     1.0  0.1882144841703772  0.8393054689516113  0.19462992065012746  1.0000
  S   S203      1.0  0.21460574189334802  0.8387494239331988  0.1624728454409147  1.0000
  S   S204      1.0  0.213096926258732  0.8280059699545023  0.226816340568877  1.0000
  Fe  Fe103     1.0  0.1869801017943605  0.880208057187151  0.15424211589945144  1.0000
  S   S205      1.0  0.20921334041568584  0.9171762711977004  0.13612282974831502  1.0000
  Fe  Fe104     1.0  0.17560795103147722  0.8146736983656143  0.14824538806218948  1.0000
  S   S206      1.0  0.18188818814598903  0.7795832579776278  0.12174957559168387  1.0000
  S   S207      1.0  0.16355242047989962  0.8829548789650326  0.18772857283384617  1.0000
  S   S208      1.0  0.15147923379345063  0.8111615463434918  0.18111072962691088  1.0000
  Fe  Fe105     1.0  0.8931930048017482  0.27030305655289516  0.05503032260447038  1.0000
  S   S209      1.0  0.9040546243424437  0.25019377563641615  0.02125321791023671  1.0000
  S   S210      1.0  0.8799398402759314  0.3187027732438712  0.05961222666735155  1.0000
  Fe  Fe106     1.0  0.8988718116153938  0.2110599900723369  0.0793028090228507  1.0000
  S   S211      1.0  0.9100102896024521  0.18551165927519347  0.047767726431941826  1.0000
  S   S212      1.0  0.8987887022629021  0.19089024689124853  0.11380078630161905  1.0000
  Fe  Fe107     1.0  0.939564227982168  0.22315497764058018  0.04016763079390029  1.0000
  S   S213      1.0  0.9870345421891502  0.21261198011671686  0.02910798178891949  1.0000
  Fe  Fe108     1.0  0.8733713164428247  0.21460426114963094  0.03209528949277529  1.0000
  S   S214      1.0  0.8383656457514953  0.1963030147434925  0.009396711816338943  1.0000
  S   S215      1.0  0.931643765470223  0.24650273015676066  0.07293594125657776  1.0000
  S   S216      1.0  0.8593531974334977  0.23689994203441644  0.064346740824063  1.0000
  Fe  Fe109     1.0  0.9634720126009445  0.024212691415733234  0.17186268622859152  1.0000
  S   S217      1.0  0.9162915731343882  0.014916513611170856  0.1607644580339693  1.0000
  S   S218      1.0  0.9776206980019312  0.04346804323281672  0.2048536066575088  1.0000
  Fe  Fe110     1.0  0.9930114739702935  0.9917160922125077  0.13250566682343864  1.0000
  S   S219      1.0  0.9487520793091777  0.9787698857433768  0.11768796285236416  1.0000
  S   S220      1.0  0.04028901668132567  0.9800729585973649  0.120842934421155  1.0000
  Fe  Fe111     1.0  0.9330917516709002  0.025592794201557245  0.1263031456612608  1.0000
  S   S221      1.0  0.9059708705382109  0.05173517979167275  0.1005756662814703  1.0000
  Fe  Fe112     1.0  0.935597469369841  0.9690331346654206  0.1533167288272957  1.0000
  S   S222      1.0  0.9112804753073542  0.9295562325024431  0.1658331774651942  1.0000
  S   S223      1.0  0.9786683219807483  0.039405111784825975  0.13800503956948176  1.0000
  S   S224      1.0  0.9814306721629174  0.9775570329756477  0.1672289998616636  1.0000
  Fe  Fe113     1.0  0.16691488181834807  0.5982728683215784  0.17390990503053355  1.0000
  S   S225      1.0  0.15121243905706586  0.5960679260461366  0.13809312117373157  1.0000
  S   S226      1.0  0.21633784202532963  0.5940836429099466  0.18240571421208682  1.0000
  Fe  Fe114     1.0  0.10394694370485959  0.6010458057053714  0.19221352734074684  1.0000
  S   S227      1.0  0.0820412673159102  0.5988648313093542  0.1583815499672339  1.0000
  S   S228      1.0  0.0777330629282141  0.604599225869255  0.22414375932881705  1.0000
  Fe  Fe115     1.0  0.11827937413063733  0.5640974291499402  0.15101396829823588  1.0000
  S   S229      1.0  0.10754409314426662  0.5257968457483825  0.12891185910717898  1.0000
  Fe  Fe116     1.0  0.11646820358357864  0.631169966820841  0.14827738620651615  1.0000
  S   S230      1.0  0.10244531757826889  0.6666853416393805  0.12363217519345863  1.0000
  S   S231      1.0  0.13708303243465336  0.5628239081239406  0.1860362421855946  1.0000
  S   S232      1.0  0.1352701201667918  0.6367931847214989  0.18297267514001228  1.0000
  Fe  Fe117     1.0  0.2067439982876369  0.3373152105613947  0.07414142855944972  1.0000
  S   S233      1.0  0.21010241274541838  0.3348000159803661  0.11171300835997755  1.0000
  S   S234      1.0  0.24125253115187398  0.32009157767757895  0.049243695419904254  1.0000
  Fe  Fe118     1.0  0.14186488529808602  0.3613923631297174  0.07410488901299161  1.0000
  S   S235      1.0  0.13864465309845422  0.3613036855987305  0.11174473078772285  1.0000
  S   S236      1.0  0.10358904536621569  0.37050658664676395  0.049752324870043774  1.0000
  Fe  Fe119     1.0  0.1851848105514151  0.37936214786172057  0.11086337731534979  1.0000
  S   S237      1.0  0.19700621213853878  0.4138447882071076  0.13644525733019663  1.0000
  Fe  Fe120     1.0  0.16371313976585028  0.31706464368363785  0.10984721747271031  1.0000
  S   S238      1.0  0.14927602409413956  0.27843221900226395  0.13010740366097595  1.0000
  S   S239      1.0  0.18603149237050087  0.3837766350083732  0.07315673115813492  1.0000
  S   S240      1.0  0.16242713718011995  0.31540700636778385  0.07239484183283618  1.0000
  Fe  Fe121     1.0  0.911115724991943  0.7297544576646439  0.1722831885212794  1.0000
  S   S241      1.0  0.9265320926030987  0.7357296264500773  0.1368127397401188  1.0000
  S   S242      1.0  0.8641774948242384  0.7166352377510218  0.1806082253163344  1.0000
  Fe  Fe122     1.0  0.9743899349194138  0.7297947480720068  0.1913397291390424  1.0000
  S   S243      1.0  0.9958340523105775  0.7347804041805368  0.15759688203619554  1.0000
  S   S244      1.0  0.9992601952976541  0.7246193688603968  0.2240941383271743  1.0000
  Fe  Fe123     1.0  0.9577704913404803  0.7684406521418857  0.15147768579224233  1.0000
  S   S245      1.0  0.9711663224389345  0.808315129380255  0.13196614325715947  1.0000
  Fe  Fe124     1.0  0.963091531944937  0.7018489318863993  0.1456071735300089  1.0000
  S   S246      1.0  0.973260132634491  0.6676049269800808  0.11902315729783952  1.0000
  S   S247      1.0  0.9386906506782442  0.7661781603240161  0.1864536412791354  1.0000
  S   S248      1.0  0.9454139819069501  0.6932491862053076  0.1799989814991439  1.0000
  Fe  Fe125     1.0  0.9538561149929379  0.4413788481806521  0.11075979562174143  1.0000
  S   S249      1.0  0.9676073504440004  0.4450708591794649  0.07489157225684084  1.0000
  S   S250      1.0  0.9587253894520757  0.395169572907229  0.12463591334083635  1.0000
  Fe  Fe126     1.0  0.9406131481898643  0.5073461965671104  0.11574790408045743  1.0000
  S   S251      1.0  0.9533729832515384  0.5174779516761461  0.08014186000593293  1.0000
  S   S252      1.0  0.9279242797135111  0.5409879150921777  0.14250817939599858  1.0000
  Fe  Fe127     1.0  0.9277634694063034  0.47712054100493406  0.07157511939562511  1.0000
  S   S253      1.0  0.9021611968812143  0.4738984939801652  0.039170570293385554  1.0000
  Fe  Fe128     1.0  0.9921853328706475  0.48482848218665997  0.08576626312528979  1.0000
  S   S254      1.0  0.038686779794269155  0.4937005710605381  0.07313285613272913  1.0000
  S   S255      1.0  0.9110867955894869  0.46972990507550955  0.1066963554556426  1.0000
  S   S256      1.0  0.9822999031283005  0.47837542168273184  0.12232237459209422  1.0000
  C   C1        1.0  0.9612216689196044  0.6324141299015561  0.1259538215293269  1.0000
  C   C2        1.0  0.9590555612765674  0.6234654255086317  0.14837683174143798  1.0000
  C   C3        1.0  0.9484775671306225  0.5953807401524838  0.15344305692540577  1.0000
  C   C4        1.0  0.9405156261751115  0.5761722208235232  0.1360733913419126  1.0000
  C   C5        1.0  0.9426840889667975  0.5852262409576693  0.11370046705421566  1.0000
  C   C6        1.0  0.9532784964863114  0.6132067789771333  0.10864198103712996  1.0000
  H   H1        1.0  0.9661037127537165  0.637868910218535  0.16174166409022422  1.0000
  H   H2        1.0  0.9469352303563388  0.5882676061954539  0.17074381822270565  1.0000
  H   H3        1.0  0.9354901598959176  0.570979146646543  0.10030248790924867  1.0000
  H   H4        1.0  0.9546597576363187  0.6202580084224566  0.09129310736566754  1.0000
  C   C7        1.0  0.08613137261102866  0.4054352923267288  0.05475943217911228  1.0000
  C   C8        1.0  0.10184885027377799  0.42728884494323677  0.06596355595780934  1.0000
  C   C9        1.0  0.08746875284990518  0.4550432646484809  0.07028508154194268  1.0000
  C   C10       1.0  0.057299111135711955  0.46074094569439134  0.06406181597045335  1.0000
  C   C11       1.0  0.041832752293460285  0.43918425695135704  0.052284511983667015  1.0000
  C   C12       1.0  0.05628028405671427  0.411520212988534  0.04758715018014703  1.0000
  H   H5        1.0  0.1249985459252519  0.42280948398372475  0.07142027744184465  1.0000
  H   H6        1.0  0.0991532813274274  0.4718294869555145  0.07927400188593525  1.0000
  H   H7        1.0  0.01878142751361489  0.4438196515456988  0.04676806691520086  1.0000
  H   H8        1.0  0.04408805267160321  0.3946641793835952  0.03882410438042627  1.0000
  C   C13       1.0  0.05725751346459784  0.6387037655333289  0.22409316130864715  1.0000
  C   C14       1.0  0.046100605567565685  0.6506048756750568  0.24430421940274344  1.0000
  C   C15       1.0  0.028599257358452812  0.6773365768073392  0.24424539642188992  1.0000
  C   C16       1.0  0.02200215318778187  0.6919397892465067  0.22397553506491405  1.0000
  C   C17       1.0  0.03314540607481642  0.6800516657834751  0.20376151282678778  1.0000
  C   C18       1.0  0.051104878966951706  0.6536264821036191  0.20385653042351565  1.0000
  H   H9        1.0  0.050932272222576465  0.6390602718109112  0.2599290385481765  1.0000
  H   H10       1.0  0.01968870649373322  0.6864552228132197  0.2598652984230281  1.0000
  H   H11       1.0  0.028160156717684126  0.6912822869373372  0.18803718554638  1.0000
  H   H12       1.0  0.05970213580646223  0.6446524139686556  0.18817328390166624  1.0000
  C   C19       1.0  0.13423241108561879  0.4962140464310428  0.13129602581919927  1.0000
  C   C20       1.0  0.144108398666345  0.48608530992091087  0.1524086327895869  1.0000
  C   C21       1.0  0.16365135710326834  0.46075306446909214  0.15396922884183026  1.0000
  C   C22       1.0  0.17270394341056697  0.44533038905556255  0.13445753178230213  1.0000
  C   C23       1.0  0.163321615177295  0.4558685559695593  0.11337498436950955  1.0000
  C   C24       1.0  0.14461330942194164  0.48167529269673176  0.11182573573372956  1.0000
  H   H13       1.0  0.13614676774421064  0.4973386042405451  0.1675056334355716  1.0000
  H   H14       1.0  0.17118268760587774  0.45266814616446605  0.17028588206152878  1.0000
  H   H15       1.0  0.17103443537666627  0.4444985967820564  0.09825406919127433  1.0000
  H   H16       1.0  0.1384431371465083  0.4906230671470784  0.09552852360837716  1.0000
  C   C25       1.0  0.925532029167543  0.8958605336603199  0.15450862514097394  1.0000
  C   C26       1.0  0.9490995116065593  0.8955445952266272  0.1389237786066081  1.0000
  C   C27       1.0  0.9622733098680522  0.868460579907417  0.13139550222857743  1.0000
  C   C28       1.0  0.9519629854722576  0.841628158741265  0.13956325353864313  1.0000
  C   C29       1.0  0.9277861453714352  0.8418615982510785  0.15469086756499878  1.0000
  C   C30       1.0  0.9145022137487757  0.8690131417891439  0.16210366182260302  1.0000
  H   H17       1.0  0.9572924950243449  0.9162145235100826  0.13284009738912003  1.0000
  H   H18       1.0  0.9808937053619787  0.8683559258035272  0.11962382253833614  1.0000
  H   H19       1.0  0.9195117118142307  0.8212057469976043  0.16085366821006414  1.0000
  H   H20       1.0  0.8960611402046136  0.8692311141133898  0.17404286699926436  1.0000
  C   C31       1.0  0.9023723872898559  0.3393395960379788  0.07773516445702433  1.0000
  C   C32       1.0  0.8922637345175903  0.3681359848643778  0.08365614043688496  1.0000
  C   C33       1.0  0.9095533073129117  0.38516660119306323  0.09814322577908796  1.0000
  C   C34       1.0  0.9367077754084371  0.37326681326356853  0.10719624910868908  1.0000
  C   C35       1.0  0.9467493171707648  0.3443370497406329  0.10148753165778412  1.0000
  C   C36       1.0  0.9298400594890525  0.32758974880585934  0.08643939463558148  1.0000
  H   H21       1.0  0.8710961282296328  0.37744721053634167  0.07693051644294857  1.0000
  H   H22       1.0  0.9016019684851982  0.40743413063853784  0.10251869682107895  1.0000
  H   H23       1.0  0.9680139141004308  0.33525081140597845  0.10816408186039261  1.0000
  H   H24       1.0  0.9383094948887498  0.30581606618550017  0.08146556496538282  1.0000
  C   C37       1.0  0.901102869616097  0.08999630949745274  0.10592578034385004  1.0000
  C   C38       1.0  0.8876729610933602  0.10829955344464914  0.08935077459149654  1.0000
  C   C39       1.0  0.8863018023698747  0.13921715130474205  0.09206554234905262  1.0000
  C   C40       1.0  0.8983900776491502  0.15202805318336152  0.11135791676419449  1.0000
  C   C41       1.0  0.9110697900938649  0.13371556381842967  0.1283010797239699  1.0000
  C   C42       1.0  0.9125070411533147  0.10267040849687802  0.12556959648380953  1.0000
  H   H25       1.0  0.8785292849698341  0.0985731867232893  0.07425942306511413  1.0000
  H   H26       1.0  0.8754968319953312  0.15311044468480117  0.07930439576251258  1.0000
  H   H27       1.0  0.9202916769322462  0.1435360694436292  0.1433166939133105  1.0000
  H   H28       1.0  0.9227923525570447  0.08859617024024061  0.13847660728952335  1.0000
  C   C43       1.0  0.06814445177155838  0.8946093009693146  0.1580493791158179  1.0000
  C   C44       1.0  0.03869609076566816  0.8988539357774883  0.14952708905432519  1.0000
  C   C45       1.0  0.030264992132070123  0.9250647787233346  0.13795529908957796  1.0000
  C   C46       1.0  0.051224445392102025  0.9469846217092028  0.13479618109509248  1.0000
  C   C47       1.0  0.08063926187525272  0.942668164299004  0.143286490214169  1.0000
  C   C48       1.0  0.08918728465649448  0.9163854284416301  0.1546822000038981  1.0000
  H   H29       1.0  0.022398725500319523  0.8819391639398041  0.1517182970012697  1.0000
  H   H30       1.0  0.007582252578719695  0.928306409183962  0.13130818225939123  1.0000
  H   H31       1.0  0.09648989055941692  0.9599930671967023  0.14176567345133675  1.0000
  H   H32       1.0  0.11181103669886293  0.9133236966366246  0.16143720637779496  1.0000
  C   C49       1.0  0.16012635000367073  0.7480596311738611  0.12323672647243475  1.0000
  C   C50       1.0  0.15096490998698942  0.7350160434711132  0.1031110689222543  1.0000
  C   C51       1.0  0.13349210332511652  0.7098980551658806  0.10345341781783657  1.0000
  C   C52       1.0  0.125942100418226  0.6970141169076897  0.1239232471152538  1.0000
  C   C53       1.0  0.13560644940596517  0.7095991019301525  0.14417525171084195  1.0000
  C   C54       1.0  0.15230252175040435  0.7354986800870684  0.14384362843871784  1.0000
  H   H33       1.0  0.15717545176168984  0.7445456546284127  0.08717433756797566  1.0000
  H   H34       1.0  0.1260177119088941  0.7002903567707485  0.08779920108727901  1.0000
  H   H35       1.0  0.1295267506865065  0.6998334367960213  0.1600396121424239  1.0000
  H   H36       1.0  0.15962609902229552  0.7453699846527454  0.15942317472146925  1.0000
  C   C55       1.0  0.18633323461087156  0.1910337442757361  0.10018440222703551  1.0000
  C   C56       1.0  0.19521985241012402  0.2179723834683669  0.09123703623529211  1.0000
  C   C57       1.0  0.1850650463417974  0.24496859227660295  0.10104501307495739  1.0000
  C   C58       1.0  0.16592851460751068  0.24505728220387674  0.11976023731351537  1.0000
  C   C59       1.0  0.15819470151069406  0.21811246631250097  0.1292959506523026  1.0000
  C   C60       1.0  0.16841972136566224  0.19117478516093792  0.11952946407829357  1.0000
  H   H37       1.0  0.20962137185822466  0.2180292609644611  0.07655656126239196  1.0000
  H   H38       1.0  0.19206664677195695  0.2656425780773339  0.09406026983178917  1.0000
  H   H39       1.0  0.14400195614604028  0.2180432825078043  0.14408917787043007  1.0000
  H   H40       1.0  0.16270333755725058  0.17057408246815858  0.12716935416634612  1.0000
  C   C61       1.0  0.004015523545310318  0.19021782581075175  0.05002895068001245  1.0000
  C   C62       1.0  0.9887076060663386  0.185322105000999  0.07015018238220905  1.0000
  C   C63       1.0  0.0029780099930694073  0.1691996256559512  0.08756316376042705  1.0000
  C   C64       1.0  0.03224056541833731  0.15690901584279385  0.08463977343804041  1.0000
  C   C65       1.0  0.04714488567220566  0.16075468336421136  0.06418595232184576  1.0000
  C   C66       1.0  0.03324563796736735  0.1777960262928242  0.04700694112143444  1.0000
  H   H41       1.0  0.9659680938063367  0.19417986980459087  0.07259927701488778  1.0000
  H   H42       1.0  0.9911643820964984  0.16618916827238078  0.10327638174013765  1.0000
  H   H43       1.0  0.06940673258897453  0.1509401606325731  0.06153457503904614  1.0000
  H   H44       1.0  0.04507496394295374  0.18127091657779468  0.03136414986572378  1.0000
  C   C67       1.0  0.16074482398623066  0.007566699006771981  0.1455163527437364  1.0000
  C   C68       1.0  0.15199660212164412  0.9832291559237921  0.15804545775733445  1.0000
  C   C69       1.0  0.16640991834755187  0.9553096953665597  0.15476605314794536  1.0000
  C   C70       1.0  0.19044113607523608  0.9518803603708904  0.1396788931138209  1.0000
  C   C71       1.0  0.19978061927787022  0.9764035328250478  0.1275313834903382  1.0000
  C   C72       1.0  0.18463586539019727  0.00422539881055517  0.13021683054439803  1.0000
  H   H45       1.0  0.13338969630625713  0.9857514253427505  0.16980340210906203  1.0000
  H   H46       1.0  0.1589946074584717  0.9365468042965672  0.16407444635217547  1.0000
  H   H47       1.0  0.21850477484159042  0.9738262014166216  0.11589580368753372  1.0000
  H   H48       1.0  0.19165901238240582  0.02311203121488758  0.12069029448117363  1.0000
  C   C73       1.0  0.8551981959114325  0.18024023349385443  0.9854807195360458  1.0000
  C   C74       1.0  0.8658178871393927  0.15046614839610353  0.9856330379029251  1.0000
  C   C75       1.0  0.8775557326619786  0.1372655280629807  0.9658900400826359  1.0000
  C   C76       1.0  0.8785948355118383  0.15390526973696717  0.9460830139940671  1.0000
  C   C77       1.0  0.8685241826592393  0.18377181853461902  0.946146478035536  1.0000
  C   C78       1.0  0.8568228820668866  0.19693232323424112  0.9657877233463178  1.0000
  H   H49       1.0  0.8644082380012501  0.13753107145354346  0.0008897431777132869  1.0000
  H   H50       1.0  0.8853779127445589  0.11415780693908056  0.9659227166154423  1.0000
  H   H51       1.0  0.8694983928620218  0.19682155276108712  0.9310479012638084  1.0000
  H   H52       1.0  0.8486413930807731  0.21995157389881023  0.9656548785478756  1.0000
  C   C79       1.0  0.7731619481832271  0.15939839345441423  0.8368412690858861  1.0000
  C   C80       1.0  0.753431678260399  0.1474156513735106  0.8210928526930129  1.0000
  C   C81       1.0  0.7243995847275495  0.1394025813455712  0.8275352366206398  1.0000
  C   C82       1.0  0.7150345733639664  0.1429550413440884  0.8498525116680088  1.0000
  C   C83       1.0  0.7346253030138882  0.15532172452661033  0.86558475843006  1.0000
  C   C84       1.0  0.7634675163869985  0.1639745693233815  0.859002917286242  1.0000
  H   H53       1.0  0.7607418975523805  0.14378560732270515  0.8039132121392637  1.0000
  H   H54       1.0  0.7096519797564306  0.12952586654544399  0.8153710480080141  1.0000
  H   H55       1.0  0.7272911958761719  0.1584845825910616  0.8828045942446439  1.0000
  H   H56       1.0  0.7781055730827565  0.17413465916115112  0.871047441612136  1.0000
  C   C85       1.0  0.07861621597060854  0.12395765472018859  0.9911569992687628  1.0000
  C   C86       1.0  0.104218251312127  0.10863558981446356  0.9823812999787521  1.0000
  C   C87       1.0  0.11910272285697947  0.0859093683421029  0.9949242341931297  1.0000
  C   C88       1.0  0.10906514214847013  0.07929611434198315  0.016572869104027665  1.0000
  C   C89       1.0  0.0834172797609039  0.09454449795112077  0.025284351629113244  1.0000
  C   C90       1.0  0.0678794461649054  0.11640996169745232  0.012407336118684054  1.0000
  H   H57       1.0  0.11244569669330838  0.1141323464857902  0.9658757814620564  1.0000
  H   H58       1.0  0.13888496879074988  0.07408899960806287  0.9881039263428079  1.0000
  H   H59       1.0  0.07563310331954197  0.0895094106326409  0.04200619681326834  1.0000
  H   H60       1.0  0.04793154539402211  0.12798138884132318  0.01909019365889586  1.0000
  C   C91       1.0  0.04300142769054216  0.19377704182623023  0.8578351614722237  1.0000
  C   C92       1.0  0.03689017712413878  0.20446470088858068  0.8361449088652908  1.0000
  C   C93       1.0  0.007338005242944368  0.21328880098732436  0.8297825475787036  1.0000
  C   C94       1.0  0.9833736693365216  0.2107098896025006  0.8448144344927631  1.0000
  C   C95       1.0  0.9892239676871896  0.1997197330294792  0.866576843798656  1.0000
  C   C96       1.0  0.01918020656144792  0.1915630790728599  0.8731954945549976  1.0000
  H   H61       1.0  0.05516212053841541  0.20600214264618755  0.824183093877002  1.0000
  H   H62       1.0  0.002972739591078577  0.22165272012665965  0.8129682794218799  1.0000
  H   H63       1.0  0.9707813373997095  0.19761834297502015  0.8782556189785279  1.0000
  H   H64       1.0  0.023795526729703868  0.1830094760952748  0.8899049491637624  1.0000
  C   C97       1.0  0.44985354512985576  0.1471478219883211  0.8375672512915878  1.0000
  C   C98       1.0  0.4506735958654319  0.1761747044120446  0.8458884485030334  1.0000
  C   C99       1.0  0.47862617972823995  0.1892793225540055  0.8490553136472242  1.0000
  C   C100      1.0  0.5056856089726195  0.17382393779384686  0.843123162375714  1.0000
  C   C101      1.0  0.5048349785337245  0.14489593864981049  0.8346760291095424  1.0000
  C   C102      1.0  0.4769878688235198  0.13139424791652538  0.8323498431290942  1.0000
  H   H65       1.0  0.42982230888402156  0.1881831726114404  0.8504165721460951  1.0000
  H   H66       1.0  0.47927461991019604  0.21138751465260794  0.8560648302767966  1.0000
  H   H67       1.0  0.5256592516714746  0.13272860631808295  0.8303005970668855  1.0000
  H   H68       1.0  0.47641185256482577  0.10874105436021161  0.8264036293797407  1.0000
  C   C103      1.0  0.24461737665138905  0.15063085943603982  0.8636066541045386  1.0000
  C   C104      1.0  0.2132643696902692  0.14843761625521662  0.866014098408282  1.0000
  C   C105      1.0  0.20002469937723372  0.14961336068036052  0.8874262109841156  1.0000
  C   C106      1.0  0.21819357903086428  0.15233368062132727  0.9065613711751361  1.0000
  C   C107      1.0  0.24970974144353061  0.15325213105681368  0.904270594838853  1.0000
  C   C108      1.0  0.26292885415001527  0.15251618018861704  0.8827905106957091  1.0000
  H   H69       1.0  0.19903104773105565  0.14676598464283083  0.8512349653748055  1.0000
  H   H70       1.0  0.17570709499919135  0.14861493073835358  0.8890752908893582  1.0000
  H   H71       1.0  0.2638362766593047  0.1551071793314962  0.9190705025500664  1.0000
  H   H72       1.0  0.2871986766703124  0.15364637105319667  0.881060487044413  1.0000
  C   C109      1.0  0.6988054063630701  0.2582080896014244  0.8352955581671712  1.0000
  C   C110      1.0  0.6983569307681852  0.22746616864496494  0.8325310813569051  1.0000
  C   C111      1.0  0.6834916054675664  0.21561615733457137  0.8139301000161143  1.0000
  C   C112      1.0  0.6685357012187904  0.2344687066643162  0.798358232993103  1.0000
  C   C113      1.0  0.6693343423686624  0.26522833217929875  0.8009898769889523  1.0000
  C   C114      1.0  0.6842538482486245  0.2769931646453331  0.8195990448817501  1.0000
  H   H73       1.0  0.7096558182043614  0.21277458463832508  0.8446177771841641  1.0000
  H   H74       1.0  0.6833467055527284  0.19176100711396515  0.8118118529033893  1.0000
  H   H75       1.0  0.6573662353857281  0.2798871849099787  0.7892268083962168  1.0000
  H   H76       1.0  0.6836537176691458  0.30060182069448627  0.8223377938549541  1.0000
  C   C115      1.0  0.9737705378448933  0.4659383024381624  0.9842463883409912  1.0000
  C   C116      1.0  0.9814680471922048  0.47580965892802646  0.005714777370711133  1.0000
  C   C117      1.0  0.9592259259115334  0.47918775210770986  0.02231659769101446  1.0000
  C   C118      1.0  0.929159462223599  0.472812484043401  0.01756424345886809  1.0000
  C   C119      1.0  0.9211921072662431  0.464087163458082  0.9958053319447131  1.0000
  C   C120      1.0  0.9435245090951657  0.4606314215023305  0.9791383550163182  1.0000
  H   H77       1.0  0.0047073793052947455  0.48041887356324603  0.009690628492783793  1.0000
  H   H78       1.0  0.9655241754212235  0.4867606630122229  0.03879560917134395  1.0000
  H   H79       1.0  0.8978524686030538  0.4597728030136509  0.9919121670535666  1.0000
  H   H80       1.0  0.9372202522043342  0.4543769963563274  0.9622948260554827  1.0000
  C   C121      1.0  0.9257983993557515  0.3086055899587919  0.9415949454129999  1.0000
  C   C122      1.0  0.9078310693702097  0.3290052922210292  0.9290961109337174  1.0000
  C   C123      1.0  0.8819274011512848  0.31984591834198356  0.917879747557133  1.0000
  C   C124      1.0  0.8748631051436344  0.28992761822049107  0.9181198180501201  1.0000
  C   C125      1.0  0.8920988841393538  0.2697421247788122  0.9313243406106719  1.0000
  C   C126      1.0  0.9173317102684637  0.2791810626231873  0.9433262999866128  1.0000
  H   H81       1.0  0.9138787855038583  0.35184146282602785  0.9278501121465833  1.0000
  H   H82       1.0  0.8681548727867471  0.3357993305580256  0.9083094606314557  1.0000
  H   H83       1.0  0.8859438259144286  0.24688795695399646  0.9323589634400937  1.0000
  H   H84       1.0  0.9307438105606537  0.26357573992044264  0.9534426116890525  1.0000
  C   C127      1.0  0.8849228161000349  0.40550973722323214  0.8791364282177958  1.0000
  C   C128      1.0  0.8645753100820915  0.39915198146148456  0.8619227069390086  1.0000
  C   C129      1.0  0.834546791112862  0.39325277630301797  0.8669835127650576  1.0000
  C   C130      1.0  0.8242502810608164  0.3948702945690523  0.8891817964231673  1.0000
  C   C131      1.0  0.8445458129079929  0.4012884659721586  0.9064859650550574  1.0000
  C   C132      1.0  0.8749670095505813  0.4063123989248981  0.9014805447667361  1.0000
  H   H85       1.0  0.8720484351171949  0.3986806023178985  0.844611575297129  1.0000
  H   H86       1.0  0.819381607030616  0.38784061706458095  0.8535716362419852  1.0000
  H   H87       1.0  0.836737928859955  0.40260212319662947  0.9236992649923046  1.0000
  H   H88       1.0  0.8903340469863594  0.41177716487006144  0.914822497649223  1.0000
  C   C133      1.0  0.257424731204236  0.34988682832601764  0.03562740995407454  1.0000
  C   C134      1.0  0.2673517655197335  0.3464449748329812  0.013424123563221535  1.0000
  C   C135      1.0  0.27609543372183254  0.37117301657944807  0.0012357543437020446  1.0000
  C   C136      1.0  0.2758572118480999  0.39919386240817156  0.011466658365726357  1.0000
  C   C137      1.0  0.26741885262051907  0.40236550190981274  0.034026493035301586  1.0000
  C   C138      1.0  0.2578926720793885  0.3777381573146699  0.0460469900762559  1.0000
  H   H89       1.0  0.2674452446841807  0.32485629770619956  0.0054301446305937695  1.0000
  H   H90       1.0  0.2829272266655856  0.36857051197734897  0.9838839133984578  1.0000
  H   H91       1.0  0.2673083663972163  0.4240007918896226  0.04196426801452802  1.0000
  H   H92       1.0  0.25089788845506295  0.3803168851407762  0.0633730618778432  1.0000
  C   C139      1.0  0.21551095639795245  0.3080187494766612  0.9293837438321384  1.0000
  C   C140      1.0  0.19105392575997754  0.32871820006331987  0.9280550302647779  1.0000
  C   C141      1.0  0.1613983002254447  0.3194944421560471  0.9304819824273153  1.0000
  C   C142      1.0  0.15613208807679835  0.2895711928916303  0.9343859097268534  1.0000
  C   C143      1.0  0.18056152484828109  0.26868135494353235  0.935164270434395  1.0000
  C   C144      1.0  0.21027643604779853  0.2779405992463297  0.932703817892805  1.0000
  H   H93       1.0  0.19502122845349837  0.3519115344021031  0.9254645320889646  1.0000
  H   H94       1.0  0.14251448218631585  0.335632801075347  0.9297674811640633  1.0000
  H   H95       1.0  0.17668308135196722  0.24555384281396248  0.9384568107251005  1.0000
  H   H96       1.0  0.22919704997092713  0.2619391961472287  0.9341322010084477  1.0000
  C   C145      1.0  0.14110480162943437  0.4292410573916932  0.9155877497861185  1.0000
  C   C146      1.0  0.11084998844869907  0.43977516043096543  0.9159884281600226  1.0000
  C   C147      1.0  0.08791726430445213  0.42170142308158454  0.9083836507203737  1.0000
  C   C148      1.0  0.09536693728921208  0.3935747619682326  0.8994516017574399  1.0000
  C   C149      1.0  0.12573897338252094  0.38344178394011097  0.8983806234267145  1.0000
  C   C150      1.0  0.1485560202480909  0.40107758056485293  0.9067941008410622  1.0000
  H   H97       1.0  0.10507814302065278  0.4617753446210683  0.9224220035871511  1.0000
  H   H98       1.0  0.06453498391400658  0.42976043582403745  0.9090648503750842  1.0000
  H   H99       1.0  0.13154746633312442  0.3616920009309753  0.8914576777335917  1.0000
  H   H100      1.0  0.17184701251096082  0.3929158676281922  0.9063038589365255  1.0000
  C   C151      1.0  0.39996812150791056  0.32300791551930513  0.8046446348734979  1.0000
  C   C152      1.0  0.3825347201012481  0.2998156475510977  0.7970402549089104  1.0000
  C   C153      1.0  0.3661758904041291  0.28332200450530814  0.8124661765365361  1.0000
  C   C154      1.0  0.36695978402799984  0.2901854683580037  0.835466679674213  1.0000
  C   C155      1.0  0.38309363656861856  0.31439354978608025  0.842824482185181  1.0000
  C   C156      1.0  0.3995696373868261  0.3306609548149522  0.8274409095352018  1.0000
  H   H101      1.0  0.38233327076475304  0.2939535983977462  0.7793720561783759  1.0000
  H   H102      1.0  0.35310889843226007  0.265171433961749  0.8064912801089265  1.0000
  H   H103      1.0  0.3838486701037108  0.3200875474945819  0.8604523939805461  1.0000
  H   H104      1.0  0.41246043278946676  0.3488317336184291  0.8333399345361933  1.0000
  C   C157      1.0  0.5947814050922028  0.35455003965333587  0.8220127412523607  1.0000
  C   C158      1.0  0.593491217642396  0.3855833184583757  0.8239475716530181  1.0000
  C   C159      1.0  0.619688224964304  0.4015524441495059  0.8204322578966267  1.0000
  C   C160      1.0  0.6470899558070071  0.38648453720586967  0.8148481903447012  1.0000
  C   C161      1.0  0.6479758705017581  0.3556990444006329  0.8121424379462123  1.0000
  C   C162      1.0  0.621990943114053  0.33972277850260413  0.8158163247020055  1.0000
  H   H105      1.0  0.572578101304039  0.3972383520261114  0.8286954439928836  1.0000
  H   H106      1.0  0.6189054774319356  0.42541839225883565  0.8226363546707102  1.0000
  H   H107      1.0  0.6687194103501372  0.34430334131715984  0.8068827783726747  1.0000
  H   H108      1.0  0.6230274978233721  0.31584528259780925  0.8138040320832669  1.0000
  C   C163      1.0  0.4030611890843266  0.40303199540266693  0.886758889001664  1.0000
  C   C164      1.0  0.38786398749833867  0.414250494616596  0.905821578606244  1.0000
  C   C165      1.0  0.3574473970464582  0.4246260087697894  0.9042317808442304  1.0000
  C   C166      1.0  0.3423831546007716  0.42429487719831666  0.8834699162391167  1.0000
  C   C167      1.0  0.3574391857613766  0.4127380860965897  0.8645343573604538  1.0000
  C   C168      1.0  0.3874871936486716  0.4016383145701223  0.8663033942984727  1.0000
  H   H109      1.0  0.39967596940514766  0.41518890481747284  0.9217833143457503  1.0000
  H   H110      1.0  0.3458938735427752  0.4335649945164017  0.9189546345182673  1.0000
  H   H111      1.0  0.3457133836425161  0.4118918725539153  0.8485338102193011  1.0000
  H   H112      1.0  0.39841722961198767  0.3919281088844854  0.8517856672202081  1.0000
  C   C169      1.0  0.8701163751647805  0.6802172745715223  0.2520219400610366  1.0000
  C   C170      1.0  0.8498246158813519  0.6684823341559544  0.23656469516313422  1.0000
  C   C171      1.0  0.8470861022571102  0.6804634721360553  0.2148261054000644  1.0000
  C   C172      1.0  0.8652670495308292  0.7036013848880148  0.20835927633438114  1.0000
  C   C173      1.0  0.8855783639541388  0.715195505525856  0.22379751060109482  1.0000
  C   C174      1.0  0.8875728302302724  0.7039130390542405  0.24571243930839232  1.0000
  H   H113      1.0  0.8364369324998763  0.6499999605576543  0.24131660452599302  1.0000
  H   H114      1.0  0.8315031523638172  0.6713224664422934  0.20285884648275931  1.0000
  H   H115      1.0  0.8996014493721931  0.7331617185624214  0.21894983798662054  1.0000
  H   H116      1.0  0.903232262660918  0.7132345305894642  0.25748927327091503  1.0000
  C   C175      1.0  0.8117900382525883  0.7352036805487444  0.369243157144197  1.0000
  C   C176      1.0  0.8161878721943067  0.7043771728275569  0.3675210696536213  1.0000
  C   C177      1.0  0.7923013888935339  0.6859764823126  0.37245757866259493  1.0000
  C   C178      1.0  0.7640400028740216  0.6983645278709176  0.37901122616617855  1.0000
  C   C179      1.0  0.7599985625287257  0.7291385527448349  0.38150680025470607  1.0000
  C   C180      1.0  0.7838530632035569  0.7475357755295179  0.3765590797750371  1.0000
  H   H117      1.0  0.8378502385207923  0.6947204249637575  0.3622455316304069  1.0000
  H   H118      1.0  0.7955672915263824  0.6621020703471426  0.3709548104800858  1.0000
  H   H119      1.0  0.7382468344708999  0.7388386336847992  0.3865471601229244  1.0000
  H   H120      1.0  0.7803393480893044  0.7713951980822469  0.37781748800947706  1.0000
  C   C181      1.0  0.238498158395994  0.6344911410456985  0.2506059321762763  1.0000
  C   C182      1.0  0.20846243111942994  0.6349732733435588  0.24309372884958474  1.0000
  C   C183      1.0  0.20147045024766763  0.6224877042000332  0.2221451332244246  1.0000
  C   C184      1.0  0.22454267156412944  0.6098462331851617  0.20861922063603613  1.0000
  C   C185      1.0  0.2545721220364111  0.6095984157123941  0.21612625673452157  1.0000
  C   C186      1.0  0.261528019532816  0.6218964651011101  0.23708270950678922  1.0000
  H   H121      1.0  0.19071327377396025  0.6449667679766142  0.2533892913528584  1.0000
  H   H122      1.0  0.1782816174350685  0.6225244463601983  0.21650197329060342  1.0000
  H   H123      1.0  0.27249880155438444  0.599861314304696  0.20575354524594822  1.0000
  H   H124      1.0  0.28481350626148205  0.6215294121212729  0.24285494276062736  1.0000
  C   C187      1.0  0.06745071771386407  0.6717434504138019  0.3190572921725021  1.0000
  C   C188      1.0  0.03820113764151145  0.6677856888611272  0.31072872102936694  1.0000
  C   C189      1.0  0.012854324601520029  0.6805625189348865  0.32183621643067784  1.0000
  C   C190      1.0  0.01662826468685874  0.6969853924565926  0.3415456417412347  1.0000
  C   C191      1.0  0.04584069874739383  0.7006492078182833  0.35005447594551714  1.0000
  C   C192      1.0  0.07122779052506209  0.6881499418344533  0.3387794876810467  1.0000
  H   H125      1.0  0.0350280101563969  0.6547005045961735  0.2957482238904413  1.0000
  H   H126      1.0  0.9903699027946055  0.6770411199518221  0.3154763615725963  1.0000
  H   H127      1.0  0.04883070016819291  0.7130029132206742  0.3654748573172789  1.0000
  H   H128      1.0  0.09355660605392799  0.6906385891045556  0.3457138714852219  1.0000
  C   C193      1.0  0.5150275554317382  0.6638030484451884  0.41300911800627804  1.0000
  C   C194      1.0  0.5457764058414574  0.6585860928742566  0.41780899464907306  1.0000
  C   C195      1.0  0.5668872502508154  0.6788093436745523  0.4107397261416869  1.0000
  C   C196      1.0  0.557516016342498  0.7038175160355129  0.3981785464567059  1.0000
  C   C197      1.0  0.526708132417899  0.7090790264125362  0.3933479516059289  1.0000
  C   C198      1.0  0.505408889380467  0.6892832912912926  0.40103727500679687  1.0000
  H   H129      1.0  0.5533114657336887  0.638897959611073  0.4269893957262332  1.0000
  H   H130      1.0  0.5904630212374881  0.6746993741926102  0.4148053657270978  1.0000
  H   H131      1.0  0.5192916370620386  0.7284444570968364  0.3837156337189182  1.0000
  H   H132      1.0  0.48164896145842473  0.6935583717864501  0.39739072997940467  1.0000
  C   C199      1.0  0.3094286271711201  0.6408564716090286  0.3782330935426243  1.0000
  C   C200      1.0  0.29850206496612175  0.6548544010509777  0.39776647204115095  1.0000
  C   C201      1.0  0.26807812865756087  0.6649047851043678  0.39915613463854444  1.0000
  C   C202      1.0  0.24868191876073503  0.6614762109242913  0.3807739392256133  1.0000
  C   C203      1.0  0.2594893344110201  0.6470954428860668  0.36131233385657685  1.0000
  C   C204      1.0  0.28978108448212775  0.6365201493176142  0.36013913462128677  1.0000
  H   H133      1.0  0.31352230599312897  0.6580600038210999  0.41173103233192304  1.0000
  H   H134      1.0  0.25975542360018006  0.6761971339673474  0.41414245172766523  1.0000
  H   H135      1.0  0.24460450707797546  0.6442587716151756  0.34707776508051663  1.0000
  H   H136      1.0  0.29812740764715123  0.6256012507223069  0.3449933062961136  1.0000
  C   C205      1.0  0.245656205387936  0.9083247843330509  0.2653457619303565  1.0000
  C   C206      1.0  0.26132456124111897  0.8807872166271159  0.26715852638357585  1.0000
  C   C207      1.0  0.2510381211011791  0.8561294254987071  0.25541123927349496  1.0000
  C   C208      1.0  0.22492880687129696  0.8589005045122423  0.24200240258600966  1.0000
  C   C209      1.0  0.20867652678142548  0.8862366843107238  0.24087315921580393  1.0000
  C   C210      1.0  0.2190921043673051  0.9109474649677052  0.25249569978325126  1.0000
  H   H137      1.0  0.2818063101510434  0.8786773511078441  0.2771924872224102  1.0000
  H   H138      1.0  0.2635863015180964  0.8349951144015977  0.2565200543126601  1.0000
  H   H139      1.0  0.18789919925180548  0.8882901375737147  0.23131657052513255  1.0000
  H   H140      1.0  0.20641664283533728  0.9320551151845983  0.2517616860307807  1.0000
  C   C211      1.0  0.26276873923890015  0.8130598077505954  0.33610201414849045  1.0000
  C   C212      1.0  0.24597057262347238  0.7912699415148313  0.34628582608562647  1.0000
  C   C213      1.0  0.22140379704502064  0.7794894370174211  0.3348747600325774  1.0000
  C   C214      1.0  0.2134762998173153  0.7896798559830448  0.31333155639050797  1.0000
  C   C215      1.0  0.23024147237346526  0.8114694899197699  0.30313433380183297  1.0000
  C   C216      1.0  0.25489559099742715  0.8231635562498  0.31451915711858347  1.0000
  H   H141      1.0  0.2512557965069823  0.7842588527796351  0.36328942152460925  1.0000
  H   H142      1.0  0.2080958718486281  0.7630762439936569  0.3430382663507077  1.0000
  H   H143      1.0  0.22421843606582673  0.8192050726576313  0.28643561466553064  1.0000
  H   H144      1.0  0.26792038110374167  0.8399467602813863  0.30657530585335446  1.0000
  C   C217      1.0  0.44523897142189844  0.8146135466737516  0.45322939262806744  1.0000
  C   C218      1.0  0.42712619732476925  0.7905729290349675  0.4574216307418816  1.0000
  C   C219      1.0  0.41556374372820687  0.7742846917085994  0.43944158892648394  1.0000
  C   C220      1.0  0.422358641514839  0.7818251598239866  0.41725275891046726  1.0000
  C   C221      1.0  0.43926689420503123  0.8066564350246207  0.4130604217334008  1.0000
  C   C222      1.0  0.4503598901811873  0.8232052424025352  0.4310169927775544  1.0000
  H   H145      1.0  0.42224143421741095  0.7843375995754233  0.4745622081122121  1.0000
  H   H146      1.0  0.4011851306162387  0.7560438569786634  0.44280674277260396  1.0000
  H   H147      1.0  0.4441522819259453  0.8129190106886752  0.39592364497376614  1.0000
  H   H148      1.0  0.4629932924084431  0.8425087016920917  0.4275380696000966  1.0000
  C   C223      1.0  0.44150296160097163  0.9273952157233953  0.3824842849837974  1.0000
  C   C224      1.0  0.42834046238187984  0.9453781545346006  0.3993303415551322  1.0000
  C   C225      1.0  0.3986568819948655  0.9573878929505861  0.39670123516771305  1.0000
  C   C226      1.0  0.3818545580091476  0.9511977481938168  0.3773449540622528  1.0000
  C   C227      1.0  0.3952029453974732  0.9337533400156366  0.360244854795913  1.0000
  C   C228      1.0  0.42500033139133525  0.921907887639405  0.36281649990508014  1.0000
  H   H149      1.0  0.44116500129628894  0.9503762970115575  0.41427295855833834  1.0000
  H   H150      1.0  0.38861586080228516  0.9711824432136131  0.40986149080910694  1.0000
  H   H151      1.0  0.3825716321273227  0.9293441412362144  0.3450637592003361  1.0000
  H   H152      1.0  0.43524951886483254  0.9083069820699023  0.3496187980061022  1.0000
  C   C229      1.0  0.6660081297103049  0.9210512470095278  0.4061930918839587  1.0000
  C   C230      1.0  0.6761710995344504  0.9003845551819575  0.42235822984501553  1.0000
  C   C231      1.0  0.6558079446882966  0.88905026325509  0.43779291211705285  1.0000
  C   C232      1.0  0.6249753023504684  0.8974678740555748  0.43665277985563006  1.0000
  C   C233      1.0  0.614491085234396  0.9171310181902959  0.41987395997522936  1.0000
  C   C234      1.0  0.6350176306305034  0.9289786851878787  0.40470392064015565  1.0000
  H   H153      1.0  0.6997417544119515  0.8930582697372766  0.423043835512451  1.0000
  H   H154      1.0  0.6639853888757625  0.873405857772389  0.4504819374932679  1.0000
  H   H155      1.0  0.590655637705274  0.9233441817406343  0.41858803531713384  1.0000
  H   H156      1.0  0.6269437023024321  0.9446657083989237  0.39202565377142695  1.0000
  C   C235      1.0  0.7684829460686733  0.8264521669058585  0.4357487867935036  1.0000
  C   C236      1.0  0.7628033977133153  0.7979419380745659  0.42785188191897966  1.0000
  C   C237      1.0  0.7358053822946714  0.7846303225890593  0.4335999814813079  1.0000
  C   C238      1.0  0.7150921768941728  0.799426504474194  0.44794796181889845  1.0000
  C   C239      1.0  0.7212323079085664  0.8274996006929658  0.45640561368620813  1.0000
  C   C240      1.0  0.7477573964135329  0.8411346505683424  0.45012169851960887  1.0000
  H   H157      1.0  0.7789849832972157  0.7864593479879217  0.4169347958237354  1.0000
  H   H158      1.0  0.7311206864163385  0.7629319047843763  0.42698251367520407  1.0000
  H   H159      1.0  0.7054305963282064  0.8387821572956708  0.4677598468040941  1.0000
  H   H160      1.0  0.7524572852862843  0.8627414862004097  0.45681446467454645  1.0000
  C   C241      1.0  0.9673589489898253  0.9657731495156497  0.25269881349729795  1.0000
  C   C242      1.0  0.990177320868631  0.9857495944423724  0.25663653321057484  1.0000
  C   C243      1.0  0.9927354436398953  0.010484050056050798  0.24248900316237373  1.0000
  C   C244      1.0  0.9729023978709711  0.014736304572756875  0.2242011304754246  1.0000
  C   C245      1.0  0.9500661753536701  0.9947874322331377  0.22050461435504218  1.0000
  C   C246      1.0  0.9470883458054749  0.9705662640347106  0.23484465657450082  1.0000
  H   H161      1.0  0.005884061285591935  0.9821325216516743  0.27048620995322437  1.0000
  H   H162      1.0  0.01059438730961082  0.025734722143040623  0.24529924947400011  1.0000
  H   H163      1.0  0.9346015502427635  0.9979465112420417  0.20649675396400943  1.0000
  H   H164      1.0  0.9292981547702847  0.9552891543471086  0.23178052933535995  1.0000
  C   C247      1.0  0.12371395324836088  0.9686327427486763  0.33437513845507  1.0000
  C   C248      1.0  0.153622620963338  0.9704568874327554  0.3270072684333403  1.0000
  C   C249      1.0  0.17778018573407137  0.9611654356603268  0.3410644467771288  1.0000
  C   C250      1.0  0.17204669439678733  0.9507172505562019  0.36270418811296395  1.0000
  C   C251      1.0  0.14217827495160196  0.9495562298878929  0.37027790426356005  1.0000
  C   C252      1.0  0.1179919153387492  0.9582659082216199  0.3560439508517843  1.0000
  H   H165      1.0  0.15807455292107653  0.978422198840772  0.3102276956005962  1.0000
  H   H166      1.0  0.2007995589533844  0.9621403833560768  0.33511519700880626  1.0000
  H   H167      1.0  0.13770883432265796  0.9415737789265284  0.3870458148193576  1.0000
  H   H168      1.0  0.09493194232514268  0.9572522880388717  0.36191592543724965  1.0000
  C   C253      1.0  0.025919380889073862  0.8212241600964814  0.2987989624012867  1.0000
  C   C254      1.0  0.009148049849344586  0.8387397337530775  0.2834301309392726  1.0000
  C   C255      1.0  0.9798465451099504  0.8312912288956719  0.2773166252192727  1.0000
  C   C256      1.0  0.9673869541627887  0.8060672323141492  0.28637151348303375  1.0000
  C   C257      1.0  0.9847052099322278  0.7876992451741183  0.3009982501505736  1.0000
  C   C258      1.0  0.01396824072962155  0.7953472298231131  0.3073006241234739  1.0000
  H   H169      1.0  0.018165123995721677  0.8590286455955816  0.27718899025823446  1.0000
  H   H170      1.0  0.9662937367713497  0.8457824189343403  0.2663800207323029  1.0000
  H   H171      1.0  0.9752259019419363  0.7681783154180435  0.30811143228562526  1.0000
  H   H172      1.0  0.02656002529266499  0.782021464577581  0.31955393279988875  1.0000
  C   C259      1.0  0.9390286283372716  0.9261596209907  0.3733427393054414  1.0000
  C   C260      1.0  0.9273125431334601  0.9245866285860285  0.3514903664849699  1.0000
  C   C261      1.0  0.8962569377329662  0.9300463820043708  0.34758120329516434  1.0000
  C   C262      1.0  0.8768640710809261  0.9380350398712338  0.3653444379338837  1.0000
  C   C263      1.0  0.888542144811481  0.9397109401526077  0.3871861415120826  1.0000
  C   C264      1.0  0.919502637564966  0.9333649943515038  0.39122405221857093  1.0000
  H   H173      1.0  0.9420658054181898  0.9192186930222305  0.3375379082971019  1.0000
  H   H174      1.0  0.8872444306910326  0.9281574316921403  0.33074518022024474  1.0000
  H   H175      1.0  0.8740046416020841  0.9466837273346889  0.40091738851166014  1.0000
  H   H176      1.0  0.9284577681469358  0.9348718553707636  0.40814729621392326  1.0000
  C   C265      1.0  0.8108105665770979  0.34241457068218256  0.7220073913405125  1.0000
  C   C266      1.0  0.8393206285667972  0.3356807483874028  0.7314428665682381  1.0000
  C   C267      1.0  0.8427591109236856  0.3337782909602777  0.7548251139316616  1.0000
  C   C268      1.0  0.8176710091834842  0.33844960284779374  0.7688437838651446  1.0000
  C   C269      1.0  0.7889477940842742  0.3444033376454526  0.7594509553324001  1.0000
  C   C270      1.0  0.7855419323748019  0.3465563358071245  0.7359957896256069  1.0000
  H   H177      1.0  0.8588984721591305  0.3324453590544023  0.7206715377617368  1.0000
  H   H178      1.0  0.8649863405454632  0.3290554051739284  0.7620372858187706  1.0000
  H   H179      1.0  0.7694738506923658  0.3476518445293089  0.7702240337488898  1.0000
  H   H180      1.0  0.7634698188826026  0.35151545542146767  0.7287507891713936  1.0000
  C   C271      1.0  0.7265396196856346  0.6283538569196465  0.5138084164142028  1.0000
  C   C272      1.0  0.7300804082117761  0.6334328807464963  0.49078308717841573  1.0000
  C   C273      1.0  0.7045335264348381  0.6379279716033062  0.4769413107343948  1.0000
  C   C274      1.0  0.6754631680961554  0.6376121296072248  0.4861420459241597  1.0000
  C   C275      1.0  0.6719152324399511  0.6313977275297601  0.5090045306103069  1.0000
  C   C276      1.0  0.6974562980764124  0.6266542174492742  0.5228062705292074  1.0000
  H   H181      1.0  0.7525482755726894  0.6339901274200406  0.48366390480255106  1.0000
  H   H182      1.0  0.7073532183839882  0.6412839540640365  0.4590978485738863  1.0000
  H   H183      1.0  0.6495391177445685  0.6309641339392371  0.5162201479439402  1.0000
  H   H184      1.0  0.6945806192570452  0.6218286102250717  0.540419523147786  1.0000
  C   C277      1.0  0.7758105825015248  0.5259402515547298  0.6300683871859298  1.0000
  C   C278      1.0  0.7677547218379532  0.5170903470134316  0.608391177005566  1.0000
  C   C279      1.0  0.7565347391617235  0.48888165414882523  0.6047539287827279  1.0000
  C   C280      1.0  0.7532242572097783  0.4693612237305824  0.6227729066574009  1.0000
  C   C281      1.0  0.76216644525738  0.47784095854481917  0.6443906299902831  1.0000
  C   C282      1.0  0.7736168461987052  0.5060651711363292  0.6480193214772456  1.0000
  H   H185      1.0  0.7702667087350106  0.5319475024025976  0.5943487070853927  1.0000
  H   H186      1.0  0.7499747192932944  0.48235456739119836  0.587951885752725  1.0000
  H   H187      1.0  0.7597709810497093  0.4629752176739139  0.6583683856396682  1.0000
  H   H188      1.0  0.7798643557076379  0.5128169614148359  0.6648195395989727  1.0000
  C   C283      1.0  0.4623925223312123  0.47635113814581226  0.7347444873816704  1.0000
  C   C284      1.0  0.4903599043730707  0.4884432146255857  0.7393972887221232  1.0000
  C   C285      1.0  0.5027651623934511  0.4862000704361805  0.7611254491740845  1.0000
  C   C286      1.0  0.4878416942603477  0.4707163797100746  0.7778168976069492  1.0000
  C   C287      1.0  0.45976187174079297  0.458950128045962  0.77320603287132  1.0000
  C   C288      1.0  0.4466914542873305  0.46245313362605983  0.7518489317668129  1.0000
  H   H189      1.0  0.5022603179790358  0.49975781505510863  0.7263110773665055  1.0000
  H   H190      1.0  0.5241937072019718  0.49584547129491596  0.7648283540497824  1.0000
  H   H191      1.0  0.4479132742257003  0.44739446929424137  0.7861200694884926  1.0000
  H   H192      1.0  0.4246857908844835  0.45386310183739714  0.7485134644106967  1.0000
  C   C289      1.0  0.6152213140707973  0.49581372833563797  0.6957218803968674  1.0000
  C   C290      1.0  0.6365236698386392  0.5003906209404216  0.7126787083444978  1.0000
  C   C291      1.0  0.6561053981643619  0.4768720781806934  0.7197439158732544  1.0000
  C   C292      1.0  0.6553133673165596  0.44910361532963416  0.7091972607756353  1.0000
  C   C293      1.0  0.6348166559930751  0.44485291723099246  0.6916145521634687  1.0000
  C   C294      1.0  0.6144045398034086  0.46806526094399037  0.6851371786848096  1.0000
  H   H193      1.0  0.6370208159481451  0.5217673688070299  0.7209898658439334  1.0000
  H   H194      1.0  0.6715983114518395  0.4802123800953825  0.7335361758638267  1.0000
  H   H195      1.0  0.6337701168535501  0.4233096651766289  0.683631626480933  1.0000
  H   H196      1.0  0.5979393860715422  0.46436253396667504  0.6720228960761297  1.0000
  C   C295      1.0  0.4632617618589803  0.6837674636988991  0.51745146348258  1.0000
  C   C296      1.0  0.4379332657150267  0.70042536259617  0.5252485823883516  1.0000
  C   C297      1.0  0.40965345326153774  0.6979663049044792  0.5148192288219426  1.0000
  C   C298      1.0  0.4069086113495133  0.6795184156244352  0.4960910998277376  1.0000
  C   C299      1.0  0.4323784577930686  0.6633561899901335  0.48792858731831323  1.0000
  C   C300      1.0  0.4605040969730609  0.6654251000803609  0.4986150938161687  1.0000
  H   H197      1.0  0.44020386045896914  0.7160033603604911  0.5387992956351922  1.0000
  H   H198      1.0  0.3902175473823959  0.7111884412881645  0.5207398050344824  1.0000
  H   H199      1.0  0.43047441579646306  0.6492321766636038  0.4733116308702161  1.0000
  H   H200      1.0  0.47999146730074027  0.6528444500190606  0.49215949237798945  1.0000
  C   C301      1.0  0.6007729985915088  0.6931491112015669  0.6107881880761983  1.0000
  C   C302      1.0  0.591416789878497  0.6748485060707079  0.5932879091486097  1.0000
  C   C303      1.0  0.6048462474396166  0.6463243925267043  0.590548644172082  1.0000
  C   C304      1.0  0.6284658141339357  0.6366277131450593  0.6047964922329853  1.0000
  C   C305      1.0  0.6393251762523603  0.6557167088833521  0.6212713375983407  1.0000
  C   C306      1.0  0.625172374174262  0.6838437887170636  0.6244906666175754  1.0000
  H   H201      1.0  0.5740581681030539  0.6827887990473209  0.5816881131415458  1.0000
  H   H202      1.0  0.5972870659493246  0.6320094081912347  0.5772182504000158  1.0000
  H   H203      1.0  0.657912687143002  0.6484010599672594  0.6320996569751255  1.0000
  H   H204      1.0  0.6324913425136549  0.6978930661877625  0.6380596941506816  1.0000
  C   C307      1.0  0.45286357533523314  0.6297150018323573  0.6274167870942653  1.0000
  C   C308      1.0  0.44912875681113823  0.6061785575403517  0.6423461509245442  1.0000
  C   C309      1.0  0.4579093840562827  0.5770270838828445  0.6359543309563699  1.0000
  C   C310      1.0  0.47025641558980524  0.571471069000593  0.6146298442487403  1.0000
  C   C311      1.0  0.47159807972404955  0.5946872878709497  0.5991279798176485  1.0000
  C   C312      1.0  0.46296408291771685  0.6237914890257993  0.6055311234690092  1.0000
  H   H205      1.0  0.4408080328774058  0.6106023306410128  0.6591745794856981  1.0000
  H   H206      1.0  0.4556693964039524  0.5589781685692153  0.6476706296575891  1.0000
  H   H207      1.0  0.4804898392883448  0.5903668552440842  0.5824411289276634  1.0000
  H   H208      1.0  0.46467326576440265  0.6416930162022418  0.5936088904407122  1.0000
  C   C313      1.0  0.4426328059507719  0.9647835782133877  0.5525057276589485  1.0000
  C   C314      1.0  0.46914643777109577  0.9804976905078193  0.5537237455663165  1.0000
  C   C315      1.0  0.4865302573950504  0.9845574443742923  0.5344492728984257  1.0000
  C   C316      1.0  0.4781414037220904  0.971927644564197  0.5139878981705267  1.0000
  C   C317      1.0  0.4517142730154502  0.9559896755276066  0.5126395502981832  1.0000
  C   C318      1.0  0.4336791450704018  0.9528408956553133  0.5318527873495132  1.0000
  H   H209      1.0  0.47630802931256155  0.9897004997365899  0.5695040262541996  1.0000
  H   H210      1.0  0.5067280982252754  0.9971761954254454  0.5355572860707737  1.0000
  H   H211      1.0  0.44506082600164215  0.9463382855554492  0.496795113081465  1.0000
  H   H212      1.0  0.4131044923121397  0.9407669219018141  0.5308119570115947  1.0000
  C   C319      1.0  0.47820000485490705  0.8695428686434242  0.6453152248455383  1.0000
  C   C320      1.0  0.45249211047368093  0.8756081275513112  0.6320129790882258  1.0000
  C   C321      1.0  0.44237563301682725  0.854058864139561  0.6171036051079967  1.0000
  C   C322      1.0  0.4585780574191768  0.8268296693742545  0.6148447645000948  1.0000
  C   C323      1.0  0.48454027641459235  0.8208763478098943  0.6279151487535288  1.0000
  C   C324      1.0  0.4940355756891359  0.8420397063257046  0.6434500247208009  1.0000
  H   H213      1.0  0.44022488637763046  0.8968715862042319  0.6333906982740058  1.0000
  H   H214      1.0  0.4222148392397388  0.8587719843457523  0.607103611911113  1.0000
  H   H215      1.0  0.49763381938269324  0.8002506423927873  0.6258759497457854  1.0000
  H   H216      1.0  0.5141870107597187  0.837534547315547  0.6535175004295983  1.0000
  C   C325      1.0  0.44628770694251096  0.19733641568484875  0.741183551917524  1.0000
  C   C326      1.0  0.4339761783957238  0.1796945589178371  0.7578006681204572  1.0000
  C   C327      1.0  0.4029628403480695  0.1825248932373039  0.7624887950336239  1.0000
  C   C328      1.0  0.38445041004717573  0.2033583011417498  0.7508183589873696  1.0000
  C   C329      1.0  0.39702562622917814  0.2218534210064044  0.7349102771991707  1.0000
  C   C330      1.0  0.4279996843310545  0.21898282367865263  0.7302389982636531  1.0000
  H   H217      1.0  0.4481989366597514  0.16372896370205428  0.7669437391058544  1.0000
  H   H218      1.0  0.3932860290156653  0.1682518241770875  0.7749175066052671  1.0000
  H   H219      1.0  0.3828927206221661  0.23867127185921935  0.7264625454888951  1.0000
  H   H220      1.0  0.4378393071842831  0.23418524903464108  0.71867542227514  1.0000
  C   C331      1.0  0.47525977397552127  0.3324944843175775  0.6560044216951497  1.0000
  C   C332      1.0  0.506055602124018  0.32618694306344065  0.6601841970833351  1.0000
  C   C333      1.0  0.5271752433023731  0.3478857507395107  0.6565657852012485  1.0000
  C   C334      1.0  0.517757426466727  0.37574148174948363  0.6481964089131256  1.0000
  C   C335      1.0  0.4870210086367986  0.38207013257506867  0.6437585418682715  1.0000
  C   C336      1.0  0.46575698376054375  0.36045287869657294  0.6476967507994252  1.0000
  H   H221      1.0  0.5137290518299357  0.3046524121307737  0.6662724196058872  1.0000
  H   H222      1.0  0.5508557589860259  0.34314705374603843  0.6603091840671781  1.0000
  H   H223      1.0  0.4797000933358452  0.40333133816480626  0.6367858172748108  1.0000
  H   H224      1.0  0.4420470715251375  0.36528415128275005  0.6440054513132378  1.0000
  C   C337      1.0  0.46031075950329103  0.13177552521745786  0.6395044703211893  1.0000
  C   C338      1.0  0.46597047965671046  0.12879034639253456  0.6626067571058913  1.0000
  C   C339      1.0  0.4622816795155184  0.10145789327045729  0.6732242548011842  1.0000
  C   C340      1.0  0.4526052336106394  0.07723431045099116  0.660792688806555  1.0000
  C   C341      1.0  0.44572126040154514  0.08063285265971774  0.637953618088023  1.0000
  C   C342      1.0  0.44978648954830025  0.10781025558031405  0.627265670692326  1.0000
  H   H225      1.0  0.4732090445765689  0.14744317074009172  0.6723002601461889  1.0000
  H   H226      1.0  0.467334446903864  0.09892950351372654  0.6909536894588455  1.0000
  H   H227      1.0  0.43674029062209596  0.062463063923875684  0.6285631370572158  1.0000
  H   H228      1.0  0.44478412055213107  0.11022682670940077  0.6094955619580393  1.0000
  C   C343      1.0  0.7145150130006014  0.9587245524260121  0.5132098906056066  1.0000
  C   C344      1.0  0.7173502372674517  0.9889615573847051  0.5088491831155365  1.0000
  C   C345      1.0  0.7405410689798121  0.9981700175819939  0.49483786463831025  1.0000
  C   C346      1.0  0.7601898758081187  0.9770335576485195  0.4846311702643447  1.0000
  C   C347      1.0  0.7578208482025114  0.9468672914728651  0.48948757916266106  1.0000
  C   C348      1.0  0.7350550821005662  0.9376897956975764  0.5038922972165918  1.0000
  H   H229      1.0  0.7017573826365264  0.005248177651231423  0.5164452624799827  1.0000
  H   H230      1.0  0.7426204343902988  0.02154240853432232  0.4912894503562926  1.0000
  H   H231      1.0  0.7734944314701446  0.9305278835799662  0.4820514734494509  1.0000
  H   H232      1.0  0.7329764715316204  0.914278066433278  0.5073464993708106  1.0000
  C   C349      1.0  0.7452071138951738  0.7775705421104894  0.5745760949346901  1.0000
  C   C350      1.0  0.7404891374223167  0.7483897626252657  0.5678592310534809  1.0000
  C   C351      1.0  0.7427931511646766  0.7251240579839511  0.5834437812833274  1.0000
  C   C352      1.0  0.7489519315835077  0.7309681899815363  0.6060606269391555  1.0000
  C   C353      1.0  0.7539799670435314  0.7601432807392565  0.6128456280128414  1.0000
  C   C354      1.0  0.7523301137749228  0.783402706866234  0.5970749886894973  1.0000
  H   H233      1.0  0.7344510129748539  0.7438227717693321  0.5506497999729533  1.0000
  H   H234      1.0  0.739613310457082  0.7027157725763425  0.577888955009377  1.0000
  H   H235      1.0  0.7591522154419132  0.7647850003923484  0.630275220456831  1.0000
  H   H236      1.0  0.7569637998287349  0.8056981404351855  0.6022970034512097  1.0000
  C   C355      1.0  0.6117177169851943  0.9060327108305167  0.6093878179847387  1.0000
  C   C356      1.0  0.5880272588668034  0.9129878867151222  0.6242181260054708  1.0000
  C   C357      1.0  0.5713475010894505  0.9399988809354052  0.6220715545156892  1.0000
  C   C358      1.0  0.578507977994981  0.9601726237658663  0.6052416784922504  1.0000
  C   C359      1.0  0.6016936782394747  0.9528798595276082  0.5900355754089073  1.0000
  C   C360      1.0  0.6178730308332117  0.9255193182439448  0.5918285330584733  1.0000
  H   H237      1.0  0.5830555998937942  0.8979490217347286  0.6377638015345714  1.0000
  H   H238      1.0  0.5534236412326322  0.9454025615737743  0.6338734751437468  1.0000
  H   H239      1.0  0.6070179943904209  0.9683035108405724  0.5768770754414367  1.0000
  H   H240      1.0  0.6352530222596117  0.9196682287936062  0.5797115681399276  1.0000
  C   C361      1.0  0.6294879212415506  0.060010706810302225  0.7066356041808681  1.0000
  C   C362      1.0  0.6065394768150426  0.04284371312953028  0.7150415419927535  1.0000
  C   C363      1.0  0.592416325732656  0.0504709788022526  0.7353977369950668  1.0000
  C   C364      1.0  0.6013468734799288  0.07513567672702733  0.7476455652752115  1.0000
  C   C365      1.0  0.6241446238565412  0.09262402212343215  0.7392029612464577  1.0000
  C   C366      1.0  0.638158810665455  0.08512800769932363  0.7185658286951347  1.0000
  H   H241      1.0  0.5997809313433553  0.023421406124121576  0.7058910562092037  1.0000
  H   H242      1.0  0.5749011248121636  0.03683853857100194  0.7418807874318458  1.0000
  H   H243      1.0  0.6312487717168376  0.11152341249930088  0.7487484088720835  1.0000
  H   H244      1.0  0.6562205622766681  0.09814510556918966  0.7121990668549009  1.0000
  C   C367      1.0  0.7071275279631265  0.21535508840419074  0.672164518687364  1.0000
  C   C368      1.0  0.7059615132578976  0.21863050253798783  0.6487990578802657  1.0000
  C   C369      1.0  0.6978662945904267  0.24635751283275545  0.6392642697760721  1.0000
  C   C370      1.0  0.6912966238897915  0.2710185770460292  0.6530630319214331  1.0000
  C   C371      1.0  0.6924284792611005  0.26780218290257424  0.6764718772146165  1.0000
  C   C372      1.0  0.7003695463807849  0.2399906279758857  0.6860021625373939  1.0000
  H   H245      1.0  0.7114945830427799  0.19985741064689483  0.6380231021445507  1.0000
  H   H246      1.0  0.6970045709921728  0.24870754776039586  0.6211523215297192  1.0000
  H   H247      1.0  0.6871903988139783  0.28673127420314654  0.6872149567858645  1.0000
  H   H248      1.0  0.7013024404999924  0.23757273046869204  0.7041068447537874  1.0000
  C   C373      1.0  0.6194686287736968  0.16837518746320737  0.6128777512370871  1.0000
  C   C374      1.0  0.639410034591196  0.18586189993577334  0.62478231722736  1.0000
  C   C375      1.0  0.6281960749276352  0.20879346588532027  0.6387351776038661  1.0000
  C   C376      1.0  0.5970914511323699  0.2139157037510979  0.6411699469031547  1.0000
  C   C377      1.0  0.5769991234273958  0.19722841782579237  0.6286292547787908  1.0000
  C   C378      1.0  0.5882362094557256  0.1746221520843822  0.6142318732413943  1.0000
  H   H249      1.0  0.6635377055370095  0.18107708489446384  0.6237353601030093  1.0000
  H   H250      1.0  0.6435095247845374  0.2216347057556881  0.6485556997448839  1.0000
  H   H251      1.0  0.552838820774682  0.20126537916327136  0.6302478607319167  1.0000
  H   H252      1.0  0.5727786008703923  0.1612178133786148  0.6049442143346369  1.0000
  C   C379      1.0  0.772887823978747  0.027840931558804623  0.6231224066903962  1.0000
  C   C380      1.0  0.7475294370931312  0.013559263043576795  0.61510209185286  1.0000
  C   C381      1.0  0.7482783831063297  0.9824666403593201  0.6133689425910078  1.0000
  C   C382      1.0  0.7741099134312857  0.9655303473269058  0.620053287773005  1.0000
  C   C383      1.0  0.7991593612722446  0.979859898508447  0.6285565894323751  1.0000
  C   C384      1.0  0.7987049954462637  0.010949606341742689  0.6298127785985016  1.0000
  H   H253      1.0  0.7278129469006056  0.026558864458340544  0.6094065586692782  1.0000
  H   H254      1.0  0.7290574766996966  0.9718238243575421  0.6064839938819769  1.0000
  H   H255      1.0  0.81921216393183  0.9669453372534884  0.6337908072896862  1.0000
  H   H256      1.0  0.8184001447954652  0.021953972257719334  0.6359477036318032  1.0000
  N   N1        1.0  0.254433075098112  0.9456749440839188  0.19566873413854058  1.0000
  C   C385      1.0  0.22098077465379085  0.945951146106005  0.19545449201073972  1.0000
  C   C386      1.0  0.2647152776503646  0.9648345480063321  0.21415595110994934  1.0000
  C   C387      1.0  0.2652014192273132  0.9569618281942064  0.1739128171581794  1.0000
  C   C388      1.0  0.26674248382486665  0.914920632562808  0.19906313116881824  1.0000
  H   H257      1.0  0.21262090713107423  0.9299940308879145  0.18287075348576565  1.0000
  H   H258      1.0  0.21081755869834712  0.9683510382330424  0.19128186808394854  1.0000
  H   H259      1.0  0.21181954431836636  0.9394505866964126  0.2119663653000825  1.0000
  H   H260      1.0  0.25567975415068106  0.9881561071555949  0.2121713678736563  1.0000
  H   H261      1.0  0.256980558607178  0.9568852311206216  0.23082345724804898  1.0000
  H   H262      1.0  0.2898710253224056  0.9651122574483825  0.21492866070088112  1.0000
  H   H263      1.0  0.2903371573068596  0.9575797573059244  0.17353734630386208  1.0000
  H   H264      1.0  0.2556760000335139  0.9798180475898757  0.17044715673349375  1.0000
  H   H265      1.0  0.258217430635479  0.9426402625731912  0.15967688793986534  1.0000
  H   H266      1.0  0.2589552103225479  0.8997761903389654  0.1855696391744368  1.0000
  H   H267      1.0  0.25937701161722987  0.9057764678798363  0.21541233485289513  1.0000
  H   H268      1.0  0.29194675653642593  0.913799213858131  0.19905513958205567  1.0000
  N   N2        1.0  0.7871890668763103  0.6935672238807259  0.30188402410744597  1.0000
  C   C389      1.0  0.797378261279703  0.7009717455555567  0.27899276021706476  1.0000
  C   C390      1.0  0.8104651131813083  0.6738564548698037  0.3128588166758707  1.0000
  C   C391      1.0  0.7583738200697513  0.6781892756457307  0.3005406976604584  1.0000
  C   C392      1.0  0.7825266254493165  0.7211694397317235  0.3151705182239743  1.0000
  H   H269      1.0  0.7806431926960017  0.7160817291481557  0.2701757696045024  1.0000
  H   H270      1.0  0.8009478091546064  0.6806499592814196  0.26849383505884156  1.0000
  H   H271      1.0  0.8193660497067311  0.7121055193205915  0.2794572742170107  1.0000
  H   H272      1.0  0.8028136874352393  0.6662043284198781  0.32955263856158157  1.0000
  H   H273      1.0  0.8159586069911148  0.6536806232942076  0.3025436284369283  1.0000
  H   H274      1.0  0.832019570113259  0.6853035934984654  0.3154517560773871  1.0000
  H   H275      1.0  0.7500598150848677  0.6724814714195173  0.31764722530774525  1.0000
  H   H276      1.0  0.7610980188275706  0.6570898186629524  0.29082845993148937  1.0000
  H   H277      1.0  0.7402730577004634  0.6923373704120267  0.29228134675191064  1.0000
  H   H278      1.0  0.773163290900006  0.7165119457176276  0.33207573135556434  1.0000
  H   H279      1.0  0.7662716085272265  0.737198479523595  0.30679408722461743  1.0000
  H   H280      1.0  0.8041491828216357  0.7325183146554257  0.3178061451065758  1.0000
  N   N3        1.0  0.9499065053684664  0.6288385378947438  0.2339454651303148  1.0000
  C   C393      1.0  0.9502143080374432  0.6030677398298129  0.24931151211590685  1.0000
  C   C394      1.0  0.9208264107279378  0.6308368238151268  0.22154563775951  1.0000
  C   C395      1.0  0.975179482942412  0.6250909581103161  0.21781651268677532  1.0000
  C   C396      1.0  0.9533586919507337  0.6562828466093561  0.24722391440102945  1.0000
  H   H281      1.0  0.9719296696465815  0.6008180376401955  0.25887700078616505  1.0000
  H   H282      1.0  0.9473904741507315  0.5819722349650851  0.23990605272207147  1.0000
  H   H283      1.0  0.9315642487375259  0.6054426999217413  0.2618736310594924  1.0000
  H   H284      1.0  0.9013307462542715  0.6312421351610541  0.23332075651923537  1.0000
  H   H285      1.0  0.9185990384952539  0.6514502600652318  0.21128151286000735  1.0000
  H   H286      1.0  0.9184023994833688  0.6115452436324122  0.21005744555203126  1.0000
  H   H287      1.0  0.9767003856770254  0.6448720424647637  0.20677130853364056  1.0000
  H   H288      1.0  0.9727036842930283  0.6053425364716035  0.20680820454955404  1.0000
  H   H289      1.0  0.9972631840075215  0.6219476419293553  0.22667643987401292  1.0000
  H   H290      1.0  0.953762729076124  0.6763257408250861  0.23626209797419062  1.0000
  H   H291      1.0  0.9746462999970907  0.6552207988911903  0.2572445632816564  1.0000
  H   H292      1.0  0.9344625318907802  0.6600007615277886  0.25933951555445295  1.0000
  N   N4        1.0  0.07968594089210779  0.7461359200861774  0.27256250190879405  1.0000
  C   C397      1.0  0.08557532619942276  0.7148758899255827  0.2657710354904088  1.0000
  C   C398      1.0  0.05036895856039769  0.7571213736040732  0.2629342169637028  1.0000
  C   C399      1.0  0.10417842060271609  0.7644075732276168  0.26416313178341505  1.0000
  C   C400      1.0  0.07861898846472481  0.7480109953084062  0.29738882836718494  1.0000
  H   H293      1.0  0.10806712785115535  0.7061543771556412  0.271682636060711  1.0000
  H   H294      1.0  0.08458762053366664  0.7120551918288737  0.24716898436299267  1.0000
  H   H295      1.0  0.06867894170849409  0.7003631880469456  0.2733055072827003  1.0000
  H   H296      1.0  0.045521274900826025  0.780923772698728  0.26695209266420356  1.0000
  H   H297      1.0  0.050040540812778866  0.7550104681668895  0.24427048443203986  1.0000
  H   H298      1.0  0.031143650470967676  0.7444374893768408  0.26939852642839257  1.0000
  H   H299      1.0  0.10008572263471338  0.78821810525779  0.2688543896926161  1.0000
  H   H300      1.0  0.10591427200108083  0.7631656079224297  0.24550453202982755  1.0000
  H   H301      1.0  0.12654091929530709  0.7570455496469493  0.2714562244616327  1.0000
  H   H302      1.0  0.0763220393735855  0.7714691217715484  0.30321749173186097  1.0000
  H   H303      1.0  0.0995971248150338  0.7379450189223146  0.3052016363669022  1.0000
  H   H304      1.0  0.059142071598900836  0.7360736688949912  0.30425215244751985  1.0000
  N   N5        1.0  0.12400762162641259  0.9660122138092014  0.07983156752389053  1.0000
  C   C401      1.0  0.12028727952325749  0.9894476746213464  0.09713107946995003  1.0000
  C   C402      1.0  0.1535400383917596  0.9497513524717339  0.08306857849232996  1.0000
  C   C403      1.0  0.12287515336213006  0.979832811734999  0.0572875342155057  1.0000
  C   C404      1.0  0.0993169206282258  0.9451249995252613  0.08194417159190759  1.0000
  H   H305      1.0  0.097340593517479  0.0006898730154420994  0.09636035342970373  1.0000
  H   H306      1.0  0.13738205609321522  0.00665477820623117  0.09527038338743599  1.0000
  H   H307      1.0  0.12303642777550389  0.9801172472611742  0.1142826689656673  1.0000
  H   H308      1.0  0.1574044253061267  0.9321583380459862  0.07009849266886148  1.0000
  H   H309      1.0  0.1726556152328659  0.9649733573626109  0.08215270986702694  1.0000
  H   H310      1.0  0.1549485211401168  0.9386973849873397  0.09983633760161759  1.0000
  H   H311      1.0  0.12498703461667568  0.962884052751055  0.043680772893945896  1.0000
  H   H312      1.0  0.14156674625874002  0.9953449265099892  0.055039001694990874  1.0000
  H   H313      1.0  0.10124041547910266  0.9930431150051329  0.05456861589415207  1.0000
  H   H314      1.0  0.09980678565981035  0.9341494982703711  0.0987158543753417  1.0000
  H   H315      1.0  0.10106135443466316  0.9273321700490258  0.06895535373629504  1.0000
  H   H316      1.0  0.07662461818982172  0.9567718978607094  0.08020248034657884  1.0000
  N   N6        1.0  0.8667572010635799  0.6648650954010997  0.12227042060897396  1.0000
  C   C405      1.0  0.8451683389617911  0.6418247838840238  0.11664856553535219  1.0000
  C   C406      1.0  0.8500130711324192  0.6936336638648344  0.12589223955063084  1.0000
  C   C407      1.0  0.8884073437367087  0.667716322222035  0.10357625484191613  1.0000
  C   C408      1.0  0.8834806683553077  0.656210820968949  0.14299612340154066  1.0000
  H   H317      1.0  0.8571330897893602  0.6197940509012924  0.11388804525335129  1.0000
  H   H318      1.0  0.8321748483117495  0.6475424437517565  0.10104758193944097  1.0000
  H   H319      1.0  0.8285728632066166  0.6391158593635102  0.1304658174395172  1.0000
  H   H320      1.0  0.86564061187742  0.7114643610967574  0.1303172163990909  1.0000
  H   H321      1.0  0.8371090586391047  0.7009633832270415  0.11063185919500107  1.0000
  H   H322      1.0  0.8336767611161223  0.6924185179009659  0.1400591530535363  1.0000
  H   H323      1.0  0.9058675804510662  0.6840242371380889  0.10763887046717091  1.0000
  H   H324      1.0  0.8767804426924574  0.6752210391662208  0.08781727330999445  1.0000
  H   H325      1.0  0.9007160396340128  0.6461862086699274  0.09994184086617008  1.0000
  H   H326      1.0  0.895415297919599  0.6340647088217108  0.14114355275252538  1.0000
  H   H327      1.0  0.8680764716268093  0.6552392487305754  0.15773677746964945  1.0000
  H   H328      1.0  0.9008018432122784  0.6725043166466418  0.14721314956003742  1.0000
  N   N7        1.0  0.378622544523429  0.15500476393831572  0.6863640907475096  1.0000
  C   C409      1.0  0.40401452778793157  0.14896443236918636  0.7022172737874297  1.0000
  C   C410      1.0  0.35486502837225786  0.13356984002462097  0.6903614261684331  1.0000
  C   C411      1.0  0.3896974345476027  0.15186520400930187  0.662994388052832  1.0000
  C   C412      1.0  0.3658842484139998  0.18555419690494776  0.6899518823995099  1.0000
  H   H329      1.0  0.41385558822119634  0.12594914004822202  0.7001544771315039  1.0000
  H   H330      1.0  0.396451218661868  0.1515238571064899  0.7199881191782962  1.0000
  H   H331      1.0  0.4225721418792005  0.16449630770612284  0.6995627533349259  1.0000
  H   H332      1.0  0.335280678314238  0.13747965661576117  0.6787340483228402  1.0000
  H   H333      1.0  0.3637267808026371  0.11025073287700324  0.6877880950724463  1.0000
  H   H334      1.0  0.34606210211569016  0.13535867573722393  0.7078949972456554  1.0000
  H   H335      1.0  0.37127049651052635  0.15659026435272405  0.6505220115781117  1.0000
  H   H336      1.0  0.399106064868237  0.12893228818381317  0.6596208152206992  1.0000
  H   H337      1.0  0.40799055983492016  0.16742691115925887  0.6594461583672866  1.0000
  H   H338      1.0  0.34709789005312497  0.19115001115751876  0.6779567466873806  1.0000
  H   H339      1.0  0.38343096930352627  0.20226970174394865  0.6877013585235671  1.0000
  H   H340      1.0  0.35657297186017917  0.18845313147415174  0.7072676231346261  1.0000
  N   N8        1.0  0.5857240992719378  0.42674473079954367  0.7551045614664688  1.0000
  C   C413      1.0  0.5781430154103798  0.4570884452793088  0.746827104248093  1.0000
  C   C414      1.0  0.6161987905075605  0.4257198180410487  0.7655099904705481  1.0000
  C   C415      1.0  0.585416740869268  0.4056054797296868  0.7360475048840905  1.0000
  C   C416      1.0  0.5631489495864859  0.41858461695856924  0.772023895565225  1.0000
  H   H341      1.0  0.5946142590119659  0.46391977863844286  0.7339912181804644  1.0000
  H   H342      1.0  0.5782088066408052  0.4736692811823665  0.7607355814150781  1.0000
  H   H343      1.0  0.5553393098134642  0.4586155875028817  0.7387691881581226  1.0000
  H   H344      1.0  0.6171628380537691  0.44075477608477653  0.7803483533360329  1.0000
  H   H345      1.0  0.623077955976599  0.402880641181943  0.7712425965577074  1.0000
  H   H346      1.0  0.6336898695536792  0.432588941388836  0.753459508849981  1.0000
  H   H347      1.0  0.5629824330778502  0.406282145087665  0.7274105271937646  1.0000
  H   H348      1.0  0.5905673837637468  0.3823871012611275  0.7417335890515293  1.0000
  H   H349      1.0  0.6027270936970459  0.4108125070077945  0.7232442399316982  1.0000
  H   H350      1.0  0.5679593417992074  0.3956713526275309  0.7785082631025253  1.0000
  H   H351      1.0  0.5397816490167123  0.4197100329734696  0.7648912814643364  1.0000
  H   H352      1.0  0.5630607380839632  0.4339119685811547  0.7867721359199926  1.0000
  N   N9        1.0  0.2047561776296182  0.4722758738860145  0.861956466069413  1.0000
  C   C417      1.0  0.18014154467929666  0.45144500785175984  0.8648462434901175  1.0000
  C   C418      1.0  0.21353312183836617  0.4839738596900434  0.8841659861426499  1.0000
  C   C419      1.0  0.1940655150784678  0.49718350420297897  0.847400262027873  1.0000
  C   C420      1.0  0.23128878902819774  0.4565438527336338  0.8515227660487986  1.0000
  H   H353      1.0  0.17255437899882362  0.4423399503185903  0.8484586047958533  1.0000
  H   H354      1.0  0.16002519762052075  0.4624077874950336  0.8732061017904411  1.0000
  H   H355      1.0  0.1875158532456077  0.4322935263286695  0.8756418406892763  1.0000
  H   H356      1.0  0.22123573237679625  0.46565594417280165  0.8955466876871788  1.0000
  H   H357      1.0  0.23242820711638254  0.49938769633919594  0.8828505385516676  1.0000
  H   H358      1.0  0.19412741277596052  0.4959633645000418  0.8926616962361096  1.0000
  H   H359      1.0  0.21206674866790232  0.5133834494316788  0.8449781812444148  1.0000
  H   H360      1.0  0.17405401294698383  0.5094602142049651  0.8548620051104808  1.0000
  H   H361      1.0  0.18724206219219067  0.4891656637686463  0.8304710653035833  1.0000
  H   H362      1.0  0.23994697757974046  0.43759537527795844  0.8620794724877621  1.0000
  H   H363      1.0  0.25053846008618313  0.47144033548818526  0.8494898534160267  1.0000
  H   H364      1.0  0.22566399978193638  0.44746543140066014  0.8346720210834242  1.0000
  N   N10       1.0  0.7480193678328363  0.4310247273943232  0.7651644199126191  1.0000
  C   C421      1.0  0.7442714504840637  0.44830672810492006  0.7441577176084565  1.0000
  C   C422      1.0  0.7287644038642517  0.4050599400977807  0.7642304694861679  1.0000
  C   C423      1.0  0.7387726928119199  0.45000015760734385  0.7845020189020753  1.0000
  C   C424      1.0  0.7801427128917231  0.42079909925155873  0.7676772876604456  1.0000
  H   H365      1.0  0.7588383239967799  0.4677992018324366  0.7440635565561069  1.0000
  H   H366      1.0  0.7204012340979155  0.4566460211724349  0.7418491305022337  1.0000
  H   H367      1.0  0.7502315749269346  0.43443791304673124  0.7291584556282054  1.0000
  H   H368      1.0  0.7042694540413201  0.41202803746767025  0.7635006755500862  1.0000
  H   H369      1.0  0.7337198253082148  0.3910875553656871  0.7491255958650772  1.0000
  H   H370      1.0  0.7319078144381284  0.3908462132647936  0.7794048604734609  1.0000
  H   H371      1.0  0.7407119341352609  0.4375700834545638  0.8006045434954581  1.0000
  H   H372      1.0  0.7146083831034354  0.45800028184134967  0.7830178282844966  1.0000
  H   H373      1.0  0.7528902897805384  0.4697347982278324  0.7859673112775695  1.0000
  H   H374      1.0  0.7837735873857333  0.406598875341618  0.7828344002512412  1.0000
  H   H375      1.0  0.7952191384654109  0.4398083656035973  0.769305334888306  1.0000
  H   H376      1.0  0.7880447943003698  0.4074250506226521  0.752867312961092  1.0000
  N   N11       1.0  0.24435269844367388  0.243986020532869  0.8691166191203007  1.0000
  C   C425      1.0  0.2743916376942429  0.22835940178526504  0.8710340236005948  1.0000
  C   C426      1.0  0.23399950759169758  0.2431213230739515  0.8454436221393203  1.0000
  C   C427      1.0  0.2468172162065827  0.2751265877102651  0.8764368188223999  1.0000
  C   C428      1.0  0.22233888251787534  0.2293041794006747  0.8835419881322172  1.0000
  H   H377      1.0  0.28201086213077337  0.2262982364126791  0.8888468647201992  1.0000
  H   H378      1.0  0.2919492633102552  0.2401689343471376  0.8616805412357981  1.0000
  H   H379      1.0  0.27405962335637774  0.20559593428057976  0.8638881541963712  1.0000
  H   H380      1.0  0.250092133517062  0.2539719751856373  0.8340545778535408  1.0000
  H   H381      1.0  0.23228157278869938  0.21973999020396784  0.83942276539272  1.0000
  H   H382      1.0  0.21127185317608077  0.2544555422058068  0.8433454246340482  1.0000
  H   H383      1.0  0.2244489312043388  0.28753568135432817  0.8760313004538134  1.0000
  H   H384      1.0  0.2626847758776371  0.28712628821357455  0.8655756228696475  1.0000
  H   H385      1.0  0.2555312416963018  0.2761564655962927  0.8939741382674105  1.0000
  H   H386      1.0  0.19988110474852902  0.24153688136125262  0.8836316755566809  1.0000
  H   H387      1.0  0.23034139748438673  0.22737949651596367  0.9012740931570622  1.0000
  H   H388      1.0  0.21852578177234933  0.20647043857417757  0.8775349530188086  1.0000
  N   N12       1.0  0.5944733414754898  0.9499340585373547  0.5107072055094479  1.0000
  C   C429      1.0  0.6126416122636338  0.9747472124363673  0.518461227011881  1.0000
  C   C430      1.0  0.5674822040523154  0.9481179515391546  0.5251664450290668  1.0000
  C   C431      1.0  0.6129397482862926  0.9217608893175245  0.5120354700340568  1.0000
  C   C432      1.0  0.5847710999610438  0.9551961240330554  0.4871619268020089  1.0000
  H   H389      1.0  0.6331333502288601  0.9769091419114376  0.5078861947928663  1.0000
  H   H390      1.0  0.6207418081886857  0.9711799605848209  0.5360689322142553  1.0000
  H   H391      1.0  0.5992373025523136  0.9962697497191824  0.5180293367333576  1.0000
  H   H392      1.0  0.5527464475296011  0.9302611586699528  0.5193803390201924  1.0000
  H   H393      1.0  0.5738764352309225  0.9437398327286327  0.543043750656264  1.0000
  H   H394      1.0  0.5533452399690952  0.9692199989055892  0.5247521593381088  1.0000
  H   H395      1.0  0.6335001889641034  0.9223704391243194  0.5012746806314842  1.0000
  H   H396      1.0  0.5999560625869511  0.9025415432931652  0.5062112589415076  1.0000
  H   H397      1.0  0.6209473188369937  0.9171628798285169  0.52953702403474  1.0000
  H   H398      1.0  0.6045031850272662  0.9564738058056411  0.47571091954384365  1.0000
  H   H399      1.0  0.5703748411644838  0.976051367942018  0.48552499748084516  1.0000
  H   H400      1.0  0.5710998782049941  0.936820911095428  0.4808245914073922  1.0000
  N   N13       1.0  0.6067228765576164  0.817562956839022  0.40150225240580506  1.0000
  C   C433      1.0  0.5900514770722212  0.8463033060487278  0.3976480501615081  1.0000
  C   C434      1.0  0.5886736354539731  0.7987872000482429  0.4161963589266243  1.0000
  C   C435      1.0  0.6361157802813713  0.8226902262063607  0.4125145618256572  1.0000
  C   C436      1.0  0.6119846811973232  0.8024247954359516  0.37968596207645505  1.0000
  H   H401      1.0  0.5849881638215918  0.857934479961885  0.41377752328685313  1.0000
  H   H402      1.0  0.5680073766594935  0.8432786353402907  0.3889841476506561  1.0000
  H   H403      1.0  0.603401344072496  0.861450108936808  0.3872083765176013  1.0000
  H   H404      1.0  0.6010165718052476  0.7772257957386915  0.4198164281646116  1.0000
  H   H405      1.0  0.58376752049991  0.8099046770255095  0.4326244351657381  1.0000
  H   H406      1.0  0.5667239933067075  0.7935928180947821  0.40815132966760287  1.0000
  H   H407      1.0  0.6497637287219887  0.8383031204520809  0.4027462274778716  1.0000
  H   H408      1.0  0.6500080146007258  0.8016395051314291  0.4145177156428936  1.0000
  H   H409      1.0  0.6329390253129477  0.8321439339974874  0.4297164834808042  1.0000
  H   H410      1.0  0.625843772007011  0.8158211411821313  0.3682774536602835  1.0000
  H   H411      1.0  0.5902423468384965  0.798090043562045  0.3709842123308713  1.0000
  H   H412      1.0  0.6240323190534428  0.7804253900417865  0.3819513132463286  1.0000
  N   N14       1.0  0.6773837273060814  0.000562769317060674  0.4426679956750768  1.0000
  C   C437      1.0  0.6663053826413318  0.01897279919826378  0.46179038025045915  1.0000
  C   C438      1.0  0.6540846218481278  0.0010558633803663398  0.4247191226453274  1.0000
  C   C439      1.0  0.6836439487039063  0.9696848328801613  0.4503024776725033  1.0000
  C   C440      1.0  0.7055809881993598  0.0124884774706997  0.4337845053871897  1.0000
  H   H413      1.0  0.6608620337284552  0.04231204559948254  0.4565197413525898  1.0000
  H   H414      1.0  0.683647069236885  0.019715315082101226  0.4753565711124781  1.0000
  H   H415      1.0  0.6454987178433235  0.010059244773948706  0.46919195037772343  1.0000
  H   H416      1.0  0.6328882247186217  0.9910104256750675  0.4304348502774924  1.0000
  H   H417      1.0  0.6482473544030455  0.02408404626727023  0.41893410037769013  1.0000
  H   H418      1.0  0.6621323337081371  0.9882591410531906  0.4097007818902666  1.0000
  H   H419      1.0  0.6627145101660079  0.9588870367878981  0.4556638204822863  1.0000
  H   H420      1.0  0.6999470257193734  0.9685365441152787  0.4645770943593848  1.0000
  H   H421      1.0  0.6940519365598259  0.9558931435525373  0.43666714978099525  1.0000
  H   H422      1.0  0.7241569609170909  0.011308059420771288  0.44654351584108093  1.0000
  H   H423      1.0  0.7021520168378778  0.03604695875674091  0.42844293631140334  1.0000
  H   H424      1.0  0.7138389945842077  0.9995397703437813  0.41885816126533676  1.0000
  N   N15       1.0  0.969939924900463  0.1850913066671831  0.9615234425064514  1.0000
  C   C441      1.0  0.9956528066614055  0.20360083001714946  0.9672784050585087  1.0000
  C   C442      1.0  0.9588646759593601  0.19257397133867293  0.9386360550231146  1.0000
  C   C443      1.0  0.945230387213115  0.19072724630969207  0.9779015567334023  1.0000
  C   C444      1.0  0.9800566055992126  0.153375432789151  0.9622886304684605  1.0000
  H   H425      1.0  0.005172195178229977  0.19777575278477078  0.9841688832446528  1.0000
  H   H426      1.0  0.9887544627239594  0.22767467106460582  0.9675789294673184  1.0000
  H   H427      1.0  0.014539321026573848  0.20019570899667105  0.9551020531592289  1.0000
  H   H428      1.0  0.9769081253763257  0.18842939046891427  0.9258370218311819  1.0000
  H   H429      1.0  0.939458436098202  0.1789381021037293  0.9338098968604922  1.0000
  H   H430      1.0  0.9510032827395626  0.21632297679490264  0.9374189745310062  1.0000
  H   H431      1.0  0.9253232347132834  0.17744888001141312  0.9739297897816909  1.0000
  H   H432      1.0  0.937356837478964  0.2145478866096604  0.9781225455505979  1.0000
  H   H433      1.0  0.9526594501036993  0.18475033973566868  0.9952746747329256  1.0000
  H   H434      1.0  0.9612200018651146  0.1387205971460217  0.9579975963183065  1.0000
  H   H435      1.0  0.9888241937143859  0.1470616588321736  0.9793033689190485  1.0000
  H   H436      1.0  0.9988908611854076  0.14840512742961987  0.9502446171464616  1.0000
  N   N16       1.0  0.8241463499046173  0.6486856195907224  0.6534373590140115  1.0000
  C   C445      1.0  0.8258817373901813  0.6745910306709957  0.6383149148106665  1.0000
  C   C446      1.0  0.8379327670093826  0.6219373045873946  0.6423656876685222  1.0000
  C   C447      1.0  0.7920801580372354  0.643731314575855  0.6585457773797654  1.0000
  C   C448      1.0  0.8405686661474004  0.6544740248712325  0.6745895491758738  1.0000
  H   H437      1.0  0.8150578497609081  0.695017615365393  0.6459697446957958  1.0000
  H   H438      1.0  0.8137010161381465  0.670992061831473  0.6221716355344936  1.0000
  H   H439      1.0  0.8497184678546724  0.6792362283309977  0.6341445181043956  1.0000
  H   H440      1.0  0.836563686909873  0.6018673575181057  0.6531825588840976  1.0000
  H   H441      1.0  0.8259932314680034  0.616756709641993  0.6264065129250009  1.0000
  H   H442      1.0  0.8621589848494445  0.6247310357070106  0.638220852065319  1.0000
  H   H443      1.0  0.7791398628043084  0.639839434316938  0.6429029757244089  1.0000
  H   H444      1.0  0.7807999818634954  0.663378731980371  0.6669390055000184  1.0000
  H   H445      1.0  0.7896474295668781  0.6238854218461053  0.6694177374579496  1.0000
  H   H446      1.0  0.839528889196595  0.6353725739276979  0.6863853701705553  1.0000
  H   H447      1.0  0.8306754949764897  0.6745141234425721  0.6833450912461411  1.0000
  H   H448      1.0  0.8648938007592344  0.6582703845848458  0.6713775203646097  1.0000
  N   N17       1.0  0.05938891146434422  0.4201636146854768  0.1324002802924904  1.0000
  C   C449      1.0  0.08899043913326254  0.43266639523273503  0.12749868886525695  1.0000
  C   C450      1.0  0.06396642597649427  0.38924661851755804  0.14039460990983965  1.0000
  C   C451      1.0  0.04075085752360352  0.42048198581911816  0.11171185564597974  1.0000
  C   C452      1.0  0.04375100253159658  0.43835121820475104  0.14992937002311213  1.0000
  H   H449      1.0  0.10374245760593115  0.43294705112851045  0.14271392301209396  1.0000
  H   H450      1.0  0.086122951531175  0.4559578223517088  0.12127384631228466  1.0000
  H   H451      1.0  0.10151854042088582  0.4196177283510568  0.11433525731806027  1.0000
  H   H452      1.0  0.04195961007088811  0.3795479501219174  0.1446855170243979  1.0000
  H   H453      1.0  0.07492936540148354  0.37480390945052255  0.12727084909257536  1.0000
  H   H454      1.0  0.07871306213625862  0.38796492158639906  0.1556287798003686  1.0000
  H   H455      1.0  0.01831546280635421  0.41099699314519633  0.11464473812592368  1.0000
  H   H456      1.0  0.05201835611355343  0.4073175749604548  0.09800652893780182  1.0000
  H   H457      1.0  0.03648807265359655  0.4434932834561231  0.10541158652160831  1.0000
  H   H458      1.0  0.020645233676997776  0.4304430638737004  0.15328657044561567  1.0000
  H   H459      1.0  0.04114406028589124  0.46208633016988465  0.14474014647505773  1.0000
  H   H460      1.0  0.056666213932058174  0.4377004997227605  0.1660440588752099  1.0000
  N   N18       1.0  0.7924853433790949  0.26735033968356675  0.6586457714510733  1.0000
  C   C453      1.0  0.8174224644898174  0.2589941670444978  0.6743698445553236  1.0000
  C   C454      1.0  0.7831578586480967  0.2407683352223512  0.6462220721490057  1.0000
  C   C455      1.0  0.8027291084899898  0.2897662597176458  0.6425722118350442  1.0000
  C   C456      1.0  0.7664253058386805  0.2799670543884257  0.6714978275149419  1.0000
  H   H461      1.0  0.8248362868779693  0.27871878676859013  0.6839800730179322  1.0000
  H   H462      1.0  0.8375295121923579  0.2493360368138038  0.665277011728439  1.0000
  H   H463      1.0  0.8103026478030593  0.24225510086451654  0.6868067816177845  1.0000
  H   H464      1.0  0.7642621401662661  0.24644229781402385  0.6342931666984175  1.0000
  H   H465      1.0  0.8022091996773374  0.230452084737973  0.6363251105105382  1.0000
  H   H466      1.0  0.7749409314491806  0.22350083891547937  0.6578553798988376  1.0000
  H   H467      1.0  0.7843973156785192  0.2965798923317891  0.6304656998291533  1.0000
  H   H468      1.0  0.8225536497214225  0.28114680800020425  0.6326609549455421  1.0000
  H   H469      1.0  0.8095229271596911  0.31026859761046516  0.6514433434699922  1.0000
  H   H470      1.0  0.7727739279192254  0.29899943719625555  0.6820826149637482  1.0000
  H   H471      1.0  0.7571040139543641  0.26320912742657054  0.6829460477170016  1.0000
  H   H472      1.0  0.7480005909022112  0.2883260797961019  0.660073289294245  1.0000
  N   N19       1.0  0.6014506212950613  0.2624468671444043  0.8620182119882033  1.0000
  C   C457      1.0  0.5708808471236522  0.2694031683468148  0.8711806943140624  1.0000
  C   C458      1.0  0.6208436457234767  0.2879199365910631  0.8656913017836743  1.0000
  C   C459      1.0  0.5990182374869707  0.25640922263261706  0.8376417224087815  1.0000
  C   C460      1.0  0.6150223998953828  0.23596290563970768  0.8735183880963082  1.0000
  H   H473      1.0  0.555768975429103  0.2505122850050444  0.8685813127770526  1.0000
  H   H474      1.0  0.5599458370049228  0.2892240727022303  0.8627951361453703  1.0000
  H   H475      1.0  0.5717464666494962  0.27410987349163296  0.8895391078761914  1.0000
  H   H476      1.0  0.6110671514462673  0.3083876592368147  0.8574972016532131  1.0000
  H   H477      1.0  0.6235147879694058  0.2929022959483388  0.883897370763132  1.0000
  H   H478      1.0  0.6439229646249509  0.28349115930706775  0.8586145287452097  1.0000
  H   H479      1.0  0.6215327101548682  0.25044039473851126  0.8302207931413635  1.0000
  H   H480      1.0  0.5895148453949041  0.27605919855593364  0.8283405580006182  1.0000
  H   H481      1.0  0.5839295494078524  0.23779510080732486  0.8342118376177412  1.0000
  H   H482      1.0  0.6174832348027206  0.23979189099464385  0.8919077764337279  1.0000
  H   H483      1.0  0.6379919135762652  0.2298048764639927  0.8667759560626562  1.0000
  H   H484      1.0  0.600716610781195  0.2163894681160957  0.8713106762950403  1.0000
  N   N20       1.0  0.1407127330641141  0.584444838903591  0.2729806197316939  1.0000
  C   C461      1.0  0.1301045246221746  0.5834437047590343  0.2965180393732186  1.0000
  C   C462      1.0  0.17388513487316176  0.5784591149315126  0.27229165051988047  1.0000
  C   C463      1.0  0.13322152679012744  0.6141809402961179  0.26352235819558545  1.0000
  C   C464      1.0  0.12549082092396782  0.5617947174748473  0.2595611023001959  1.0000
  H   H485      1.0  0.10518976822705911  0.5883739106105119  0.29759453568606353  1.0000
  H   H486      1.0  0.1409702160237039  0.6003729908465932  0.3071047672250888  1.0000
  H   H487      1.0  0.13514376367055816  0.5613165177708341  0.30426439212091905  1.0000
  H   H488      1.0  0.18245390089334412  0.5784719491767163  0.2546927045676192  1.0000
  H   H489      1.0  0.18613350757023797  0.5956105477626571  0.2817989001558028  1.0000
  H   H490      1.0  0.180474147832775  0.55647420417245  0.27975528812636  1.0000
  H   H491      1.0  0.10844951779180897  0.6197689708091307  0.2644479296529168  1.0000
  H   H492      1.0  0.139704025744695  0.6155410331156385  0.24550900667216835  1.0000
  H   H493      1.0  0.14473231074811646  0.6317882016314391  0.27293763156548934  1.0000
  H   H494      1.0  0.13217334951595483  0.5626211826439342  0.24152272570538885  1.0000
  H   H495      1.0  0.10039181881284083  0.5655369933272598  0.2600526585840519  1.0000
  H   H496      1.0  0.1310458858673545  0.538975150116887  0.26587704883091107  1.0000
  N   N21       1.0  0.9808122794753726  0.08297315410987016  0.06603054893024196  1.0000
  C   C465      1.0  0.9910245660320868  0.05157299277255545  0.0694137142215494  1.0000
  C   C466      1.0  0.003899127648081091  0.09851265726196101  0.053224796960704035  1.0000
  C   C467      1.0  0.9763930180323668  0.09745280839907933  0.08818675388556119  1.0000
  C   C468      1.0  0.951911719168718  0.08437338172396491  0.053352933281473724  1.0000
  H   H497      1.0  0.973752821086156  0.039197923044413496  0.07878460980962876  1.0000
  H   H498      1.0  0.01247528511663698  0.049732621286899814  0.07933167384024986  1.0000
  H   H499      1.0  0.9949640975846564  0.03992325279281461  0.05309369893887683  1.0000
  H   H500      1.0  0.9965811447754237  0.12215440843911152  0.050207910661143496  1.0000
  H   H501      1.0  0.02586861938938978  0.09838062741654952  0.06248008431185603  1.0000
  H   H502      1.0  0.00824424733438911  0.08795685074911264  0.03652960209066558  1.0000
  H   H503      1.0  0.9982158196312665  0.09946064314198333  0.0973332565817906  1.0000
  H   H504      1.0  0.9616662881080603  0.08444100903443497  0.09912600616954426  1.0000
  H   H505      1.0  0.9654540094981892  0.12010872833929898  0.08657245875491948  1.0000
  H   H506      1.0  0.9429493090959715  0.10772610734818056  0.05122585010142422  1.0000
  H   H507      1.0  0.934159280108518  0.07222926929045292  0.062223709675288896  1.0000
  H   H508      1.0  0.9545497280082345  0.0742529440376185  0.0363528576913974  1.0000
  N   N22       1.0  0.06432828898148202  0.789256198070121  0.12888790934118588  1.0000
  C   C469      1.0  0.09215496268165602  0.8057830770529805  0.12586911283653168  1.0000
  C   C470      1.0  0.0480840500648152  0.800573730311311  0.14905959741739783  1.0000
  C   C471      1.0  0.07255321872384024  0.7573372463520665  0.1317420096551838  1.0000
  C   C472      1.0  0.044571060422040176  0.7933400962863425  0.10890447404779247  1.0000
  H   H509      1.0  0.10511114804367816  0.7979995926570714  0.1107626304764382  1.0000
  H   H510      1.0  0.10765660262381305  0.8027534202128186  0.14057080238395114  1.0000
  H   H511      1.0  0.0868099913362046  0.8300691249622478  0.12409790946197585  1.0000
  H   H512      1.0  0.027528793897559245  0.7880576525919664  0.15233653915425838  1.0000
  H   H513      1.0  0.0626813138550113  0.7989793168614444  0.16434729505433032  1.0000
  H   H514      1.0  0.04035211865921284  0.8242873514946414  0.14699733722245067  1.0000
  H   H515      1.0  0.08693000560541364  0.7533259357323361  0.1469323474890123  1.0000
  H   H516      1.0  0.08532028978601791  0.748321849691156  0.11696924234208916  1.0000
  H   H517      1.0  0.05219594111967929  0.7439317450666902  0.13352764869707956  1.0000
  H   H518      1.0  0.023741102106050294  0.7804625743188836  0.11048176907796003  1.0000
  H   H519      1.0  0.056373051165152566  0.7857785871804235  0.09327512715894093  1.0000
  H   H520      1.0  0.036931087039518085  0.8170689352696793  0.10672675483197924  1.0000
  N   N23       1.0  0.052428089431353804  0.07699106130309118  0.17065371142699598  1.0000
  C   C473      1.0  0.07682019493064109  0.09401266480276205  0.16071946338415152  1.0000
  C   C474      1.0  0.02284741940538093  0.09176898088314236  0.16493107878498514  1.0000
  C   C475      1.0  0.056197302124638915  0.07594541045851501  0.19536804489813045  1.0000
  C   C476      1.0  0.053931043405086594  0.04634383777665074  0.16158177797927378  1.0000
  H   H521      1.0  0.07548639784376335  0.11763345966110184  0.16626210949479892  1.0000
  H   H522      1.0  0.07547380093001048  0.09386600969886784  0.14202501418711758  1.0000
  H   H523      1.0  0.09957348070293597  0.08454579010510915  0.16560285206945313  1.0000
  H   H524      1.0  0.020964014824468302  0.1148561160611229  0.17161517159613046  1.0000
  H   H525      1.0  0.019420890056527588  0.09307053582348151  0.1463772509043622  1.0000
  H   H526      1.0  0.003793422646317213  0.07968532877051057  0.17217328934725054  1.0000
  H   H527      1.0  0.038108460148704504  0.06320582784858615  0.20338204097772075  1.0000
  H   H528      1.0  0.05512992836163511  0.09861361542345369  0.20285337717246482  1.0000
  H   H529      1.0  0.0783345493536916  0.06489238490413114  0.20018810743247686  1.0000
  H   H530      1.0  0.05080220579484318  0.04604881212327049  0.14298872932991594  1.0000
  H   H531      1.0  0.03611092389504878  0.03270403648790787  0.16905450201795413  1.0000
  H   H532      1.0  0.07626965213886078  0.0348252831599849  0.16520196781030366  1.0000
  N   N24       1.0  0.8439875334603439  0.8477380503788178  0.36206588470123285  1.0000
  C   C477      1.0  0.8680819390886029  0.8272075777172315  0.3531451024576227  1.0000
  C   C478      1.0  0.8559229532436443  0.8642592053810175  0.38143417032535404  1.0000
  C   C479      1.0  0.8180663120525635  0.8306127769175631  0.36946794672837935  1.0000
  C   C480      1.0  0.8340021860429668  0.8687753091282585  0.34418675894169487  1.0000
  H   H533      1.0  0.8595793788694719  0.8136960532717508  0.3389308856142196  1.0000
  H   H534      1.0  0.8765386147789741  0.811314833552412  0.36631345295822537  1.0000
  H   H535      1.0  0.8875404830805929  0.8394647339200951  0.34674559927229753  1.0000
  H   H536      1.0  0.8387978412081158  0.8809533860063689  0.38787005370119837  1.0000
  H   H537      1.0  0.8619602713956509  0.8491488705966973  0.3957350329962855  1.0000
  H   H538      1.0  0.8763745063521743  0.8763512289068343  0.3768280014429873  1.0000
  H   H539      1.0  0.8086823874579121  0.8174282006880766  0.35544815184911005  1.0000
  H   H540      1.0  0.7993894493275148  0.8452580484118224  0.376262873222547  1.0000
  H   H541      1.0  0.824751299040745  0.8147760884468584  0.38319216334186573  1.0000
  H   H542      1.0  0.8250772144123537  0.8569483722350661  0.32928767686752014  1.0000
  H   H543      1.0  0.8529283195004737  0.8823266027528062  0.3384543661644689  1.0000
  H   H544      1.0  0.8157771411037744  0.8846428521838741  0.35018802806596566  1.0000
  N   N25       1.0  0.9035605642572311  0.0002459753721137936  0.30245108899142636  1.0000
  C   C481      1.0  0.8789031047417338  0.02078292485307287  0.29428062363942414  1.0000
  C   C482      1.0  0.9329475068841624  0.010069035119537384  0.29411358320885006  1.0000
  C   C483      1.0  0.898558866779111  0.9699667547879578  0.29402090753604254  1.0000
  C   C484      1.0  0.9038264105301104  9.95225964777191e-05  0.3273353668205557  1.0000
  H   H545      1.0  0.8822143578288207  0.04396286752689904  0.2999804614387615  1.0000
  H   H546      1.0  0.8564479929492955  0.01420733352808079  0.30056464640922925  1.0000
  H   H547      1.0  0.8778019391113425  0.020954201628553548  0.27554011875302475  1.0000
  H   H548      1.0  0.9518803084402468  0.9941620419420351  0.2990024117063403  1.0000
  H   H549      1.0  0.9330625247731421  0.011621066803799707  0.2754103088718629  1.0000
  H   H550      1.0  0.9382289542002445  0.032287687184794134  0.30087928178338763  1.0000
  H   H551      1.0  0.9160790748210453  0.9536579646312368  0.30062727200025796  1.0000
  H   H552      1.0  0.8998307879327687  0.968856165785954  0.27531016525069524  1.0000
  H   H553      1.0  0.8760246042205442  0.9622603187673882  0.2991481300164136  1.0000
  H   H554      1.0  0.9068922690503375  0.022689926993057385  0.3343302302496347  1.0000
  H   H555      1.0  0.9226591817024092  0.9853218878894463  0.3340284689961585  1.0000
  H   H556      1.0  0.8822550656200369  0.9920241019990305  0.3342344133494687  1.0000
  N   N26       1.0  0.6189110409449525  0.18854994728393137  0.7151555091544588  1.0000
  C   C485      1.0  0.5961217679064028  0.18217503337208166  0.7323926276763445  1.0000
  C   C486      1.0  0.6208329959261903  0.22105290803540179  0.7126449199933476  1.0000
  C   C487      1.0  0.609991310516102  0.17543600757406852  0.6934668365566372  1.0000
  C   C488      1.0  0.6488043722253791  0.17553672398114673  0.7220575466272074  1.0000
  H   H557      1.0  0.5948549915266335  0.15784883867635588  0.7352871095895911  1.0000
  H   H558      1.0  0.5731155327779257  0.19099272221398977  0.727389465079056  1.0000
  H   H559      1.0  0.6017904208864319  0.19265662013348742  0.7487353040867536  1.0000
  H   H560      1.0  0.6368393981715843  0.22661961598698238  0.6989986645283731  1.0000
  H   H561      1.0  0.5984181327453331  0.23179215305934292  0.7082409675113551  1.0000
  H   H562      1.0  0.6288015245231128  0.23148912973360608  0.7284773793013213  1.0000
  H   H563      1.0  0.6266760914474327  0.1801445568730516  0.6801217943025628  1.0000
  H   H564      1.0  0.5876124864555481  0.18484142770946924  0.6876432292041317  1.0000
  H   H565      1.0  0.6085851769301618  0.15089215352171662  0.6946822245249576  1.0000
  H   H566      1.0  0.666463678555699  0.18049846000274294  0.7095721284354739  1.0000
  H   H567      1.0  0.6485784872796857  0.15100536920068822  0.7236404262328948  1.0000
  H   H568      1.0  0.6562226046392723  0.18451743459435616  0.7385134728125607  1.0000
  N   N27       1.0  0.40027114327029356  0.7633970126656214  0.648948148928716  1.0000
  C   C489      1.0  0.4009973242986688  0.744597666943445  0.6285254915141918  1.0000
  C   C490      1.0  0.43152463741452723  0.7671232866665476  0.657069547883671  1.0000
  C   C491      1.0  0.38271950394004156  0.7489485905757685  0.6666214208139076  1.0000
  C   C492      1.0  0.3859804570975075  0.79285968063848  0.6435395920291318  1.0000
  H   H569      1.0  0.3778132876472804  0.7408418420055527  0.6220759154698523  1.0000
  H   H570      1.0  0.4123256312243264  0.7224077477120284  0.6317942769428799  1.0000
  H   H571      1.0  0.4135843495769121  0.7551114371160659  0.6147234098522506  1.0000
  H   H572      1.0  0.4319723211125563  0.7813334096576051  0.6723997789293805  1.0000
  H   H573      1.0  0.443129247195233  0.7453155741580931  0.6611760252594866  1.0000
  H   H574      1.0  0.4453052987252605  0.7779699833117552  0.6441035560874336  1.0000
  H   H575      1.0  0.3929672648556036  0.7265551414470043  0.6708420019655514  1.0000
  H   H576      1.0  0.35896442141232754  0.7458653005181048  0.6610911716961528  1.0000
  H   H577      1.0  0.38192564957570485  0.7623867699618705  0.6823679333647712  1.0000
  H   H578      1.0  0.36234992621190454  0.7909928873282424  0.6373359616308302  1.0000
  H   H579      1.0  0.398742076877446  0.8041653481440378  0.6301341224389096  1.0000
  H   H580      1.0  0.3853951640579245  0.8078262553644076  0.658477812416879  1.0000
  N   N28       1.0  0.5076689918430962  0.7380790514771174  0.4661449019617488  1.0000
  C   C493      1.0  0.5351790159249821  0.7513365679254537  0.47523110503454763  1.0000
  C   C494      1.0  0.5129478709229937  0.7055575084517167  0.4642367236047476  1.0000
  C   C495      1.0  0.5006595049033069  0.7507337384403004  0.4436904991561491  1.0000
  C   C496      1.0  0.48201624003030097  0.7447034561450645  0.48151252427415164  1.0000
  H   H581      1.0  0.541050601370272  0.7422875760097146  0.492205396795293  1.0000
  H   H582      1.0  0.5318801057697009  0.7759115322501605  0.47690103569654074  1.0000
  H   H583      1.0  0.5550541082072482  0.7466808708078553  0.46407493795589794  1.0000
  H   H584      1.0  0.5325746032229132  0.6997599227118533  0.45314399528594934  1.0000
  H   H585      1.0  0.5174947363365728  0.6953268572302971  0.48099903548985856  1.0000
  H   H586      1.0  0.4928991279826657  0.6948206031746578  0.456949944250288  1.0000
  H   H587      1.0  0.4799560458465706  0.7413654563065865  0.43630188115183177  1.0000
  H   H588      1.0  0.5195289631289807  0.7459754456683572  0.4316786441815427  1.0000
  H   H589      1.0  0.4966149649064095  0.7752692326832193  0.4445291102001552  1.0000
  H   H590      1.0  0.4608602244559766  0.734802444256688  0.47535593695274314  1.0000
  H   H591      1.0  0.4774134644889111  0.7690442035162055  0.48339136820305373  1.0000
  H   H592      1.0  0.4867159302420667  0.7357508944733058  0.49865442077831545  1.0000
  N   N29       1.0  0.31659650352817864  0.612603821346227  0.4609979216163518  1.0000
  C   C497      1.0  0.34477703497617074  0.6070881723665352  0.4741526619740591  1.0000
  C   C498      1.0  0.29132466645799204  0.5983797504146816  0.4723316905568581  1.0000
  C   C499      1.0  0.3204882958864073  0.600040390411553  0.43811042341720796  1.0000
  C   C500      1.0  0.30970644474295983  0.644953460964725  0.45947224715192886  1.0000
  H   H593      1.0  0.36433512322614775  0.6174565168971926  0.4660916129794272  1.0000
  H   H594      1.0  0.3506763302072018  0.5829319900681125  0.4758781472589748  1.0000
  H   H595      1.0  0.34287499221732803  0.6168746438939204  0.4913556426578926  1.0000
  H   H596      1.0  0.26967352751326185  0.602194984831309  0.46287561569006314  1.0000
  H   H597      1.0  0.29573960669550287  0.5739302756264556  0.47378350877797226  1.0000
  H   H598      1.0  0.287807347457097  0.6074043131430442  0.48963699742243516  1.0000
  H   H599      1.0  0.2995165235478217  0.6034855528408866  0.42779282883523473  1.0000
  H   H600      1.0  0.3262610185153346  0.5757514567146607  0.4385864218094901  1.0000
  H   H601      1.0  0.339002583893274  0.6106312336771876  0.42884528879232914  1.0000
  H   H602      1.0  0.28833514305615876  0.6500519489432925  0.4499830084048564  1.0000
  H   H603      1.0  0.3281965275400459  0.6563406871543923  0.4508276472279636  1.0000
  H   H604      1.0  0.3074225217990718  0.6553395523543031  0.47644876211168397  1.0000
  N   N30       1.0  0.15426465101008602  0.873921714148111  0.30964748527762903  1.0000
  C   C501      1.0  0.17469904835504146  0.8945747564608086  0.2987591197172819  1.0000
  C   C502      1.0  0.14799396249390662  0.849473854390459  0.29392028727531727  1.0000
  C   C503      1.0  0.1255199431825056  0.8899788778724645  0.3156221398298505  1.0000
  C   C504      1.0  0.16878348069105176  0.8617104293800684  0.3303110572959605  1.0000
  H   H605      1.0  0.18003520538525142  0.913254333732602  0.310152954762452  1.0000
  H   H606      1.0  0.16438911808154266  0.90444978516527  0.2832206981359252  1.0000
  H   H607      1.0  0.19658267513875227  0.883066023926349  0.29396583447422475  1.0000
  H   H608      1.0  0.13343557504628456  0.832875130726305  0.30183440759068525  1.0000
  H   H609      1.0  0.13615401074234645  0.8579236625081257  0.2784983926460252  1.0000
  H   H610      1.0  0.16929604227882478  0.8374745974636341  0.28847447066697024  1.0000
  H   H611      1.0  0.12926383406751696  0.9076906965373844  0.3282336748879012  1.0000
  H   H612      1.0  0.10911997387178829  0.874717385296427  0.32298650528536405  1.0000
  H   H613      1.0  0.11456526269230527  0.9008518778671063  0.3006892371204714  1.0000
  H   H614      1.0  0.15418581884963123  0.8456486381994924  0.3387693940457357  1.0000
  H   H615      1.0  0.17346499286825035  0.8796503303249972  0.342640127378828  1.0000
  H   H616      1.0  0.19077040606547646  0.849812942841306  0.3265510049113571  1.0000
  N   N31       1.0  0.9845617844272332  0.8232748905263655  0.3714772623722014  1.0000
  C   C505      1.0  0.013818530631333415  0.8363437856935111  0.3663439201729669  1.0000
  C   C506      1.0  0.9747495189246471  0.8325866947125254  0.39427686114994626  1.0000
  C   C507      1.0  0.9880650332291813  0.790474499503841  0.37044703275132423  1.0000
  C   C508      1.0  0.9615808760926292  0.8338591884878076  0.354849529680991  1.0000
  H   H617      1.0  0.021788445719848056  0.8299689652155329  0.3492131688378094  1.0000
  H   H618      1.0  0.03180732066520763  0.8288320081456747  0.3784659238256986  1.0000
  H   H619      1.0  0.011929790169407987  0.861078117993484  0.36705001256841957  1.0000
  H   H620      1.0  0.9526321888205904  0.8233038629745335  0.3987007218072209  1.0000
  H   H621      1.0  0.9915840807976496  0.8250015822892313  0.40726032209622215  1.0000
  H   H622      1.0  0.9720436592409005  0.8572764234659556  0.39560641676628655  1.0000
  H   H623      1.0  0.9666981866594802  0.7797324812317489  0.37490047357897766  1.0000
  H   H624      1.0  0.00595357611077629  0.7816423298668088  0.3821910796860087  1.0000
  H   H625      1.0  0.9943622787496033  0.78254622269546  0.3532746952384767  1.0000
  H   H626      1.0  0.9395305391360542  0.8236793478476554  0.35779032291666285  1.0000
  H   H627      1.0  0.9686642701722354  0.8280965662089733  0.3373459396826712  1.0000
  H   H628      1.0  0.9577874628734944  0.8584708449827126  0.3556566639859073  1.0000
  N   N32       1.0  0.8120198289753539  0.09992240242038322  0.8973139443030514  1.0000
  C   C509      1.0  0.8299701788503664  0.07703753456477455  0.9100162107507097  1.0000
  C   C510      1.0  0.7843076453712648  0.08703777904773424  0.8881929706044516  1.0000
  C   C511      1.0  0.8304069591258106  0.11071237907895773  0.8785513386827573  1.0000
  C   C512      1.0  0.8035195211537264  0.12492486514448674  0.9125252939915689  1.0000
  H   H629      1.0  0.8509716481983622  0.0862672797749522  0.9171681985082335  1.0000
  H   H630      1.0  0.8370784099308564  0.05791840420094926  0.8990659020646352  1.0000
  H   H631      1.0  0.8168446877847966  0.06831782837317837  0.9243143869397124  1.0000
  H   H632      1.0  0.7695995824258115  0.07901661079739963  0.9018557581014844  1.0000
  H   H633      1.0  0.7704937032003991  0.10368758616411917  0.878250120124423  1.0000
  H   H634      1.0  0.7898556519004896  0.0679624542341759  0.876772882188537  1.0000
  H   H635      1.0  0.8516824453764776  0.12018680136221033  0.8848147371779823  1.0000
  H   H636      1.0  0.8178524647003036  0.12831442230684825  0.8687211594810476  1.0000
  H   H637      1.0  0.8369482521684578  0.09253061351172834  0.8665810764205525  1.0000
  H   H638      1.0  0.7899332617226225  0.11750206764401556  0.9270261852899614  1.0000
  H   H639      1.0  0.7897484585289105  0.14255570262894723  0.9036168212343522  1.0000
  H   H640      1.0  0.8239348297263788  0.13533067083377456  0.9195507169420172  1.0000
  N   N33       1.0  0.09038658554422763  0.4467814230485505  0.9863575526422396  1.0000
  C   C513      1.0  0.07819103776099867  0.4703340057677827  0.9711196532921395  1.0000
  C   C514      1.0  0.0664420432936157  0.42588929170741663  0.99127278111222  1.0000
  C   C515      1.0  0.10061738942699683  0.4603563135227633  0.007571110571781947  1.0000
  C   C516      1.0  0.11621978807260747  0.4305197554346062  0.9754678203415147  1.0000
  H   H641      1.0  0.09582540865196854  0.4860160201926358  0.9664015178710681  1.0000
  H   H642      1.0  0.059086326148034995  0.4834846298281057  0.9790548459300878  1.0000
  H   H643      1.0  0.0691275451533413  0.4607692913843105  0.9552906118302492  1.0000
  H   H644      1.0  0.07503875185951281  0.40730199252690175  0.002185617603948531  1.0000
  H   H645      1.0  0.04684010905058278  0.4373091875089648  0.9999499598145891  1.0000
  H   H646      1.0  0.057375782246980256  0.41610074795031016  0.9755488825301344  1.0000
  H   H647      1.0  0.11014070411101651  0.4432269632774845  0.019407985694388064  1.0000
  H   H648      1.0  0.08150123053366709  0.4724367532350425  0.01637505344266521  1.0000
  H   H649      1.0  0.1184683694770079  0.4764938577167418  0.004477021655167945  1.0000
  H   H650      1.0  0.1268859273823557  0.41358924354621135  0.9869329340040282  1.0000
  H   H651      1.0  0.13410224320248032  0.44582123227297243  0.970387787955623  1.0000
  H   H652      1.0  0.10886724448975182  0.4188121055705528  0.9600016671248595  1.0000
  N   N34       1.0  0.05249176971604274  0.28332839343506744  0.8809705373022562  1.0000
  C   C517      1.0  0.059065699450952656  0.2968754456997953  0.9030272518312266  1.0000
  C   C518      1.0  0.023767318954589275  0.26788898193659727  0.8823475093552792  1.0000
  C   C519      1.0  0.07744321315981123  0.2618773425794536  0.8748940360566391  1.0000
  C   C520      1.0  0.049707460902157934  0.3066738863449181  0.8635736913964474  1.0000
  H   H653      1.0  0.08093307175006015  0.3082596376011011  0.902809870640289  1.0000
  H   H654      1.0  0.06074592481324603  0.2799027896680517  0.9166004958308962  1.0000
  H   H655      1.0  0.041170192381867476  0.3138176389699727  0.9079378697131826  1.0000
  H   H656      1.0  0.017751333532882493  0.2580037606377614  0.8658444476213291  1.0000
  H   H657      1.0  0.025400236683416063  0.2494968208763768  0.8948306554983795  1.0000
  H   H658      1.0  0.004656044867403789  0.2833562186714138  0.8874890653036414  1.0000
  H   H659      1.0  0.0734753108983384  0.25137855847330814  0.8582261731620204  1.0000
  H   H660      1.0  0.0799201041219973  0.2436077237459391  0.8873584057782107  1.0000
  H   H661      1.0  0.09955765357136971  0.27270549856615167  0.8742159000683576  1.0000
  H   H662      1.0  0.07115817704614202  0.31853449983837834  0.8619406855756145  1.0000
  H   H663      1.0  0.03156725614571276  0.3237066081089397  0.8678320951584729  1.0000
  H   H664      1.0  0.044322411071404444  0.2972080070626606  0.8467968929815174  1.0000
  N   N35       1.0  0.7547527899534302  0.7262206664112416  0.4945630779958064  1.0000
  C   C521      1.0  0.7647330470750565  0.7186746547084224  0.4714606072842191  1.0000
  C   C522      1.0  0.7602042719439572  0.7578269997984126  0.4991521406157275  1.0000
  C   C523      1.0  0.7720155731123624  0.7070652669931772  0.5107323361755179  1.0000
  C   C524      1.0  0.7220414213661662  0.7212686477550796  0.49676306583286434  1.0000
  H   H665      1.0  0.7607079154883756  0.6950468344335691  0.46729143481695606  1.0000
  H   H666      1.0  0.7893174790455907  0.722092056046916  0.4691889717353825  1.0000
  H   H667      1.0  0.7523323456676  0.7328087740863947  0.45882716107079013  1.0000
  H   H668      1.0  0.7471742380026023  0.7727846364053362  0.4873187132877278  1.0000
  H   H669      1.0  0.7531512599088175  0.7644425206681043  0.5164619451051862  1.0000
  H   H670      1.0  0.7845641712476976  0.7625953759370836  0.4974094445470219  1.0000
  H   H671      1.0  0.7967683056447844  0.7103304668121609  0.509663641003676  1.0000
  H   H672      1.0  0.7684419717318238  0.6830798013993058  0.5075459352793982  1.0000
  H   H673      1.0  0.7649633023754044  0.7116858805018476  0.5283638262058451  1.0000
  H   H674      1.0  0.7137505029240013  0.7267508718001722  0.5139831008848254  1.0000
  H   H675      1.0  0.716993980495138  0.6976931477269888  0.4933402436051205  1.0000
  H   H676      1.0  0.7083462209512659  0.7353733214164294  0.4847780219659491  1.0000
  N   N36       1.0  0.49172507753385625  0.09452327849331765  0.761638950032491  1.0000
  C   C525      1.0  0.4588428201886584  0.09918065640395035  0.7574403501273494  1.0000
  C   C526      1.0  0.5038259006979401  0.1219679931720985  0.7711103771790189  1.0000
  C   C527      1.0  0.5072485260602595  0.08708402509776203  0.7402211661415847  1.0000
  C   C528      1.0  0.4969774667366043  0.06988855854811105  0.777788057324775  1.0000
  H   H677      1.0  0.4464254172096058  0.10517586364236475  0.7732459233884815  1.0000
  H   H678      1.0  0.4489291917799368  0.07876769420745067  0.7505178391038607  1.0000
  H   H679      1.0  0.45417760091403286  0.1174172270143865  0.7451255409010088  1.0000
  H   H680      1.0  0.5282627622591222  0.11882561968821803  0.7754958042859665  1.0000
  H   H681      1.0  0.5016656996854365  0.14066864904037124  0.7589756999121471  1.0000
  H   H682      1.0  0.4916715770626534  0.12905506570589376  0.786693888104296  1.0000
  H   H683      1.0  0.5040162046621235  0.10536642184601464  0.7277472743612107  1.0000
  H   H684      1.0  0.498620081695163  0.06653676879403148  0.7325091817632606  1.0000
  H   H685      1.0  0.5320781018062806  0.08326621668685585  0.7428355065761248  1.0000
  H   H686      1.0  0.5215894615264266  0.06594504991902594  0.7814879499426322  1.0000
  H   H687      1.0  0.48843004171758836  0.04872061603740918  0.7711334920404683  1.0000
  H   H688      1.0  0.48543809746466193  0.07473727223253568  0.794093840988796  1.0000
  N   N37       1.0  0.16976987146575845  0.33452949812458965  0.9993834341256916  1.0000
  C   C529      1.0  0.17886654224322557  0.36030612097626075  0.012832002660859043  1.0000
  C   C530      1.0  0.19643035496419337  0.3214398516053731  0.9874006891613578  1.0000
  C   C531      1.0  0.1461044118389577  0.3443330555543572  0.9830514143107448  1.0000
  C   C532      1.0  0.1576605913525627  0.31184933331842296  0.014363338740150944  1.0000
  H   H689      1.0  0.1592322756788872  0.3711545587037826  0.02177840859167368  1.0000
  H   H690      1.0  0.18942341644390195  0.3772717484151925  0.0021825998691862303  1.0000
  H   H691      1.0  0.19578896502829995  0.35347658218954764  0.02588835697401115  1.0000
  H   H692      1.0  0.1903532222064661  0.3019902763610552  0.9770484754257737  1.0000
  H   H693      1.0  0.2066079425496235  0.3377724946950951  0.9760246288535959  1.0000
  H   H694      1.0  0.2144603894494499  0.31363254486354203  0.9994379169103467  1.0000
  H   H695      1.0  0.1376842503593506  0.32517877533763634  0.9733763338879925  1.0000
  H   H696      1.0  0.1548684708994777  0.36040494587734695  0.9707415858883939  1.0000
  H   H697      1.0  0.12610909207318075  0.35500165301466413  0.9916969076189291  1.0000
  H   H698      1.0  0.1496668603121927  0.2925643243221334  0.004597499261858928  1.0000
  H   H699      1.0  0.1381893742822852  0.321152282544596  0.024387078533786966  1.0000
  H   H700      1.0  0.17544713690029368  0.3031168174965297  0.026269850709347065  1.0000
  N   N38       1.0  0.3245503066376154  0.728230854068489  0.35086311027087164  1.0000
  C   C533      1.0  0.34511972767348403  0.7015329125675241  0.34898757599342467  1.0000
  C   C534      1.0  0.31504424386206115  0.7382540376114611  0.3281444915579344  1.0000
  C   C535      1.0  0.34040021551395894  0.7521663547199589  0.36240044952552863  1.0000
  C   C536      1.0  0.2975458491325322  0.7209481031864865  0.36397045100584474  1.0000
  H   H701      1.0  0.35286979665581075  0.693536758812712  0.36582642267768484  1.0000
  H   H702      1.0  0.36575307302486526  0.706031428130002  0.3391133917122846  1.0000
  H   H703      1.0  0.3337528248528633  0.6827560457331381  0.3407501422467741  1.0000
  H   H704      1.0  0.33489454657681084  0.7438381360781396  0.3177616205880622  1.0000
  H   H705      1.0  0.3027061199278489  0.7207621765543092  0.31911249595252733  1.0000
  H   H706      1.0  0.29965521051722527  0.7585021170543823  0.329003241756059  1.0000
  H   H707      1.0  0.3473696088989212  0.7455301857366787  0.3797625895887111  1.0000
  H   H708      1.0  0.3256607793089332  0.772792112482094  0.36374564132502246  1.0000
  H   H709      1.0  0.36135114055589834  0.7578464691066414  0.3533109214762184  1.0000
  H   H710      1.0  0.30386874712511  0.7131029137417443  0.381156247940782  1.0000
  H   H711      1.0  0.284842816660433  0.7031703284453095  0.3556593238067135  1.0000
  H   H712      1.0  0.2815803574520584  0.7405248668972563  0.36590836176276675  1.0000
  N   N39       1.0  0.8038557905897178  0.979100968647093  0.5523880424678508  1.0000
  C   C537      1.0  0.808920521676273  0.006742845212473813  0.565027370034437  1.0000
  C   C538      1.0  0.771296722451216  0.9730373068266122  0.5527817252798614  1.0000
  C   C539      1.0  0.8213405644619557  0.954024997814566  0.562955379074567  1.0000
  C   C540      1.0  0.8137216725465259  0.9825289404424942  0.5288208412177676  1.0000
  H   H713      1.0  0.7960139757968177  0.026148297987973024  0.5575710604075409  1.0000
  H   H714      1.0  0.8332969277178619  0.011931303742889641  0.5653602484278688  1.0000
  H   H715      1.0  0.8014031049550163  0.004943502991389347  0.5827747500424878  1.0000
  H   H716      1.0  0.757154999609031  0.9920572350756593  0.546024176010601  1.0000
  H   H717      1.0  0.7665133820009217  0.9531108283591032  0.5425667006940769  1.0000
  H   H718      1.0  0.7634184069366997  0.9686992209241694  0.570138155339115  1.0000
  H   H719      1.0  0.8146441831448001  0.9510653419195034  0.5808492111657709  1.0000
  H   H720      1.0  0.8460920309917753  0.9575648991154548  0.562769052593645  1.0000
  H   H721      1.0  0.8174565892854585  0.9326890892987841  0.5541251054554466  1.0000
  H   H722      1.0  0.8103079438707228  0.9620166674470944  0.5187890168881921  1.0000
  H   H723      1.0  0.8381543555009369  0.9873391429035202  0.5278172181844014  1.0000
  H   H724      1.0  0.8006864988033684  0.001018117857773948  0.5202431151670376  1.0000
  N   N40       1.0  0.9263311740771383  0.3710579574188002  0.009005387789957187  1.0000
  C   C541      1.0  0.9072482504874222  0.37744145179255373  0.9889515376971424  1.0000
  C   C542      1.0  0.92719958519722  0.33879807022978997  0.013648332599461632  1.0000
  C   C543      1.0  0.9134440249691514  0.38740208436195595  0.02860224718899862  1.0000
  C   C544      1.0  0.9573870426727229  0.38056854634270754  0.004790032465313843  1.0000
  H   H725      1.0  0.9066434942705339  0.40149885623383047  0.9846346405998531  1.0000
  H   H726      1.0  0.8834961853842305  0.3711160271465529  0.9917164018388915  1.0000
  H   H727      1.0  0.91596523104379  0.36487257330320666  0.9739938724569128  1.0000
  H   H728      1.0  0.9379840487517123  0.325786588862722  0.9996464021820636  1.0000
  H   H729      1.0  0.9400541971478371  0.333286340022727  0.029346796114731122  1.0000
  H   H730      1.0  0.9039785506859792  0.3306470984933872  0.015782959637143934  1.0000
  H   H731      1.0  0.9278137856716215  0.38396204009524926  0.043885300678162986  1.0000
  H   H732      1.0  0.8904060564620587  0.38003038913413156  0.03275061628178855  1.0000
  H   H733      1.0  0.9114475745751928  0.41174452298713726  0.025438196884017605  1.0000
  H   H734      1.0  0.972494243709997  0.37572403689785994  0.019473480453700454  1.0000
  H   H735      1.0  0.9575460587427748  0.4048987508631478  0.001558610958450446  1.0000
  H   H736      1.0  0.9675502619281137  0.36897856743042695  0.9898511929592575  1.0000
  N   N41       1.0  0.4372811444851382  0.48782778906346635  0.8634324627632277  1.0000
  C   C545      1.0  0.45774456671961233  0.4648626276451927  0.8738515120615945  1.0000
  C   C546      1.0  0.448331443120618  0.49473254461869853  0.8406606148224053  1.0000
  C   C547      1.0  0.43670089183980704  0.5149541679310745  0.8774722575529846  1.0000
  C   C548      1.0  0.4063792606749946  0.4766895127623377  0.8617718708323572  1.0000
  H   H737      1.0  0.4499758176530019  0.4587316571688438  0.8909736832084031  1.0000
  H   H738      1.0  0.48134523546981317  0.4723193424920993  0.875335974614105  1.0000
  H   H739      1.0  0.4587028530490629  0.44412094900415183  0.8637261316794383  1.0000
  H   H740      1.0  0.4338647616759538  0.5124032606318794  0.8323767681427566  1.0000
  H   H741      1.0  0.47199267038317927  0.5023020247730835  0.8411009184291237  1.0000
  H   H742      1.0  0.44848235517219986  0.4748582997321705  0.8294966287255672  1.0000
  H   H743      1.0  0.4597087603220969  0.5238960937915088  0.8790490239528815  1.0000
  H   H744      1.0  0.4285071816732445  0.5103961699633994  0.8947779188172181  1.0000
  H   H745      1.0  0.4214370697097341  0.5327866714844285  0.8701494869838307  1.0000
  H   H746      1.0  0.3975435020288446  0.4705344675565344  0.8785854977120503  1.0000
  H   H747      1.0  0.40599043618406244  0.45647985605750563  0.8509963520279691  1.0000
  H   H748      1.0  0.3901287929426387  0.49354685971804746  0.8543227513142987  1.0000
  N   N42       1.0  0.6660386721353264  0.5100894468524576  0.631445703293407  1.0000
  C   C549      1.0  0.6687532753730598  0.4977039275266975  0.6084486160277326  1.0000
  C   C550      1.0  0.6349088318093548  0.5226459276489205  0.6349081676125183  1.0000
  C   C551      1.0  0.6877803966190011  0.533799709091202  0.6343417042935935  1.0000
  C   C552      1.0  0.672716847722841  0.48625757500490635  0.6480454284508264  1.0000
  H   H749      1.0  0.6644111507422715  0.5152066600224832  0.5954714146315602  1.0000
  H   H750      1.0  0.6524881769793396  0.47991662513480765  0.605574758210696  1.0000
  H   H751      1.0  0.6918662719715303  0.48763311929969905  0.6054016635424085  1.0000
  H   H752      1.0  0.6322183441923441  0.5324502241474793  0.6520320055974097  1.0000
  H   H753      1.0  0.6290890557613625  0.5405049059256436  0.6224707798222988  1.0000
  H   H754      1.0  0.6178864632936236  0.505291737053442  0.6331844947240236  1.0000
  H   H755      1.0  0.6835385828425198  0.5520371145918721  0.6219448856261989  1.0000
  H   H756      1.0  0.7114628808501704  0.5250851609589983  0.6318800657499208  1.0000
  H   H757      1.0  0.6863773988822208  0.5437616102256618  0.6514655632396192  1.0000
  H   H758      1.0  0.6708214471322393  0.49474601118556794  0.6656018001880405  1.0000
  H   H759      1.0  0.696048662754162  0.47632486523388207  0.6459324096691014  1.0000
  H   H760      1.0  0.656905082479183  0.46785662524418437  0.6461801781302221  1.0000
  N   N43       1.0  0.23859884439352616  0.5172396180070483  0.14163156751823802  1.0000
  C   C553      1.0  0.23801950507806033  0.48445296127891585  0.14181371523202357  1.0000
  C   C554      1.0  0.25628401593652395  0.5273892361664247  0.16113468702610545  1.0000
  C   C555      1.0  0.20731514808771828  0.5302121076933367  0.14295987914024488  1.0000
  C   C556      1.0  0.2527583676674345  0.5270134188529763  0.12057454531485878  1.0000
  H   H761      1.0  0.26123465296247217  0.4738274565704828  0.1411667627421691  1.0000
  H   H762      1.0  0.22532482394914874  0.47600144471706374  0.12708655770392108  1.0000
  H   H763      1.0  0.22690543696958365  0.47621349104431215  0.15722865203502323  1.0000
  H   H764      1.0  0.25789858310575564  0.552000477168011  0.16111249360487268  1.0000
  H   H765      1.0  0.24549745606520681  0.5214673626527234  0.17732559107262924  1.0000
  H   H766      1.0  0.27977887835030263  0.5173977666337264  0.16111918987826934  1.0000
  H   H767      1.0  0.2070349350306473  0.5549362385160814  0.1427917416992468  1.0000
  H   H768      1.0  0.1959600589602652  0.5236188788187521  0.15874875282999512  1.0000
  H   H769      1.0  0.19316923318922488  0.5229657690917967  0.12859358402731802  1.0000
  H   H770      1.0  0.2534777469648125  0.5516882778236682  0.11988071104672593  1.0000
  H   H771      1.0  0.23988176986581877  0.5197373826072612  0.10553744941962839  1.0000
  H   H772      1.0  0.27642084864958905  0.5176695594912849  0.11899164621041969  1.0000
  N   N44       1.0  0.9025914251172523  0.3134975082630998  0.8464311756738413  1.0000
  C   C557      1.0  0.9161807694977534  0.29290130347506643  0.8633949242689798  1.0000
  C   C558      1.0  0.9203605922731112  0.34045009982479135  0.8455321260324329  1.0000
  C   C559      1.0  0.8709906877838964  0.3218422510567441  0.8527195942564404  1.0000
  C   C560      1.0  0.9028783696293603  0.2989353015280047  0.8241168292928834  1.0000
  H   H773      1.0  0.902502127242104  0.2730580465621903  0.8655113936441653  1.0000
  H   H774      1.0  0.9176203055233342  0.303710348776595  0.8801908354673749  1.0000
  H   H775      1.0  0.93942635818197  0.2848329208278737  0.8585216136735909  1.0000
  H   H776      1.0  0.9103162983800109  0.3570875404074074  0.8334985019299939  1.0000
  H   H777      1.0  0.921100351433566  0.3514525018856957  0.8622958215987243  1.0000
  H   H778      1.0  0.9441683863390352  0.33520624378509584  0.8403734829806822  1.0000
  H   H779      1.0  0.8569314333154573  0.30204104558495254  0.8539432141762946  1.0000
  H   H780      1.0  0.8599845566159441  0.3372092792806498  0.8401807604170864  1.0000
  H   H781      1.0  0.8698998466587899  0.33331062239763376  0.8692822515789022  1.0000
  H   H782      1.0  0.8926473438551387  0.31393810938511657  0.8109784420139992  1.0000
  H   H783      1.0  0.8897483714926802  0.2784739564717984  0.8242732931074961  1.0000
  H   H784      1.0  0.926340982231562  0.29212881875827257  0.8188347687422912  1.0000
  N   N45       1.0  0.3490123149462314  0.3154470342514591  0.9157200574642875  1.0000
  C   C561      1.0  0.36793727433693035  0.28856986123616013  0.9100735114640379  1.0000
  C   C562      1.0  0.33370461948236096  0.31088596849043604  0.9374429663039062  1.0000
  C   C563      1.0  0.3259818753288077  0.3210284504578057  0.8979197031461308  1.0000
  C   C564      1.0  0.3684156657074754  0.3412480580407633  0.9174365477456266  1.0000
  H   H785      1.0  0.3805147512320854  0.2914553238853981  0.894106080892008  1.0000
  H   H786      1.0  0.35391629704308436  0.26885838367101095  0.907727972802769  1.0000
  H   H787      1.0  0.3849921799591121  0.2831942876577668  0.9234472748190911  1.0000
  H   H788      1.0  0.31908128638219574  0.33060653236630866  0.9422567260371377  1.0000
  H   H789      1.0  0.3187034761264394  0.29169644447783316  0.9366132112883317  1.0000
  H   H790      1.0  0.3503028637337071  0.30668854768961457  0.9513325401745926  1.0000
  H   H791      1.0  0.31107169208380553  0.34095505778117324  0.9017933586793171  1.0000
  H   H792      1.0  0.311172887722639  0.30186054902366605  0.8959722266279013  1.0000
  H   H793      1.0  0.33665579405552015  0.32475082445252373  0.8812951511126369  1.0000
  H   H794      1.0  0.3549078814294428  0.3619369814077624  0.9216591677740814  1.0000
  H   H795      1.0  0.3802279374138304  0.34530993052997805  0.9012719082816931  1.0000
  H   H796      1.0  0.38614214888677634  0.33791563108669087  0.9306585150831349  1.0000
  N   N46       1.0  0.9866630310697433  0.8834105502538513  0.20989733947955858  1.0000
  C   C565      1.0  0.9925783819227126  0.8588003869540948  0.1938158240146087  1.0000
  C   C566      1.0  0.9910736495959654  0.9120707478739207  0.1986195894050811  1.0000
  C   C567      1.0  0.007926754502720179  0.8800345366528256  0.2290429279659284  1.0000
  C   C568      1.0  0.9551351483722915  0.8827175479521827  0.21806777160929294  1.0000
  H   H797      1.0  0.016564865840408283  0.8577315097092327  0.1881783712689632  1.0000
  H   H798      1.0  0.978169373153054  0.8616406416371613  0.17859514344660024  1.0000
  H   H799      1.0  0.9877611050485238  0.8369121707538081  0.20133261722026569  1.0000
  H   H800      1.0  0.9866648967166655  0.9311176698487461  0.21027835251919372  1.0000
  H   H801      1.0  0.014602717124573283  0.9134884996988369  0.1922461341029034  1.0000
  H   H802      1.0  0.9753843575078861  0.9152922327065055  0.18402893273854082  1.0000
  H   H803      1.0  0.0034427113463002534  0.897635573284177  0.2419498421582601  1.0000
  H   H804      1.0  0.0318533171704265  0.881519620935182  0.22346615474392115  1.0000
  H   H805      1.0  0.005908464231242139  0.8581281485719957  0.23730097648319642  1.0000
  H   H806      1.0  0.9500779088451948  0.9006307883459519  0.2305760506120652  1.0000
  H   H807      1.0  0.9506625538780453  0.8611715387887054  0.22626538245360497  1.0000
  H   H808      1.0  0.9385529967644355  0.8860911567846512  0.2040512013732412  1.0000
  N   N47       1.0  0.23313779345505597  0.7393768930354081  0.24086249730847  1.0000
  C   C569      1.0  0.2545949912064338  0.7587341441041237  0.229667571984819  1.0000
  C   C570      1.0  0.22979746073903995  0.7120826020171007  0.2273836415622164  1.0000
  C   C571      1.0  0.20336316760672976  0.755444527009722  0.24295454546439163  1.0000
  C   C572      1.0  0.24474473202647026  0.7313456930890588  0.26350543086987  1.0000
  H   H809      1.0  0.27719227656626944  0.7472298319450476  0.22739657158108978  1.0000
  H   H810      1.0  0.25780515715087887  0.7793547562957818  0.23962202861211024  1.0000
  H   H811      1.0  0.2460948979494913  0.7659611931024657  0.2127735331776995  1.0000
  H   H812      1.0  0.21328767649640823  0.6973198187648147  0.23519542892368012  1.0000
  H   H813      1.0  0.2216590742617748  0.7173200271373739  0.210017655003109  1.0000
  H   H814      1.0  0.251672216088676  0.6989055154794418  0.22599114168585077  1.0000
  H   H815      1.0  0.1865233263441808  0.74164906619252  0.25132285902807644  1.0000
  H   H816      1.0  0.19412486846185384  0.7624118864855443  0.22622432525657613  1.0000
  H   H817      1.0  0.20511547486822648  0.7760141107926987  0.2532250645885984  1.0000
  H   H818      1.0  0.2293595819036134  0.7163350543651827  0.2721983966034156  1.0000
  H   H819      1.0  0.24676434764932162  0.7513749569376358  0.2743531536630253  1.0000
  H   H820      1.0  0.26732575686079085  0.7193909331573137  0.2626512137236974  1.0000
  N   N48       1.0  0.777597154260744  0.24049558548035052  0.7917764894376706  1.0000
  C   C573      1.0  0.7945195404801563  0.26689553550857964  0.7858520504504132  1.0000
  C   C574      1.0  0.7936788436907187  0.21347571716211136  0.7829433469196071  1.0000
  C   C575      1.0  0.7468855682113111  0.24317974033542475  0.781833956225849  1.0000
  C   C576      1.0  0.7752500037576354  0.2384470515311278  0.8165225730243468  1.0000
  H   H821      1.0  0.7827470420887344  0.2876330408672727  0.7920970794456862  1.0000
  H   H822      1.0  0.797068543972186  0.2691817606338639  0.7673279145869496  1.0000
  H   H823      1.0  0.817639757503848  0.26589344614147914  0.7934332113501839  1.0000
  H   H824      1.0  0.7814423964305715  0.19315796909965985  0.7872140995177689  1.0000
  H   H825      1.0  0.7959317645768403  0.21420557862450715  0.7643292537208033  1.0000
  H   H826      1.0  0.8168453277262401  0.2105091792195391  0.7903131320756378  1.0000
  H   H827      1.0  0.7476845498418775  0.2452116362161268  0.7631996207158716  1.0000
  H   H828      1.0  0.7338739494527448  0.26301106327261925  0.7884826276480016  1.0000
  H   H829      1.0  0.7337075218134076  0.22335134890913258  0.7857575694050499  1.0000
  H   H830      1.0  0.7617731198595695  0.2193152918583541  0.8216271405188018  1.0000
  H   H831      1.0  0.7640931282361961  0.25885159461068735  0.8238513698505219  1.0000
  H   H832      1.0  0.7979283895054217  0.23525590457808584  0.8245881468103591  1.0000
  N   N49       1.0  0.4713475483654864  0.25289262407626334  0.7970032188803057  1.0000
  C   C577      1.0  0.45588803551338714  0.2576471277890203  0.8188101525122697  1.0000
  C   C578      1.0  0.4858521177428719  0.22268018700657624  0.7963036332133537  1.0000
  C   C579      1.0  0.49461736134008444  0.27517551082832115  0.7942833731506493  1.0000
  C   C580      1.0  0.44898474858121395  0.25610998871541735  0.7785412096682403  1.0000
  H   H833      1.0  0.4382790327580591  0.2411148994728685  0.8215160472215651  1.0000
  H   H834      1.0  0.4443935432328329  0.2801010038592916  0.8197454488311545  1.0000
  H   H835      1.0  0.47218555489054875  0.25569852033452256  0.833094459345322  1.0000
  H   H836      1.0  0.4967887444114822  0.2179311774267815  0.779754882056111  1.0000
  H   H837      1.0  0.5036788916039188  0.21976799172682135  0.809478599607385  1.0000
  H   H838      1.0  0.46902549426972207  0.2053712780780041  0.7990837365742167  1.0000
  H   H839      1.0  0.4842443864453543  0.29819966732152964  0.7944954061417224  1.0000
  H   H840      1.0  0.5068655941857731  0.27209079021057814  0.7780556148884042  1.0000
  H   H841      1.0  0.511771185927595  0.27361926363791456  0.8080715982988556  1.0000
  H   H842      1.0  0.45987650262774576  0.2522926544774567  0.7618862518855536  1.0000
  H   H843      1.0  0.4380804969155414  0.2787763290933142  0.7781614481874933  1.0000
  H   H844      1.0  0.43061751463059794  0.24014275525048767  0.7803269155193298  1.0000
  N   N50       1.0  0.8629621420725779  0.28551456826645927  0.12973776251501384  1.0000
  C   C581      1.0  0.8392222959527113  0.2658588032731154  0.12177119991714414  1.0000
  C   C582      1.0  0.8537305035282362  0.3168249310378991  0.124855828267976  1.0000
  C   C583      1.0  0.8915756505656582  0.27772882566307855  0.11796732891320949  1.0000
  C   C584      1.0  0.8675272644449084  0.2815254777820252  0.15420748613602536  1.0000
  H   H845      1.0  0.834391001182615  0.2692459691045602  0.10353307435964965  1.0000
  H   H846      1.0  0.8175612715157445  0.27013727747978233  0.13094294597086018  1.0000
  H   H847      1.0  0.8462728311279927  0.24193116275917007  0.12404531282655987  1.0000
  H   H848      1.0  0.8714861783427065  0.3322163928678852  0.13017381042932594  1.0000
  H   H849      1.0  0.8500148478282213  0.320387574063592  0.1064588822552559  1.0000
  H   H850      1.0  0.8323048667728176  0.32371182997943226  0.13357001309080277  1.0000
  H   H851      1.0  0.8992914178622735  0.2542073315835596  0.12107317960057155  1.0000
  H   H852      1.0  0.910097045064897  0.2920702378291045  0.12344725032864806  1.0000
  H   H853      1.0  0.8887196058577241  0.28054478552049605  0.09950954592438754  1.0000
  H   H854      1.0  0.8854651490152962  0.2959154509112368  0.16069733767278582  1.0000
  H   H855      1.0  0.8745946351497287  0.2580514233504842  0.15825554058424024  1.0000
  H   H856      1.0  0.8463707342142568  0.2871915484248014  0.16369221487405827  1.0000
  N   N51       1.0  0.041865310270812195  0.5823847517108772  0.09363441852864374  1.0000
  C   C585      1.0  0.04189283700394042  0.6140288038242139  0.10032117263839235  1.0000
  C   C586      1.0  0.021320187036853566  0.579007090279902  0.07419795280375241  1.0000
  C   C587      1.0  0.031358167387337765  0.5643873585021063  0.11260909780984996  1.0000
  C   C588      1.0  0.0729206340475701  0.5720335965299025  0.08735436077818948  1.0000
  H   H857      1.0  0.05703819452432568  0.617499751777773  0.11498495542785014  1.0000
  H   H858      1.0  0.018900942681572053  0.622730860533811  0.10513130365860035  1.0000
  H   H859      1.0  0.04993723754101498  0.62824915631776  0.08649305168037147  1.0000
  H   H860      1.0  0.9975690005555686  0.5858266471691096  0.07857488037529903  1.0000
  H   H861      1.0  0.028111825129821577  0.5927196078389613  0.05968927780489919  1.0000
  H   H862      1.0  0.021308840430308562  0.555478551982763  0.06842568246187497  1.0000
  H   H863      1.0  0.03016695707539352  0.5405596777440211  0.10780359247115423  1.0000
  H   H864      1.0  0.00847026582067123  0.5722662388708791  0.11843906996978548  1.0000
  H   H865      1.0  0.04708439090906191  0.5651765188461256  0.12719645231090948  1.0000
  H   H866      1.0  0.0892240341250714  0.5756900770618312  0.10131356624305066  1.0000
  H   H867      1.0  0.08106471922265301  0.5840543775888075  0.07239718900704162  1.0000
  H   H868      1.0  0.07413431316805985  0.5477776006526244  0.08348501763468152  1.0000
  N   N52       1.0  0.5660588081166594  0.6209927241000074  0.5013732893952453  1.0000
  C   C589      1.0  0.5764584548741154  0.648956646851004  0.5112058777142651  1.0000
  C   C590      1.0  0.5575938796522514  0.625925207009913  0.4775166524463627  1.0000
  C   C591      1.0  0.5394979427866415  0.6113301231117066  0.5140203956357963  1.0000
  C   C592      1.0  0.5907231875193063  0.5977426058360414  0.5027691744229569  1.0000
  H   H869      1.0  0.5831881321615708  0.6460410174430997  0.5291656977433051  1.0000
  H   H870      1.0  0.5583185575411335  0.6669117077456655  0.5105505370529619  1.0000
  H   H871      1.0  0.5964478101506524  0.6569625281665769  0.5020388809398263  1.0000
  H   H872      1.0  0.5502956528665348  0.6051508050181172  0.46935189662259  1.0000
  H   H873      1.0  0.538514460366248  0.6427343353260625  0.47577042382307894  1.0000
  H   H874      1.0  0.5770483480321711  0.6338538817359508  0.46762181164586564  1.0000
  H   H875      1.0  0.5452026492671742  0.6071296466562551  0.5320323247583985  1.0000
  H   H876      1.0  0.5306358773400673  0.5905853842027238  0.5068453979851986  1.0000
  H   H877      1.0  0.5206506613640388  0.628573209930304  0.5136959717765659  1.0000
  H   H878      1.0  0.6108101359310223  0.6039054040508554  0.4928480270236363  1.0000
  H   H879      1.0  0.5834429813197368  0.5761585957082795  0.49597159825819526  1.0000
  H   H880      1.0  0.5984638104695227  0.5940854631950169  0.5204368063915653  1.0000
  N   N53       1.0  0.7659011817410476  0.30831604144547714  0.9251745667191534  1.0000
  C   C593      1.0  0.7949605022498276  0.3231520058101779  0.9272799214122603  1.0000
  C   C594      1.0  0.7550369826856639  0.30051436208421894  0.947784849104296  1.0000
  C   C595      1.0  0.7702150245364509  0.2810224860688147  0.9114645338907786  1.0000
  C   C596      1.0  0.7433725515870155  0.3286661681329185  0.9140878440139908  1.0000
  H   H881      1.0  0.8043315931520858  0.32845918917607  0.9104495080525407  1.0000
  H   H882      1.0  0.8123810317644786  0.3088539695683625  0.9361470725143047  1.0000
  H   H883      1.0  0.7922976653218495  0.34456085975232337  0.9365986585002699  1.0000
  H   H884      1.0  0.7331252127510232  0.28932432857758034  0.9468064776506091  1.0000
  H   H885      1.0  0.7716454898851627  0.2851185750149516  0.9565394966558115  1.0000
  H   H886      1.0  0.751621759879417  0.320644210305644  0.9585398006712312  1.0000
  H   H887      1.0  0.748593108716436  0.26966693171688577  0.9089746149099379  1.0000
  H   H888      1.0  0.7868917128470239  0.2649446620514184  0.9193938795214539  1.0000
  H   H889      1.0  0.7789882081887167  0.286085408368735  0.8944183948627967  1.0000
  H   H890      1.0  0.7211844879458408  0.31827646173610924  0.9118780002655029  1.0000
  H   H891      1.0  0.7513307007445132  0.33492546710210763  0.8971392057012612  1.0000
  H   H892      1.0  0.739697402145489  0.34974040233740505  0.9237261268371173  1.0000
  N   N54       1.0  0.27214284955169166  0.017079252098692432  0.39989062460140906  1.0000
  C   C597      1.0  0.2986324177622142  0.01932729836155067  0.41498574084340767  1.0000
  C   C598      1.0  0.28018742937522373  0.02685599882983691  0.37702729163915877  1.0000
  C   C599      1.0  0.24656736796105472  0.03611440219580597  0.4084531118873324  1.0000
  C   C600      1.0  0.2631142466105872  0.985924109097913  0.3990341802077144  1.0000
  H   H893      1.0  0.30611229439863974  0.04254310664251637  0.4160562405709434  1.0000
  H   H894      1.0  0.3183340935782818  0.005253613088863407  0.4088568929442507  1.0000
  H   H895      1.0  0.2935052028326659  0.011823152183698225  0.432330718032453  1.0000
  H   H896      1.0  0.26080423227611205  0.025174169365575372  0.36511698387488983  1.0000
  H   H897      1.0  0.28713005184320434  0.05028208165386804  0.3769820401605723  1.0000
  H   H898      1.0  0.299446530993321  0.012933098525161224  0.37006072417492786  1.0000
  H   H899      1.0  0.2399119626879186  0.029319422953575813  0.42567886307192954  1.0000
  H   H900      1.0  0.22617960347951113  0.03461186170952212  0.39745972813735564  1.0000
  H   H901      1.0  0.2524329397640283  0.0598630884786215  0.40921756596703973  1.0000
  H   H902      1.0  0.24353409152020897  0.9833628553198782  0.3874626228093253  1.0000
  H   H903      1.0  0.2562573204940235  0.9778055358025277  0.4158467986148026  1.0000
  H   H904      1.0  0.2819908983765503  0.9708404658625422  0.3929756081513899  1.0000
  N   N55       1.0  0.6529955476285397  0.7840607336507815  0.6068717223386453  1.0000
  C   C601      1.0  0.6593111135200256  0.7516867042083276  0.6046436283075702  1.0000
  C   C602      1.0  0.6585124136608863  0.7986161751466296  0.5851131920153372  1.0000
  C   C603      1.0  0.6730775042391519  0.7960685644123128  0.6242771531403477  1.0000
  C   C604      1.0  0.6210577089763089  0.7899468966748617  0.6134755441360018  1.0000
  H   H905      1.0  0.6561617239727875  0.7401447473309261  0.6209221584434096  1.0000
  H   H906      1.0  0.6830081246375889  0.7465050855399661  0.5991106296773052  1.0000
  H   H907      1.0  0.6438308245949241  0.7416545455204092  0.5922128516754164  1.0000
  H   H908      1.0  0.6826235321479879  0.7954901757457916  0.5798959262384881  1.0000
  H   H909      1.0  0.644318088290384  0.789510266977805  0.5714651475562221  1.0000
  H   H910      1.0  0.6530947469465105  0.8229244553466946  0.5861194681662614  1.0000
  H   H911      1.0  0.6689192317057914  0.8204652670286436  0.6263848713599413  1.0000
  H   H912      1.0  0.6973237470149607  0.7921495679919014  0.6198099872827468  1.0000
  H   H913      1.0  0.6694910886207026  0.7855308209834894  0.6409078580415194  1.0000
  H   H914      1.0  0.6156418162154446  0.8141524593034121  0.615714652421938  1.0000
  H   H915      1.0  0.6158646095958485  0.7787742639639342  0.6296073580012629  1.0000
  H   H916      1.0  0.6052116671347043  0.7816244960740525  0.6005546378118235  1.0000
  N   N56       1.0  0.48460312102083514  0.8754156034862854  0.55597877512901  1.0000
  C   C605      1.0  0.5022131326644984  0.8614306131131002  0.5746566203188886  1.0000
  C   C606      1.0  0.45305535449982315  0.8819325280584396  0.5633014483678089  1.0000
  C   C607      1.0  0.4846099552150221  0.8549882076528441  0.5364546770374805  1.0000
  C   C608      1.0  0.4984896276487142  0.9033337496336716  0.549503161460142  1.0000
  H   H917      1.0  0.5265670291483318  0.8579162354765515  0.5703136250358724  1.0000
  H   H918      1.0  0.4936711256793894  0.8393251204608599  0.5788933000257741  1.0000
  H   H919      1.0  0.5008128499833564  0.8753295183786717  0.5902109527365158  1.0000
  H   H920      1.0  0.43923845530452843  0.8930445765299893  0.5497925555432375  1.0000
  H   H921      1.0  0.44177803274535377  0.8612482383629989  0.567997215533874  1.0000
  H   H922      1.0  0.4520516611520511  0.897058993707537  0.5781845175703869  1.0000
  H   H923      1.0  0.5079764238013815  0.849605410137909  0.5303369068248738  1.0000
  H   H924      1.0  0.4713319741246252  0.8648224835056246  0.522082185638786  1.0000
  H   H925      1.0  0.4741990716940854  0.8336709467335796  0.5407916787839435  1.0000
  H   H926      1.0  0.48681937595215335  0.9135777752973593  0.5346713992010449  1.0000
  H   H927      1.0  0.5227398977930233  0.8994919748499491  0.5450756699250057  1.0000
  H   H928      1.0  0.49708730454384165  0.9199564885481053  0.5634006569338873  1.0000
  N   N57       1.0  0.43087276612050146  0.3840239238639987  0.7118395013731189  1.0000
  C   C609      1.0  0.43569967131126064  0.3795239450324951  0.7362359617712217  1.0000
  C   C610      1.0  0.40578817368298364  0.40634322124052635  0.7081472313688967  1.0000
  C   C611      1.0  0.4229830672600599  0.3556132150474274  0.701387766896748  1.0000
  C   C612      1.0  0.4588861016076774  0.3945160583704356  0.7015721251221437  1.0000
  H   H929      1.0  0.44227439466738006  0.4002772868776176  0.7447315616687494  1.0000
  H   H930      1.0  0.4539254434548162  0.36221451799068716  0.7396207919168348  1.0000
  H   H931      1.0  0.4147851756158745  0.37220597653541915  0.7445712470703683  1.0000
  H   H932      1.0  0.40169503674133056  0.4103322784793086  0.6898747929089678  1.0000
  H   H933      1.0  0.38429172145255996  0.39920752703491086  0.7156768968470082  1.0000
  H   H934      1.0  0.41094284015031074  0.42811104557954066  0.7157055498329226  1.0000
  H   H935      1.0  0.44152377676450294  0.3382555689969171  0.7035538816535959  1.0000
  H   H936      1.0  0.4188820086261332  0.3581391574669585  0.682986580641396  1.0000
  H   H937      1.0  0.4021817332506534  0.3468200589918455  0.7088952789858597  1.0000
  H   H938      1.0  0.4552508623066564  0.40053998977158173  0.6835911789210823  1.0000
  H   H939      1.0  0.477689150551878  0.3772284311945109  0.7022563265317235  1.0000
  H   H940      1.0  0.4666873418270268  0.41476863059242924  0.7101811568462562  1.0000
  N   N58       1.0  0.07981056789031492  0.2405998559142295  0.08904702430320888  1.0000
  C   C613      1.0  0.09530083541524076  0.21127981894556958  0.0850522878050457  1.0000
  C   C614      1.0  0.04955004081733817  0.24152646272685097  0.07830380450444685  1.0000
  C   C615      1.0  0.09804382204854478  0.26411043761840025  0.0793731894099583  1.0000
  C   C616      1.0  0.07632524831365166  0.24545005285268728  0.11352549102512532  1.0000
  H   H941      1.0  0.09638984249949666  0.2057893273303355  0.06680464644105855  1.0000
  H   H942      1.0  0.083513198611063  0.19322766864185192  0.09368637946704794  1.0000
  H   H943      1.0  0.11895524133655615  0.2106002963607787  0.0915778664955198  1.0000
  H   H944      1.0  0.03735667190843173  0.2634331692447096  0.08081312391970319  1.0000
  H   H945      1.0  0.051069883893003494  0.23749770993779817  0.05983225737056874  1.0000
  H   H946      1.0  0.035130312149530794  0.22429186061593076  0.08543445674346883  1.0000
  H   H947      1.0  0.08736288830807881  0.2866288373279475  0.08234350992125283  1.0000
  H   H948      1.0  0.10097327728793053  0.2611461841597602  0.06091010850008205  1.0000
  H   H949      1.0  0.12106018900822178  0.26390820623768474  0.08706643733366448  1.0000
  H   H950      1.0  0.06584224190268552  0.26781652138709666  0.11729390458853817  1.0000
  H   H951      1.0  0.098587922062651  0.24388556110365722  0.12230453888733117  1.0000
  H   H952      1.0  0.06199587542849882  0.2285131635154758  0.12122697349627032  1.0000
  N   N59       1.0  0.3637648538581085  0.8596668366318206  0.39699574596160314  1.0000
  C   C617      1.0  0.3669557649483131  0.8271449806155987  0.39414756872470796  1.0000
  C   C618      1.0  0.3915055615603323  0.8708119874426794  0.4074393228798629  1.0000
  C   C619      1.0  0.3374554697050655  0.8670770076001338  0.4115663606091452  1.0000
  C   C620      1.0  0.3589973853923601  0.8735608203026483  0.37472556497309417  1.0000
  H   H953      1.0  0.37018172314241743  0.8157490029680617  0.410618336332088  1.0000
  H   H954      1.0  0.386706967301599  0.8207356294128582  0.383320941588521  1.0000
  H   H955      1.0  0.34650739272832864  0.8181697612066889  0.38606591613185326  1.0000
  H   H956      1.0  0.3960205005994799  0.8605879228860619  0.4242250285225032  1.0000
  H   H957      1.0  0.41186648903979756  0.8658646687894705  0.39682098658717685  1.0000
  H   H958      1.0  0.3896808295646878  0.8953405970044078  0.40979597147278846  1.0000
  H   H959      1.0  0.33414388462166283  0.8915507268310672  0.41389095971042533  1.0000
  H   H960      1.0  0.34048382126421356  0.8569585241638515  0.42854699595067736  1.0000
  H   H961      1.0  0.3162047752962454  0.8587588808119531  0.404186305797049  1.0000
  H   H962      1.0  0.35363600994115635  0.8977477906463565  0.3763542621974168  1.0000
  H   H963      1.0  0.3398063979436656  0.8639276562355367  0.36557792749466533  1.0000
  H   H964      1.0  0.37942531923757883  0.8704342855640803  0.36390783043497965  1.0000
  N   N60       1.0  0.5520617311895045  0.6086762879788237  0.6447021138141728  1.0000
  C   C621      1.0  0.5245139218296482  0.6056073572243708  0.6583071244603211  1.0000
  C   C622      1.0  0.5448297330096207  0.6040827857825293  0.6206789836937083  1.0000
  C   C623      1.0  0.5756107534360725  0.5862360839768946  0.6518005522569422  1.0000
  C   C624      1.0  0.5632173581296451  0.6387943291903414  0.6479836050508969  1.0000
  H   H965      1.0  0.5294097718413081  0.6070910892095756  0.6766388057651301  1.0000
  H   H966      1.0  0.5143796250197652  0.583890976549873  0.655151006878361  1.0000
  H   H967      1.0  0.506955147000425  0.6232837117470557  0.6541610286083683  1.0000
  H   H968      1.0  0.5271319181407008  0.6205712057617283  0.6147085370255246  1.0000
  H   H969      1.0  0.565151356894253  0.6061693935742996  0.6099122275117199  1.0000
  H   H970      1.0  0.536079721967707  0.5815941484878643  0.6176414047212323  1.0000
  H   H971      1.0  0.5816112132960846  0.5887367783089198  0.669899173506018  1.0000
  H   H972      1.0  0.5967500641718901  0.5880904681444677  0.6418309348262461  1.0000
  H   H973      1.0  0.5677230069609464  0.5632705849647421  0.6495374385093331  1.0000
  H   H974      1.0  0.5843740361493245  0.6416132368320904  0.6384849302382246  1.0000
  H   H975      1.0  0.5681631418856471  0.6432975905903516  0.666004051805922  1.0000
  H   H976      1.0  0.5464101012229928  0.6562567866659162  0.6419980172667226  1.0000
  N   N61       1.0  0.18804507912157645  0.14316191526707014  0.014660708923600607  1.0000
  C   C625      1.0  0.18858559451923043  0.13733844759429967  0.9901714402431083  1.0000
  C   C626      1.0  0.21325178140107381  0.16215469250266976  0.020769901557687653  1.0000
  C   C627      1.0  0.19142462404453983  0.11474376076798724  0.026999511009089705  1.0000
  C   C628      1.0  0.15890923709981694  0.15848072133044339  0.020739322020741024  1.0000
  H   H977      1.0  0.16970767933024963  0.12336104399438169  0.9848401397500332  1.0000
  H   H978      1.0  0.21013876086020733  0.125673420318934  0.984835175198113  1.0000
  H   H979      1.0  0.18634976850299523  0.15834558612635175  0.9803726618988116  1.0000
  H   H980      1.0  0.23558415030551652  0.15126856221601992  0.016394751136409536  1.0000
  H   H981      1.0  0.21138571233146916  0.1838421171646869  0.0118241160970316  1.0000
  H   H982      1.0  0.2135752329118985  0.16690896896242424  0.039192459987693606  1.0000
  H   H983      1.0  0.21312262461216322  0.10252376497638557  0.022805583160786513  1.0000
  H   H984      1.0  0.17275268943812924  0.09987871217148776  0.022853929854716792  1.0000
  H   H985      1.0  0.19113350208113697  0.11839077628428768  0.0455481497114163  1.0000
  H   H986      1.0  0.15826521988255582  0.16411937170497887  0.03899533787485221  1.0000
  H   H987      1.0  0.139428721086223  0.14433711734186125  0.017031885314055417  1.0000
  H   H988      1.0  0.15512938311983177  0.17951879047171918  0.0111538908418376  1.0000
  N   N62       1.0  0.5967383684412544  0.30702984184163357  0.6138550258116305  1.0000
  C   C629      1.0  0.5734905260910932  0.3309778921597222  0.6094262109316693  1.0000
  C   C630      1.0  0.6037294096710127  0.3059629938722684  0.6381816561625554  1.0000
  C   C631      1.0  0.6245920050888867  0.3128887591070696  0.6012404163639511  1.0000
  C   C632      1.0  0.5852204273714563  0.27819838029024085  0.6066403143854159  1.0000
  H   H989      1.0  0.5689259093973814  0.33368021817082216  0.5911170569800759  1.0000
  H   H990      1.0  0.5805410333382764  0.35277803059969265  0.6160903848547243  1.0000
  H   H991      1.0  0.5515900339882531  0.3262022007246075  0.6175215927469542  1.0000
  H   H992      1.0  0.6206936155076654  0.2876419466079802  0.6421637237906104  1.0000
  H   H993      1.0  0.6132667844645909  0.327022948842657  0.6441923580668188  1.0000
  H   H994      1.0  0.5831769390573568  0.301974380214847  0.6482702614418687  1.0000
  H   H995      1.0  0.6423627769397906  0.2948966366079999  0.6039974114864879  1.0000
  H   H996      1.0  0.6344317911465812  0.3340410388756852  0.6068041661799818  1.0000
  H   H997      1.0  0.6202020533739298  0.31437531281036757  0.5828373145722557  1.0000
  H   H998      1.0  0.5788409200044131  0.27836590420357926  0.5885244122116791  1.0000
  H   H999      1.0  0.5648942875310462  0.2724829253394508  0.6165087372352865  1.0000
  H   H1000     1.0  0.602585953024601  0.2598096284326691  0.609239843896508  1.0000
  N   N63       1.0  0.6744061080231334  0.9654628638904099  0.6573009076677115  1.0000
  C   C633      1.0  0.7048645332185713  0.9504258671199768  0.656765807327766  1.0000
  C   C634      1.0  0.6517853947555104  0.9452418685881501  0.6484227349897974  1.0000
  C   C635      1.0  0.6742469354067617  0.992534005408838  0.6432756344273359  1.0000
  C   C636      1.0  0.6666387379780322  0.9737124698177864  0.6807305983526825  1.0000
  H   H1001     1.0  0.711094864529815  0.9429921005803993  0.6394671120195033  1.0000
  H   H1002     1.0  0.7060839174939311  0.9303488562781252  0.6676524573358013  1.0000
  H   H1003     1.0  0.7226564268667853  0.9654627059316072  0.6625934032573731  1.0000
  H   H1004     1.0  0.6285379521112101  0.955929604298603  0.6484862118446076  1.0000
  H   H1005     1.0  0.6569123010684463  0.9386382597051638  0.6307753599838591  1.0000
  H   H1006     1.0  0.6511681282756767  0.924445444046653  0.6584539747306449  1.0000
  H   H1007     1.0  0.6910960650845068  0.008342772342033511  0.6494774895729759  1.0000
  H   H1008     1.0  0.6516700319538009  0.004596970765380348  0.6435214429032982  1.0000
  H   H1009     1.0  0.679712213971179  0.9871775647523946  0.6254288420985941  1.0000
  H   H1010     1.0  0.6827055936144614  0.9897392266546805  0.6877527955910302  1.0000
  H   H1011     1.0  0.6670426422295865  0.9539528195233165  0.6919280490076634  1.0000
  H   H1012     1.0  0.6435524660738786  0.9846491250848071  0.6817695765464371  1.0000
  N   N64       1.0  0.5605817471360759  0.08021609681125687  0.6320283673916465  1.0000
  C   C637      1.0  0.5499523921688123  0.05318010096597425  0.6429939202344773  1.0000
  C   C638      1.0  0.5704857111880248  0.07296365225804803  0.6088484572420143  1.0000
  C   C639      1.0  0.586347968873962  0.0915675360139586  0.6448929311032827  1.0000
  C   C640      1.0  0.5355374084445983  0.10311531574820766  0.6313129226859068  1.0000
  H   H1013     1.0  0.5421152103366715  0.05777219680444368  0.6604821977996325  1.0000
  H   H1014     1.0  0.568228773490887  0.035333989632824414  0.6437597990880092  1.0000
  H   H1015     1.0  0.5306481869972736  0.04396158056730126  0.6335661495909574  1.0000
  H   H1016     1.0  0.5790407951952002  0.09280426154685038  0.6001519464548021  1.0000
  H   H1017     1.0  0.5890818322987613  0.055421407801023594  0.6087654395643938  1.0000
  H   H1018     1.0  0.5516033995792119  0.064380475310898  0.5985927323115554  1.0000
  H   H1019     1.0  0.5799783972934782  0.09685070739429241  0.6625868249197877  1.0000
  H   H1020     1.0  0.5947383172265409  0.11211009306890261  0.6371183955502516  1.0000
  H   H1021     1.0  0.6057884679945633  0.07494232332997623  0.6454452511917785  1.0000
  H   H1022     1.0  0.5425576198278117  0.12383308183434577  0.6230526509578491  1.0000
  H   H1023     1.0  0.5274945833235349  0.10918443236707827  0.6484984731809355  1.0000
  H   H1024     1.0  0.5157168959274125  0.09520593051582674  0.6217365616778698  1.0000
