data_image0
_chemical_formula_structural       FeS2FeS2FeSFeS3FeS2FeS2FeSFeS3FeS2FeS2FeSFeS3FeS2FeS2FeSFeS3FeS2FeS2FeSFeS3FeS2FeS2FeSFeS3FeS2FeS2FeSFeS3FeS2FeS2FeSFeS3C6H4C6H4C6H4C6H4C6H4C6H4C6H4C6H4C6H4C6H4C6H4C6H4C6H4C6H4C6H4C6H4NC4H12NC4H12NC4H12NC4H12NC4H12NC4H12NC4H12NC4H12NC4H12NC4H12NC4H12NC4H12NC4H12NC4H12NC4H12NC4H12
_chemical_formula_sum              "Fe32 S64 C160 H256 N16"
_cell_length_a       29.094890042850253
_cell_length_b       29.172028187702345
_cell_length_c       35.43652316392893
_cell_angle_alpha    90.20196700011157
_cell_angle_beta     89.6621303227653
_cell_angle_gamma    81.79187067459128

_space_group_name_H-M_alt    "P 1"
_space_group_IT_number       1

loop_
  _space_group_symop_operation_xyz
  'x, y, z'

loop_
  _atom_site_type_symbol
  _atom_site_label
  _atom_site_symmetry_multiplicity
  _atom_site_fract_x
  _atom_site_fract_y
  _atom_site_fract_z
  _atom_site_occupancy
  Fe  Fe1       1.0  0.050545736865489355  0.34590421092215135  0.667827323104473  1.0000
  S   S1        1.0  0.07834962828682927  0.3030489061710681  0.6177358582613435  1.0000
  S   S2        1.0  0.08550467157985223  0.408456570123919  0.6822502642088966  1.0000
  Fe  Fe2       1.0  0.9859199516046286  0.2762052725973821  0.6906851935087456  1.0000
  S   S3        1.0  0.00895278730180871  0.2280901589127799  0.642558999484022  1.0000
  S   S4        1.0  0.9313123537872561  0.26440513873439936  0.7340401252995069  1.0000
  Fe  Fe3       1.0  0.0806539159029444  0.24232318539404873  0.6567009712220747  1.0000
  S   S5        1.0  0.1433344035671304  0.18710691302049645  0.6534441631011102  1.0000
  Fe  Fe4       1.0  0.004531970868789648  0.29276419059445935  0.6078686050891688  1.0000
  S   S6        1.0  0.9669125065950669  0.2957283555316816  0.5521650288137466  1.0000
  S   S7        1.0  0.058316250348516396  0.28551953020027215  0.7077192702141385  1.0000
  S   S8        1.0  0.9760257350925902  0.3406086714200883  0.6550713298152911  1.0000
  Fe  Fe5       1.0  0.007077043231127127  0.6773009882028178  0.6706662281120276  1.0000
  S   S9        1.0  0.9820116045816126  0.7220954791935863  0.6213440006911426  1.0000
  S   S10       1.0  0.9735229436006757  0.6118683138067542  0.6739205031148845  1.0000
  Fe  Fe6       1.0  0.07119342974654709  0.7457314090133007  0.6974139683798141  1.0000
  S   S11       1.0  0.05260994429940258  0.7935358205281471  0.6487865554141806  1.0000
  S   S12       1.0  0.11503803913209493  0.7655913472488165  0.7460396762871306  1.0000
  Fe  Fe7       1.0  0.9794949866820952  0.7818809634360385  0.6615217057337149  1.0000
  S   S13       1.0  0.9266393038133461  0.8464180937674507  0.6612259229252733  1.0000
  Fe  Fe8       1.0  0.05691787142991032  0.7291001528640293  0.6133842918464235  1.0000
  S   S14       1.0  0.09309467349584889  0.7163564408544664  0.5569427210337062  1.0000
  S   S15       1.0  0.9974199845969371  0.7369246176622605  0.711855308314389  1.0000
  S   S16       1.0  0.08262301199141647  0.6814864100210433  0.6610115987090607  1.0000
  Fe  Fe9       1.0  0.012346243957434663  0.3554224573573481  0.2910068191913271  1.0000
  S   S17       1.0  0.9814006950848707  0.3173502018071073  0.3374876006091835  1.0000
  S   S18       1.0  0.9809102225507523  0.43010402581931056  0.2819341527020359  1.0000
  Fe  Fe10      1.0  0.07169387477523159  0.26741771640058093  0.2622319979991775  1.0000
  S   S19       1.0  0.044677209524371264  0.22237411249898753  0.30598702338293166  1.0000
  S   S20       1.0  0.12523990625160286  0.2432040122656019  0.2172408422343745  1.0000
  Fe  Fe11      1.0  0.9751188674434266  0.2631330665047581  0.2932944834733939  1.0000
  S   S21       1.0  0.907630100529617  0.23336368296268936  0.29213076328535087  1.0000
  Fe  Fe12      1.0  0.05317879532606648  0.2803700695263224  0.3461751402004085  1.0000
  S   S22       1.0  0.08888868074072777  0.266001401041319  0.40231633228932473  1.0000
  S   S23       1.0  0.0011185533943527393  0.3035778577917027  0.2461403256844998  1.0000
  S   S24       1.0  0.08541468760830771  0.32289283853272593  0.3031573972864079  1.0000
  Fe  Fe13      1.0  0.019440617620558088  0.7363061749162513  0.3497540288671978  1.0000
  S   S25       1.0  0.9939618949534129  0.6912785781897864  0.30509693948525574  1.0000
  S   S26       1.0  0.9793029103841414  0.7482697356788507  0.40460664747056274  1.0000
  Fe  Fe14      1.0  0.09626401044241484  0.7633874892769473  0.2987020719537513  1.0000
  S   S27       1.0  0.07731575630701959  0.7203751755974684  0.250342522150294  1.0000
  S   S28       1.0  0.1542686296117234  0.8071436359260652  0.29991952278386963  1.0000
  Fe  Fe15      1.0  0.0038386327098212103  0.7492059609873216  0.26563592331093483  1.0000
  S   S29       1.0  0.9541603053646794  0.7728169049498963  0.21876241672982696  1.0000
  Fe  Fe16      1.0  0.06948555885805639  0.6663124846981374  0.2941444479200873  1.0000
  S   S30       1.0  0.10539253392896109  0.5925929426723515  0.2879571472305913  1.0000
  S   S31       1.0  0.023380149429987784  0.7963334826536057  0.31099108131265524  1.0000
  S   S32       1.0  0.09435476014964225  0.7074044594451862  0.34170007768120986  1.0000
  Fe  Fe17      1.0  0.28113838684598963  0.05704312689327229  0.8068671478085715  1.0000
  S   S33       1.0  0.32061690927168784  0.012015734029538594  0.7624595855146522  1.0000
  S   S34       1.0  0.2556477018219145  0.13348349011786162  0.8027208747722236  1.0000
  Fe  Fe18      1.0  0.2778104496633652  0.9777690691154441  0.8612405031821311  1.0000
  S   S35       1.0  0.31529421149321574  0.9258736292455724  0.8206443252919496  1.0000
  S   S36       1.0  0.25809276070527115  0.9522019253910385  0.9185300813903631  1.0000
  Fe  Fe19      1.0  0.3630261897523463  0.9791002131151538  0.8109474935037754  1.0000
  S   S37       1.0  0.4397361347575341  0.9524997368710858  0.8197205627528854  1.0000
  Fe  Fe20      1.0  0.26982110396809567  0.9625517749142996  0.7762064230622785  1.0000
  S   S38       1.0  0.23526230723259728  0.9300926962432108  0.7276051488951314  1.0000
  S   S39       1.0  0.32775111882292185  0.028755684247674385  0.8541353696035826  1.0000
  S   S40       1.0  0.2278535224316642  0.009977686645956885  0.8175156550059135  1.0000
  Fe  Fe21      1.0  0.77634252388623  0.06733796790803515  0.7676035840096672  1.0000
  S   S41       1.0  0.8037862462648693  0.02806988606711055  0.8192200260693471  1.0000
  S   S42       1.0  0.8256853033210736  0.08888549775385576  0.7234313223563046  1.0000
  Fe  Fe22      1.0  0.6767270664294451  0.04411778525492866  0.7805466147059115  1.0000
  S   S43       1.0  0.6974823443057657  0.0026329733236836184  0.8322609191232603  1.0000
  S   S44       1.0  0.6045355118867729  0.05187928430194557  0.755230578257047  1.0000
  Fe  Fe23      1.0  0.7372454257524704  0.06074781744175272  0.8467460949683795  1.0000
  S   S45       1.0  0.7282502621015925  0.09182240751994573  0.9050458374040976  1.0000
  Fe  Fe24      1.0  0.7615702207443529  0.9742284006929145  0.7995297140422417  1.0000
  S   S46       1.0  0.7891666561132457  0.8980531262094085  0.7991831034748847  1.0000
  S   S47       1.0  0.7126504771694048  0.10471291550349596  0.7966228370210303  1.0000
  S   S48       1.0  0.7377665325927335  0.011028638625437237  0.746506272674024  1.0000
  Fe  Fe25      1.0  0.3882377340285802  0.9673355545193894  0.16761860810161894  1.0000
  S   S49       1.0  0.3583023474690202  0.04249716236667922  0.16401760979662286  1.0000
  S   S50       1.0  0.46524116938568744  0.9398645929221487  0.16789771645299417  1.0000
  Fe  Fe26      1.0  0.29273116154992296  0.9349165757976873  0.1597069164386914  1.0000
  S   S51       1.0  0.25600136114130906  0.007519297992869767  0.15431778795198473  1.0000
  S   S52       1.0  0.24981481177758125  0.8764557564804613  0.1533647373295065  1.0000
  Fe  Fe27      1.0  0.3154513605385457  0.019514503783364834  0.1169695147699803  1.0000
  S   S53       1.0  0.3091436270289666  0.061747207897012935  0.06359189797327992  1.0000
  Fe  Fe28      1.0  0.301724011010536  0.023395959154582258  0.20175596842296276  1.0000
  S   S54       1.0  0.26807267543229835  0.0642482267074545  0.2510739870821081  1.0000
  S   S55       1.0  0.34869208223287596  0.9456076686295177  0.11784998887784637  1.0000
  S   S56       1.0  0.3351936224098013  0.9496641403917181  0.2097905229539813  1.0000
  Fe  Fe29      1.0  0.7884764054054448  0.08967206438019859  0.15026126711061327  1.0000
  S   S57       1.0  0.8298915736207967  0.01943958527246653  0.14266329651805382  1.0000
  S   S58       1.0  0.8280590277107915  0.15089310126003896  0.14441856659057714  1.0000
  Fe  Fe30      1.0  0.6962112004299569  0.04950022120157136  0.15550429564749355  1.0000
  S   S59       1.0  0.7312516750165928  0.9759120832344942  0.14880403171140824  1.0000
  S   S60       1.0  0.6187021276792772  0.0745234929919542  0.1610513848137222  1.0000
  Fe  Fe31      1.0  0.7846771880472891  0.9973303224228302  0.18850647372204218  1.0000
  S   S61       1.0  0.8169433279206302  0.9595647691366062  0.23946341764343682  1.0000
  Fe  Fe32      1.0  0.7733262139143032  0.005019861279324855  0.10349940260754413  1.0000
  S   S62       1.0  0.7950339121340877  0.9712566209965839  0.047316879324352815  1.0000
  S   S63       1.0  0.7464976309203952  0.06895986535655727  0.19887673318570132  1.0000
  S   S64       1.0  0.7350021359790205  0.07709964429563823  0.10745149731797211  1.0000
  C   C1        1.0  0.5081502644096078  0.9771415055862097  0.1687554024982193  1.0000
  C   C2        1.0  0.5542419614534049  0.9593717551210541  0.15937690393026024  1.0000
  C   C3        1.0  0.5887867748456577  0.9885781365918246  0.15784811323805586  1.0000
  C   C4        1.0  0.5774405590010643  0.03586463861746985  0.16571537672425685  1.0000
  C   C5        1.0  0.5314447330912832  0.05351840635089443  0.1756405709766641  1.0000
  C   C6        1.0  0.49696098722759  0.02425742201236103  0.17731035940148662  1.0000
  H   H1        1.0  0.5632388266628177  0.9228847700209072  0.15299487716671506  1.0000
  H   H2        1.0  0.6240584966779028  0.9745870924438069  0.15021363359635523  1.0000
  H   H3        1.0  0.522534264315567  0.08999363223043658  0.1821041359500605  1.0000
  H   H4        1.0  0.4618435879727878  0.038063013293232056  0.18547592414085787  1.0000
  C   C7        1.0  0.7453543040371736  0.0556490024921432  0.94330878968475  1.0000
  C   C8        1.0  0.7201567735144675  0.06197853058303932  0.9771775439451856  1.0000
  C   C9        1.0  0.7347919011111159  0.035640564665529735  0.009056715288835004  1.0000
  C   C10       1.0  0.7753426667521672  0.003644324522886322  0.007464085429424116  1.0000
  C   C11       1.0  0.8009786757466536  0.9977345382699373  0.9737423102150574  1.0000
  C   C12       1.0  0.7857228577275329  0.02331372916201301  0.9414996994326017  1.0000
  H   H5        1.0  0.6891182076425548  0.08728187522091997  0.9787227170774792  1.0000
  H   H6        1.0  0.714456372187837  0.039898668689191466  0.034773294415368174  1.0000
  H   H7        1.0  0.8329608115795404  0.9737282398832761  0.9727880019302099  1.0000
  H   H8        1.0  0.80600397721965  0.019366129555833046  0.915694996683935  1.0000
  C   C13       1.0  0.2700463890964977  0.9842306581167459  0.9587209092757419  1.0000
  C   C14       1.0  0.28376584177853204  0.028110797195742387  0.9554622239377949  1.0000
  C   C15       1.0  0.2955118862612314  0.05179422187849214  0.9878116679412521  1.0000
  C   C16       1.0  0.2938416030206833  0.03162388806577776  0.023534980027684647  1.0000
  C   C17       1.0  0.27971305867216784  0.9879797491236718  0.02690664480944993  1.0000
  C   C18       1.0  0.2675960060556278  0.964493926322858  0.9945866021479858  1.0000
  H   H9        1.0  0.28487553834855467  0.044055624855749764  0.9280679253816749  1.0000
  H   H10       1.0  0.30590666943572287  0.08579465602714342  0.9850432187989079  1.0000
  H   H11       1.0  0.27777152322846393  0.9723224722474304  0.05439789647979793  1.0000
  H   H12       1.0  0.2566811137994758  0.9306977186459712  0.9973629088224083  1.0000
  C   C19       1.0  0.48448789784554863  0.9825603033466661  0.8030944962060007  1.0000
  C   C20       1.0  0.47615485646360395  0.017722494349748805  0.776250876656875  1.0000
  C   C21       1.0  0.513152885054122  0.03926325874271466  0.7623647472529689  1.0000
  C   C22       1.0  0.5585384371341582  0.026565030015476707  0.7757315709478437  1.0000
  C   C23       1.0  0.5667252475537057  0.9918659561788319  0.803035312437731  1.0000
  C   C24       1.0  0.5299152831870549  0.9696944573448536  0.816368167379881  1.0000
  H   H13       1.0  0.44135778543004617  0.027798335363506895  0.765705580326305  1.0000
  H   H14       1.0  0.5065390350136053  0.06589403775526925  0.741102230404063  1.0000
  H   H15       1.0  0.6014115447638966  0.981707791298612  0.8135590202281461  1.0000
  H   H16       1.0  0.5366198374299456  0.9424942496269259  0.8370985274915511  1.0000
  C   C25       1.0  0.18015001645854387  0.8258343998583808  0.2586824479106461  1.0000
  C   C26       1.0  0.17195310230827265  0.8079255868635311  0.22305527434742692  1.0000
  C   C27       1.0  0.19342498950599718  0.8237646527281992  0.19089916172272348  1.0000
  C   C28       1.0  0.22297239126746146  0.8576710931340178  0.19413254020957793  1.0000
  C   C29       1.0  0.2307116249741737  0.8758083229326605  0.2297155879899579  1.0000
  C   C30       1.0  0.20962564762584251  0.8596913465206624  0.2618752482205836  1.0000
  H   H17       1.0  0.14957076424038165  0.7815753892249724  0.22021592304578969  1.0000
  H   H18       1.0  0.1874061734291832  0.8095643397680841  0.16340508566681988  1.0000
  H   H19       1.0  0.25329666499789216  0.9019981597248675  0.2325436033194561  1.0000
  H   H20       1.0  0.21611871587286297  0.8737474373846009  0.28933344548855394  1.0000
  C   C31       1.0  0.9187239369751472  0.8266566383282097  0.22347737403311793  1.0000
  C   C32       1.0  0.890109407647939  0.8438764643827822  0.19354847639017964  1.0000
  C   C33       1.0  0.859755940480945  0.8856650884728462  0.19758278734918094  1.0000
  C   C34       1.0  0.8575588105453932  0.9098782551643919  0.2318090070540359  1.0000
  C   C35       1.0  0.8870067671264454  0.8932154966481728  0.26136465992645336  1.0000
  C   C36       1.0  0.9178222716279529  0.8519554261262806  0.257073208696916  1.0000
  H   H21       1.0  0.890808815047597  0.8245164069950263  0.16738401805644376  1.0000
  H   H22       1.0  0.8370577646144078  0.8984158573709741  0.1746664321323566  1.0000
  H   H23       1.0  0.8855154300416175  0.9122000760451798  0.287746055345489  1.0000
  H   H24       1.0  0.9397416847033173  0.839105328954139  0.2801592649734706  1.0000
  C   C37       1.0  0.852516651397002  0.1703813312742496  0.18590567501949887  1.0000
  C   C38       1.0  0.8908552847359777  0.19454420526858754  0.18327935486207297  1.0000
  C   C39       1.0  0.9096847427981692  0.21205215038957265  0.21591104727803104  1.0000
  C   C40       1.0  0.8891558472083582  0.2068880399678766  0.2511688422906376  1.0000
  C   C41       1.0  0.8509767577906961  0.18262484323750977  0.2537265841940582  1.0000
  C   C42       1.0  0.8330951533201211  0.1638723939838526  0.22129819697365805  1.0000
  H   H25       1.0  0.9061238166572546  0.19955977249296059  0.1559820816834185  1.0000
  H   H26       1.0  0.9393998739932629  0.23032429178018712  0.21369531904984726  1.0000
  H   H27       1.0  0.8349759695289102  0.1784387701241446  0.28091081315995814  1.0000
  H   H28       1.0  0.8034750306093059  0.14546067310881822  0.22363388186340585  1.0000
  C   C43       1.0  0.1633098689673288  0.19197364293780994  0.22560212269678345  1.0000
  C   C44       1.0  0.2048449339452057  0.18323566578818082  0.20488636227564624  1.0000
  C   C45       1.0  0.23630379294754267  0.14286365252046432  0.21129072448117342  1.0000
  C   C46       1.0  0.22678446034384792  0.11173826819815878  0.2392092204254268  1.0000
  C   C47       1.0  0.18521460463764455  0.12039281468088214  0.25983695528128425  1.0000
  C   C48       1.0  0.15326924231421438  0.16018728850108896  0.25276693551588997  1.0000
  H   H29       1.0  0.21312447996685485  0.20838358923154102  0.1845128986686529  1.0000
  H   H30       1.0  0.2688202186261431  0.136759343009164  0.1958569098555933  1.0000
  H   H31       1.0  0.17774866723627125  0.09621541416074918  0.2813613499008359  1.0000
  H   H32       1.0  0.12109020689643077  0.16629509002071421  0.26849670518750907  1.0000
  C   C49       1.0  0.01619219711329567  0.47465493791712116  0.28421997626605566  1.0000
  C   C50       1.0  0.06445421058256992  0.4648984821530091  0.28794885902367334  1.0000
  C   C51       1.0  0.09148615898594058  0.5012875233314644  0.28904226263051164  1.0000
  C   C52       1.0  0.07046375798079013  0.5476340485345936  0.2867554485064858  1.0000
  C   C53       1.0  0.02220209396624262  0.5573140116093754  0.28315435409583334  1.0000
  C   C54       1.0  0.9952385124678813  0.5209683838552627  0.28176698449881094  1.0000
  H   H33       1.0  0.08098255224268634  0.42936769977240585  0.2897155347049645  1.0000
  H   H34       1.0  0.12878325868190976  0.49347373478929174  0.291715470315486  1.0000
  H   H35       1.0  0.005650543243252759  0.5927416960509245  0.2809325473977876  1.0000
  H   H36       1.0  0.9579908733698841  0.5287963528525631  0.27871961409637747  1.0000
  C   C55       1.0  0.8892549971539209  0.859382068981394  0.7002065101136856  1.0000
  C   C56       1.0  0.8676735001840865  0.9050748046809602  0.7051582889776662  1.0000
  C   C57       1.0  0.8381483284580105  0.9171519026534243  0.7360846513506244  1.0000
  C   C58       1.0  0.8287035270890366  0.8833507103383034  0.76170568949442  1.0000
  C   C59       1.0  0.8505499318358992  0.8375784691816338  0.7570287451297909  1.0000
  C   C60       1.0  0.8811606612013718  0.82565655647302  0.726477362675813  1.0000
  H   H37       1.0  0.8740790574359277  0.9314186837858491  0.6851244839786065  1.0000
  H   H38       1.0  0.822783711813669  0.9527550932098874  0.7398880491140878  1.0000
  H   H39       1.0  0.8436023116147896  0.8112172844602616  0.7768133285211016  1.0000
  H   H40       1.0  0.8976099028218478  0.7902451796985738  0.7227757294437177  1.0000
  C   C61       1.0  0.148357328307037  0.8113470210159145  0.7407132479219984  1.0000
  C   C62       1.0  0.16796725875975763  0.8294539820039049  0.7726644580579551  1.0000
  C   C63       1.0  0.19449864184934693  0.8660627538411688  0.7692193238158087  1.0000
  C   C64       1.0  0.20194414377098502  0.8844538053733928  0.7336702304912723  1.0000
  C   C65       1.0  0.18206436629390838  0.866521619888917  0.7018078156261941  1.0000
  C   C66       1.0  0.15522644413448677  0.8303046512452932  0.7053039105426968  1.0000
  H   H41       1.0  0.1628857691882086  0.8148884579988538  0.8001615492331013  1.0000
  H   H42       1.0  0.2096980617672578  0.8795597157247976  0.7939600529875247  1.0000
  H   H43       1.0  0.18823947189482676  0.8799372939592912  0.6741203714309881  1.0000
  H   H44       1.0  0.14101375674714975  0.8161806568360671  0.6804350363612877  1.0000
  C   C67       1.0  0.06081283649937178  0.7263057963267258  0.515075351853106  1.0000
  C   C68       1.0  0.08297877017800628  0.7148119545516176  0.48040445973047124  1.0000
  C   C69       1.0  0.05827312991141487  0.7214724847187556  0.4464766098790548  1.0000
  C   C70       1.0  0.011122123800003651  0.7395962672536947  0.4469197392133587  1.0000
  C   C71       1.0  0.9887904392831296  0.7508129417718717  0.4816507424813318  1.0000
  C   C72       1.0  0.013591516157683614  0.7443591104550856  0.515657435248371  1.0000
  H   H45       1.0  0.11948884962448987  0.7008708508449616  0.47976009537255365  1.0000
  H   H46       1.0  0.0758250998265514  0.7125243807116294  0.4200649933372259  1.0000
  H   H47       1.0  0.9523588011255937  0.7650158797696355  0.4822720744323145  1.0000
  H   H48       1.0  0.9962581935973249  0.7538030345467909  0.5422003153161495  1.0000
  C   C73       1.0  0.1745271598082213  0.17401450429206494  0.695244024387728  1.0000
  C   C74       1.0  0.1541584316033443  0.18498622196567469  0.7305628267493847  1.0000
  C   C75       1.0  0.17936180205832536  0.17276589771293888  0.7635798660041438  1.0000
  C   C76       1.0  0.2244879656734181  0.1484937897192358  0.7613421915017657  1.0000
  C   C77       1.0  0.2449154446125264  0.13768962753670927  0.7260264077888484  1.0000
  C   C78       1.0  0.2201800060056579  0.15098373045276314  0.693037486301534  1.0000
  H   H49       1.0  0.11875322265942641  0.20209536462119912  0.7325409873372024  1.0000
  H   H50       1.0  0.1635535522756045  0.1812011825871856  0.7909277529931492  1.0000
  H   H51       1.0  0.2800185227729253  0.11953132545160325  0.7242104685269201  1.0000
  H   H52       1.0  0.2363727458009256  0.14297403551362556  0.6657807771072435  1.0000
  C   C79       1.0  0.9041126804762334  0.21401526358902753  0.7327191011001297  1.0000
  C   C80       1.0  0.866399283092005  0.2104627776497153  0.7569363770499977  1.0000
  C   C81       1.0  0.8427293396351292  0.17163133771553862  0.7552433998514166  1.0000
  C   C82       1.0  0.856433332419286  0.13636933568156873  0.7289829904998859  1.0000
  C   C83       1.0  0.8945134233918117  0.13966571538636613  0.7051149103593073  1.0000
  C   C84       1.0  0.918575458542947  0.17808100133662497  0.707250792657838  1.0000
  H   H53       1.0  0.85514553416942  0.2380744473721442  0.7768333836980321  1.0000
  H   H54       1.0  0.8133437352846639  0.1694542567721923  0.7736767999334515  1.0000
  H   H55       1.0  0.9054206224447442  0.11231434236212633  0.6849223949356732  1.0000
  H   H56       1.0  0.9482359586395563  0.1799034702294915  0.6892075014928697  1.0000
  C   C85       1.0  0.001249416423298788  0.2870567844554795  0.5107857893349799  1.0000
  C   C86       1.0  0.979648848870696  0.2915796102879567  0.47544878923921813  1.0000
  C   C87       1.0  0.006146680183002129  0.28505512641561637  0.4420420006771196  1.0000
  C   C88       1.0  0.05448116189335156  0.2739995624938466  0.44373250761550004  1.0000
  C   C89       1.0  0.07604886299624752  0.26901090220468576  0.47909345521373337  1.0000
  C   C90       1.0  0.04954580022799274  0.27549888270040795  0.5125205732050392  1.0000
  H   H57       1.0  0.9423135078901655  0.3002728611245487  0.47384664143410765  1.0000
  H   H58       1.0  0.9890558009934718  0.2883834947521146  0.4150644722743231  1.0000
  H   H59       1.0  0.1133670292256149  0.260207831336677  0.480675591347906  1.0000
  H   H60       1.0  0.06652991671708659  0.27140654410581333  0.5395497227842966  1.0000
  C   C91       1.0  0.053981924679496814  0.4648202777957712  0.6799432529667234  1.0000
  C   C92       1.0  0.006355840989015647  0.4719891356861521  0.6725937984533312  1.0000
  C   C93       1.0  0.9821030421912399  0.5172598580267054  0.671450221084055  1.0000
  C   C94       1.0  0.005299290933147516  0.5557109726965949  0.6772008161114935  1.0000
  C   C95       1.0  0.052999988161947176  0.5485849184624124  0.6844179833606466  1.0000
  C   C96       1.0  0.07721238447259737  0.5032618979958368  0.6858209889783063  1.0000
  H   H61       1.0  0.9880538473453335  0.4426844405456481  0.6682182902488607  1.0000
  H   H62       1.0  0.9451685332138244  0.5225060595852948  0.6660070895103962  1.0000
  H   H63       1.0  0.07113012630470994  0.5779353558795076  0.6893039502105858  1.0000
  H   H64       1.0  0.11401561466931698  0.49799270596535455  0.6917234747335735  1.0000
  N   N1        1.0  0.17680368708237035  0.12270489730334644  0.10002282243142524  1.0000
  C   C97       1.0  0.14625420384896992  0.15971594663654054  0.08024769061119996  1.0000
  C   C98       1.0  0.15485433624396874  0.11238807397765438  0.136192117577421  1.0000
  C   C99       1.0  0.22203019977910954  0.13834651030254408  0.10748671503484619  1.0000
  C   C100      1.0  0.18412008834426788  0.08060261052169415  0.0760924889572383  1.0000
  H   H65       1.0  0.14003416432798735  0.1920186269029296  0.09757753127372837  1.0000
  H   H66       1.0  0.11178538047468431  0.1491020792795461  0.07415155357439018  1.0000
  H   H67       1.0  0.1618547309988536  0.1685162093601058  0.05290111172370149  1.0000
  H   H68       1.0  0.1215322011261138  0.09869985017437788  0.13165661593929  1.0000
  H   H69       1.0  0.1778546239482896  0.08626086611147521  0.15286689287691746  1.0000
  H   H70       1.0  0.14707496342055726  0.14396313933565885  0.15419324931788858  1.0000
  H   H71       1.0  0.24027483449488282  0.14498306986254672  0.08076949107913856  1.0000
  H   H72       1.0  0.24556567305944  0.11179288432183809  0.1233540214359341  1.0000
  H   H73       1.0  0.21779280180029173  0.17085227997884367  0.12436713799296162  1.0000
  H   H74       1.0  0.1508802625512662  0.06749462522751615  0.06990099583254827  1.0000
  H   H75       1.0  0.2074906977498621  0.05212975566211697  0.08988545432696649  1.0000
  H   H76       1.0  0.20079105421317564  0.08722718669954221  0.04862690476314868  1.0000
  N   N2        1.0  0.00948462804671536  0.8962197883800289  0.752107155426598  1.0000
  C   C101      1.0  0.013062656620339116  0.8461501830113388  0.7441646014384047  1.0000
  C   C102      1.0  0.9710090925330139  0.909870465926365  0.7791211857497807  1.0000
  C   C103      1.0  0.00019437268953126238  0.9222392614976503  0.7165802411015125  1.0000
  C   C104      1.0  0.05370344446717761  0.9062484283286331  0.7683534849013538  1.0000
  H   H77       1.0  0.9803049295842825  0.8370995242872178  0.732167097772963  1.0000
  H   H78       1.0  0.0210389133852135  0.8249629170682874  0.7700146187688369  1.0000
  H   H79       1.0  0.04124369903541104  0.8348915336222863  0.7234514084510357  1.0000
  H   H80       1.0  0.93734573457582  0.9020802485048918  0.7676553475716272  1.0000
  H   H81       1.0  0.9769855074150645  0.8908461153779769  0.8062228922830664  1.0000
  H   H82       1.0  0.9667303761907013  0.9476424741260752  0.7854428523588551  1.0000
  H   H83       1.0  0.9976646737256186  0.9602262554855765  0.7212863326973885  1.0000
  H   H84       1.0  0.9668860709578383  0.915638890386996  0.7037829695408064  1.0000
  H   H85       1.0  0.027876895350977666  0.9116867768763018  0.6951464291609134  1.0000
  H   H86       1.0  0.08313244447862268  0.8970659311003369  0.7481867166377713  1.0000
  H   H87       1.0  0.06272087023497983  0.8856593894838155  0.7943785444909813  1.0000
  H   H88       1.0  0.05210452096027574  0.9435213492575105  0.7757494346581948  1.0000
  N   N3        1.0  0.8590285464929133  0.7781227490948092  0.3399778141732652  1.0000
  C   C105      1.0  0.8905052859486671  0.81172103034632  0.3500537535412334  1.0000
  C   C106      1.0  0.86114750745635  0.7696159047197989  0.2987843050963713  1.0000
  C   C107      1.0  0.8110097335257116  0.7971196063967286  0.3510762237027439  1.0000
  C   C108      1.0  0.8734883875318763  0.7341356308532067  0.3600738240728346  1.0000
  H   H89       1.0  0.8907940604675906  0.8179700406660978  0.38108616016028724  1.0000
  H   H90       1.0  0.8802492313128102  0.845668768129559  0.3360228058198624  1.0000
  H   H91       1.0  0.926941575054405  0.7987029267453165  0.3416933645907766  1.0000
  H   H92       1.0  0.8489689183785473  0.8017698026593727  0.28270869170822677  1.0000
  H   H93       1.0  0.8972409231007648  0.7568686169893085  0.28910027129561544  1.0000
  H   H94       1.0  0.8390758414767951  0.7432343520670338  0.2902866508452056  1.0000
  H   H95       1.0  0.7862139389650922  0.7727716489255462  0.3437936422732866  1.0000
  H   H96       1.0  0.7992024431912491  0.8304668663913163  0.3364318993748016  1.0000
  H   H97       1.0  0.8082309180059795  0.8039530235315755  0.3820051319266452  1.0000
  H   H98       1.0  0.9094464395534088  0.7187575972900353  0.3520151690743614  1.0000
  H   H99       1.0  0.8502551386779814  0.708002533869465  0.3537183856685061  1.0000
  H   H100      1.0  0.8736279411658534  0.7394739365418881  0.3912261997503797  1.0000
  N   N4        1.0  0.04406849118908162  0.9016825884881461  0.2283946945608378  1.0000
  C   C109      1.0  0.031005080796193227  0.9132672200892406  0.2680465209813733  1.0000
  C   C110      1.0  0.087782814989516  0.9196656736744928  0.2191040736434626  1.0000
  C   C111      1.0  0.0066236216632951095  0.9227023325587747  0.20314442074537767  1.0000
  C   C112      1.0  0.050903031657157094  0.8508667371180961  0.2234161102672077  1.0000
  H   H101      1.0  0.025954393860582563  0.9513728545590332  0.2729759253447892  1.0000
  H   H102      1.0  0.05831028165129483  0.897355849048166  0.2878999269158156  1.0000
  H   H103      1.0  0.9979917694132017  0.9004946702719591  0.27593387755668886  1.0000
  H   H104      1.0  0.09976003070992485  0.9101421694325894  0.18982599047162121  1.0000
  H   H105      1.0  0.08375092001154832  0.9580552927770619  0.221693193574278  1.0000
  H   H106      1.0  0.11630697359401586  0.9053011085664328  0.23838986548352886  1.0000
  H   H107      1.0  0.015292310333767658  0.9145089195774305  0.1730074299083053  1.0000
  H   H108      1.0  0.00012993868211674838  0.9610703635999492  0.20630384067903224  1.0000
  H   H109      1.0  0.9732008797050674  0.909611997523766  0.20939004533413585  1.0000
  H   H110      1.0  0.062203360292511715  0.8405279878202758  0.19416365216772355  1.0000
  H   H111      1.0  0.018316437070301683  0.8363045756604941  0.2290819000398556  1.0000
  H   H112      1.0  0.07760989541954252  0.8337780746600851  0.24306548379441256  1.0000
  N   N5        1.0  0.8564796408979529  0.3697611671236335  0.2506978939196956  1.0000
  C   C113      1.0  0.8560693069722626  0.3272289454744649  0.22796693461359616  1.0000
  C   C114      1.0  0.8773060318188494  0.3572481841509246  0.2878000663363478  1.0000
  C   C115      1.0  0.8084694516435762  0.393267575906357  0.2561615825248928  1.0000
  C   C116      1.0  0.8843918972847059  0.4010670890285001  0.23105194196867362  1.0000
  H   H113      1.0  0.8397693684196906  0.33481655191619836  0.19995997147274444  1.0000
  H   H114      1.0  0.8368114946834126  0.30198406509740355  0.24264258435289987  1.0000
  H   H115      1.0  0.8919736120550477  0.3092329578857275  0.22297206672043912  1.0000
  H   H116      1.0  0.8571015044928695  0.3340304217810888  0.30389028439304006  1.0000
  H   H117      1.0  0.9127896890534608  0.33817136204315296  0.28422346390533565  1.0000
  H   H118      1.0  0.8803090350113218  0.38837095538688193  0.3054099946309267  1.0000
  H   H119      1.0  0.80775504300277  0.42520799227011813  0.2735941092123549  1.0000
  H   H120      1.0  0.7866765782854146  0.3702765559162739  0.27081518161143264  1.0000
  H   H121      1.0  0.7917537757848458  0.4034270626181361  0.22869314147269038  1.0000
  H   H122      1.0  0.8858731060270018  0.43336856143099783  0.24762513730285152  1.0000
  H   H123      1.0  0.870148469342531  0.41108881499019306  0.20274948364331855  1.0000
  H   H124      1.0  0.9210709969817504  0.38448877264028586  0.2270665481819549  1.0000
  N   N6        1.0  0.2101697548634396  0.2213335137989352  0.34494472736936566  1.0000
  C   C117      1.0  0.1995385186088016  0.2653255765182086  0.3661822732867579  1.0000
  C   C118      1.0  0.21815731906319508  0.2314069539732708  0.30476807857809657  1.0000
  C   C119      1.0  0.1706463327985612  0.19489327786382965  0.34829439579535876  1.0000
  C   C120      1.0  0.2522195116828183  0.19361811143173474  0.36054145038034224  1.0000
  H   H125      1.0  0.16797492487979837  0.2870068347208709  0.3549630506659864  1.0000
  H   H126      1.0  0.2286277260314889  0.28617388895609014  0.36470392500002297  1.0000
  H   H127      1.0  0.19227537260319294  0.2590831263234759  0.396507433834136  1.0000
  H   H128      1.0  0.22820486138529575  0.19898190992179407  0.28824115252228166  1.0000
  H   H129      1.0  0.18631658808877916  0.25040238805449005  0.29156612174761504  1.0000
  H   H130      1.0  0.24644983230907083  0.25297146128328624  0.3012271509475471  1.0000
  H   H131      1.0  0.13858671223616226  0.2143916838317493  0.3360888824740572  1.0000
  H   H132      1.0  0.16254120908715175  0.18803334919888048  0.3783422708622004  1.0000
  H   H133      1.0  0.17771446951972472  0.16096930503044965  0.33344690484691397  1.0000
  H   H134      1.0  0.28283626111927174  0.21239879293384542  0.3584417846235731  1.0000
  H   H135      1.0  0.2610043709183276  0.1601146409348191  0.34506021585795926  1.0000
  H   H136      1.0  0.24720424968757282  0.18534641652407025  0.39081384546666786  1.0000
  N   N7        1.0  0.15486852674612156  0.03518637695362194  0.6729514656463966  1.0000
  C   C121      1.0  0.1812648976463512  0.03991212101933455  0.7079725995929005  1.0000
  C   C122      1.0  0.1073917496368241  0.0606110843541009  0.6773401799435794  1.0000
  C   C123      1.0  0.15260087472665784  0.9856597275421203  0.6655594518796969  1.0000
  C   C124      1.0  0.1783003143253208  0.05452599037812501  0.6408169070819231  1.0000
  H   H137      1.0  0.21861362498145923  0.025476714375140017  0.7045123691206585  1.0000
  H   H138      1.0  0.16759020120339319  0.021295190121866266  0.7319998751473488  1.0000
  H   H139      1.0  0.17952465498154152  0.07666264394894845  0.7167185467035416  1.0000
  H   H140      1.0  0.08631409154531965  0.05765862701432169  0.6515709916959986  1.0000
  H   H141      1.0  0.08897134095535042  0.04738240183301154  0.7017016123313075  1.0000
  H   H142      1.0  0.10813161160544846  0.09830204264221837  0.6823230238909499  1.0000
  H   H143      1.0  0.13698586954499695  0.9691190862928617  0.6898151517774345  1.0000
  H   H144      1.0  0.1879861426440157  0.9660590947100333  0.6610224651973259  1.0000
  H   H145      1.0  0.13185649454458706  0.9806884619325866  0.6399806109273826  1.0000
  H   H146      1.0  0.21460071752179194  0.03686420180787515  0.6371769715989605  1.0000
  H   H147      1.0  0.179916681115783  0.09197911236022487  0.6449279706679995  1.0000
  H   H148      1.0  0.15958273663763822  0.051002370081217205  0.6139037654294037  1.0000
  N   N8        1.0  0.19771848808928205  0.3172562607962635  0.7209962192606774  1.0000
  C   C125      1.0  0.21262886659554733  0.3635082315076724  0.7183010964471819  1.0000
  C   C126      1.0  0.15949026621397894  0.3189417432754825  0.7488634126970426  1.0000
  C   C127      1.0  0.23713659030669926  0.28282401862424555  0.7330820643874999  1.0000
  C   C128      1.0  0.18144444290193534  0.30379370441974374  0.6836754742055615  1.0000
  H   H149      1.0  0.2410249905323806  0.36375664943060637  0.697167608288275  1.0000
  H   H150      1.0  0.22525960596930308  0.3748471682410756  0.7459065581102277  1.0000
  H   H151      1.0  0.1832951469813032  0.3901646046370584  0.7094693777913301  1.0000
  H   H152      1.0  0.1475648662860534  0.28453016153204236  0.7518771795055226  1.0000
  H   H153      1.0  0.17034161526612202  0.3295198355362411  0.7772643306896228  1.0000
  H   H154      1.0  0.12891846581278898  0.344231530552376  0.7403534899639379  1.0000
  H   H155      1.0  0.22697630801727534  0.2474995167932961  0.7348986132704758  1.0000
  H   H156      1.0  0.24994788139894816  0.29136768133012947  0.7614223515902683  1.0000
  H   H157      1.0  0.26677663655058353  0.2807583574402535  0.7128652690029441  1.0000
  H   H158      1.0  0.16804097563267625  0.2700858507238811  0.684952293568641  1.0000
  H   H159      1.0  0.20971068327078946  0.30047279285298395  0.6621557023778273  1.0000
  H   H160      1.0  0.152720146743349  0.3296939089119306  0.6730717327894952  1.0000
  N   N9        1.0  0.3994802451181498  0.9002419434909783  0.9273488329986681  1.0000
  C   C129      1.0  0.4500875526298759  0.8854246485691669  0.9298250946186782  1.0000
  C   C130      1.0  0.3904624698782738  0.9508206312764962  0.9213243327856141  1.0000
  C   C131      1.0  0.3764802772934839  0.8885601287899558  0.9626511538270278  1.0000
  C   C132      1.0  0.38076289697713983  0.8762429875506812  0.8953462124404904  1.0000
  H   H161      1.0  0.4582642229780107  0.8473845360970629  0.9342367487735321  1.0000
  H   H162      1.0  0.4653822951685503  0.9030333271740235  0.9535835815604723  1.0000
  H   H163      1.0  0.4679851007272235  0.8938574084732356  0.9033167848748149  1.0000
  H   H164      1.0  0.3529169781228038  0.9627597607589347  0.9172430671550458  1.0000
  H   H165      1.0  0.4018693912889941  0.970367935056166  0.9456851008718374  1.0000
  H   H166      1.0  0.40858876845410663  0.9611404340103489  0.8956430030427848  1.0000
  H   H167      1.0  0.3380995340302002  0.8983767016091979  0.9609431755954227  1.0000
  H   H168      1.0  0.3884595214718779  0.9070823888313994  0.9874203984978273  1.0000
  H   H169      1.0  0.3831270727287418  0.850736076494445  0.9684376516885  1.0000
  H   H170      1.0  0.342380439759442  0.8858509727528883  0.8933036941242696  1.0000
  H   H171      1.0  0.3877910574066281  0.8379617207754265  0.8983804968682303  1.0000
  H   H172      1.0  0.39626656848634634  0.8853588497612569  0.8680135594519635  1.0000
  N   N10       1.0  0.038562145533258096  0.5868225593287065  0.5608436095631474  1.0000
  C   C133      1.0  0.06297027058750349  0.5854329874551124  0.5240626240715807  1.0000
  C   C134      1.0  0.07097871250013799  0.5952314511146021  0.5911863783035812  1.0000
  C   C135      1.0  0.021304035651835918  0.5422656337064992  0.5676143624845315  1.0000
  C   C136      1.0  0.9989580704391838  0.6246604365556376  0.5607146746539495  1.0000
  H   H173      1.0  0.03953113169792499  0.5793623102636739  0.5004134356761095  1.0000
  H   H174      1.0  0.09327946343596949  0.5574761994589332  0.5232441285696007  1.0000
  H   H175      1.0  0.07618830457522607  0.6188501630629553  0.5183723903142504  1.0000
  H   H176      1.0  0.05284953107976875  0.5996640893081167  0.618905740876756  1.0000
  H   H177      1.0  0.09991011044422216  0.5661023302120414  0.5938478815584323  1.0000
  H   H178      1.0  0.08659706501451758  0.6273051215943785  0.5860176620657758  1.0000
  H   H179      1.0  0.0024945317799669464  0.5427110177671421  0.5951372705950946  1.0000
  H   H180      1.0  0.05026190005295006  0.512889641472042  0.5685312904687405  1.0000
  H   H181      1.0  0.9968328494988319  0.5346072246776369  0.5452134573439695  1.0000
  H   H182      1.0  0.979510244164465  0.6264822043733148  0.5880246407615687  1.0000
  H   H183      1.0  0.9740109386150999  0.6200018013064985  0.5378448982745299  1.0000
  H   H184      1.0  0.010960112004695599  0.6588206034682866  0.5563343905828162  1.0000
  N   N11       1.0  0.45475179360936197  0.05810135362992887  0.06854760449717277  1.0000
  C   C137      1.0  0.4335620063672121  0.09276828790071477  0.096411642622292  1.0000
  C   C138      1.0  0.44002879497130626  0.012753025838811329  0.0769115722742166  1.0000
  C   C139      1.0  0.5059414383053107  0.05396596132367004  0.07068039523054788  1.0000
  C   C140      1.0  0.43927858817096765  0.07290578035622071  0.030264934669516415  1.0000
  H   H185      1.0  0.444530304262579  0.08278326664568196  0.12562099133041135  1.0000
  H   H186      1.0  0.39492383558133765  0.09642239084453948  0.09573622669880207  1.0000
  H   H187      1.0  0.4438298106390603  0.12747203729882425  0.09101623534757693  1.0000
  H   H188      1.0  0.44947966908640413  0.001453660438801796  0.10611375861594646  1.0000
  H   H189      1.0  0.40176220325515816  0.01415759571409145  0.07452684103538179  1.0000
  H   H190      1.0  0.4566867425133589  0.985187230507081  0.05751794843694077  1.0000
  H   H191      1.0  0.5231906073656953  0.029117802666229278  0.04934407236310588  1.0000
  H   H192      1.0  0.5187639552192396  0.04112014634522175  0.09877773570536613  1.0000
  H   H193      1.0  0.5183926002688858  0.08790336942522677  0.06620047497207664  1.0000
  H   H194      1.0  0.4498674072013007  0.10701245123109127  0.023003028630943636  1.0000
  H   H195      1.0  0.40070276720159204  0.07649521768621607  0.027936506607796698  1.0000
  H   H196      1.0  0.4542647298729653  0.04743015367654776  0.008495839854301357  1.0000
  N   N12       1.0  0.8611677983917585  0.24255319329604602  0.610274276387847  1.0000
  C   C141      1.0  0.8251720410770512  0.22371590507354383  0.6326960835312615  1.0000
  C   C142      1.0  0.8985969194108342  0.20469834497057593  0.6000393729613557  1.0000
  C   C143      1.0  0.880627202966301  0.2777791082976081  0.6328474708125148  1.0000
  C   C144      1.0  0.8405078743083623  0.26416738220012687  0.5754744475840531  1.0000
  H   H197      1.0  0.7960779531812009  0.25123792245391974  0.6404560728509197  1.0000
  H   H198      1.0  0.8395797151719369  0.2081995902285602  0.6595778311256607  1.0000
  H   H199      1.0  0.8104075264378626  0.196161982244728  0.616998568416571  1.0000
  H   H200      1.0  0.9266717555878701  0.21792574061694847  0.5835548468564945  1.0000
  H   H201      1.0  0.9148139984678116  0.1873733187603985  0.6255547909451301  1.0000
  H   H202      1.0  0.885312986524256  0.17775553799995553  0.5825525912286137  1.0000
  H   H203      1.0  0.8980447726052275  0.262461136830039  0.6586301321872671  1.0000
  H   H204      1.0  0.8533012346127431  0.3062331963622268  0.6421921816512461  1.0000
  H   H205      1.0  0.9068210821389732  0.29372053608390797  0.6163681980052405  1.0000
  H   H206      1.0  0.8672004796466207  0.2782989445625666  0.5579289398114521  1.0000
  H   H207      1.0  0.8126600000230405  0.2934236483361233  0.5820440004930512  1.0000
  H   H208      1.0  0.8252411090210894  0.23871116719740496  0.5577372859280385  1.0000
  N   N13       1.0  0.6490904273420255  0.9234910574282071  0.7044466651670173  1.0000
  C   C145      1.0  0.6652831188471768  0.9239976391181097  0.7438950187495161  1.0000
  C   C146      1.0  0.5977562793014489  0.9323576443553127  0.7038242364797759  1.0000
  C   C147      1.0  0.6655157442817451  0.8777476398650759  0.6873387790436307  1.0000
  C   C148      1.0  0.6678799432467454  0.9599291593671514  0.682740726350556  1.0000
  H   H209      1.0  0.7039043784498666  0.9168404875794945  0.7455123943260892  1.0000
  H   H210      1.0  0.6510795166135398  0.8975757610404959  0.7612993696164962  1.0000
  H   H211      1.0  0.6541225110016969  0.958280827070352  0.7574172852533576  1.0000
  H   H212      1.0  0.58210194183468  0.9067020626415658  0.7210856779481588  1.0000
  H   H213      1.0  0.584464844981118  0.9673037875912793  0.7154135886223029  1.0000
  H   H214      1.0  0.5841956100721377  0.9311030130864771  0.6746044518780048  1.0000
  H   H215      1.0  0.6542944214767825  0.8761591702103079  0.6574394272474455  1.0000
  H   H216      1.0  0.6518072160060658  0.8494705286955101  0.7029319983794456  1.0000
  H   H217      1.0  0.7041827874787342  0.8700392995721752  0.687637026639813  1.0000
  H   H218      1.0  0.65612248856436  0.9608075457317524  0.6529043920883024  1.0000
  H   H219      1.0  0.7065690517712133  0.9544258150314414  0.6825203870933715  1.0000
  H   H220      1.0  0.6562849996158223  0.9949636122942347  0.6950394061589502  1.0000
  N   N14       1.0  0.750691513027313  0.8941822677016595  0.9119409517788244  1.0000
  C   C149      1.0  0.7916032327981362  0.9134478565366081  0.8973387923820384  1.0000
  C   C150      1.0  0.7264142832506261  0.8753585566699431  0.8801516764092081  1.0000
  C   C151      1.0  0.7187183384822684  0.9310390884629117  0.9311998110946372  1.0000
  C   C152      1.0  0.766131866524042  0.8567705760096437  0.9390263954968554  1.0000
  H   H221      1.0  0.8121813949769564  0.92584479912987  0.9205573765352292  1.0000
  H   H222      1.0  0.7812515495481421  0.9431337651804347  0.8780342028405026  1.0000
  H   H223      1.0  0.8152476748090193  0.8870915139356599  0.880986689536484  1.0000
  H   H224      1.0  0.7497885313612834  0.8479498389651801  0.8645997505080892  1.0000
  H   H225      1.0  0.6955733548453732  0.8600572509837375  0.8899398542760856  1.0000
  H   H226      1.0  0.7143805818662698  0.9028346551933527  0.8592764125589026  1.0000
  H   H227      1.0  0.7347175920404295  0.9437174991563181  0.9569129378852245  1.0000
  H   H228      1.0  0.6861436428558011  0.918446258475862  0.9404199610227546  1.0000
  H   H229      1.0  0.7090004946456405  0.961526506999641  0.912559931785657  1.0000
  H   H230      1.0  0.784499784717717  0.8699916556756372  0.9634509308488001  1.0000
  H   H231      1.0  0.7905182398169502  0.8284846506735806  0.9254832435194614  1.0000
  H   H232      1.0  0.7362236347231791  0.8413015853427332  0.9506138959465915  1.0000
  N   N15       1.0  0.8272185286485324  0.13720048047632838  0.029924679624420136  1.0000
  C   C153      1.0  0.8570126507295807  0.1721514584901353  0.0404792817979287  1.0000
  C   C154      1.0  0.8282314330855324  0.1308915748605701  0.9885039752440803  1.0000
  C   C155      1.0  0.7789968932029514  0.15308385099769461  0.042445780932788946  1.0000
  C   C156      1.0  0.8445604776628247  0.09266893876907907  0.048264117576166  1.0000
  H   H233      1.0  0.8937321960097632  0.16107170284949757  0.03180564505557015  1.0000
  H   H234      1.0  0.8566886605462438  0.177860454861177  0.07160283041078341  1.0000
  H   H235      1.0  0.8449686385800629  0.20617199654209706  0.027112676992248508  1.0000
  H   H236      1.0  0.8063184827318465  0.10453881968267167  0.97978851100497  1.0000
  H   H237      1.0  0.814686038555669  0.16356361896172916  0.9736454373552776  1.0000
  H   H238      1.0  0.8640247605360354  0.11903621815170276  0.9778844312891578  1.0000
  H   H239      1.0  0.7647344341796954  0.18658475365460128  0.02921448437130203  1.0000
  H   H240      1.0  0.7769170568835643  0.15812368917561456  0.07363182207233132  1.0000
  H   H241      1.0  0.7555642867003267  0.127475461470496  0.03493758480915132  1.0000
  H   H242      1.0  0.8219800177965825  0.0659755755202312  0.04211991558909922  1.0000
  H   H243      1.0  0.8453409563191053  0.09627994249479399  0.0794903416238304  1.0000
  H   H244      1.0  0.8803030795349589  0.07876434940410922  0.0386967143501169  1.0000
  N   N16       1.0  0.23380814715230022  0.6730568584067411  0.29906306350360645  1.0000
  C   C157      1.0  0.2822793967867363  0.6580608734437  0.28683049870619104  1.0000
  C   C158      1.0  0.21350252335510436  0.6327035117838011  0.3132986432095337  1.0000
  C   C159      1.0  0.20650098330483785  0.6933538552559582  0.26666335934557833  1.0000
  C   C160      1.0  0.23286874493718002  0.7082726481861034  0.32931042891363055  1.0000
  H   H245      1.0  0.29855333952312163  0.687823646132873  0.27602214661872587  1.0000
  H   H246      1.0  0.28405667214282976  0.6317864311291215  0.2637903721132647  1.0000
  H   H247      1.0  0.30392510028243264  0.6423963740874682  0.31055341613637116  1.0000
  H   H248      1.0  0.1769456080379004  0.6427681436412718  0.3228221053157439  1.0000
  H   H249      1.0  0.21266016267279145  0.6057966125373051  0.2910038562599617  1.0000
  H   H250      1.0  0.23321598560947088  0.6162272761161302  0.3376794447115517  1.0000
  H   H251      1.0  0.17036921806916933  0.7066052627077101  0.2754251044288914  1.0000
  H   H252      1.0  0.20462731134634085  0.6674584433373356  0.24377200007765182  1.0000
  H   H253      1.0  0.22150231333014533  0.7231726327733963  0.25453915795726045  1.0000
  H   H254      1.0  0.19679453290189516  0.7199387851537085  0.3395301400978706  1.0000
  H   H255      1.0  0.2465080936621446  0.7398808891142178  0.3191189432183753  1.0000
  H   H256      1.0  0.25376909654744917  0.694680457893478  0.354071007293255  1.0000
