data_image0
_chemical_formula_structural       CHFeHSCSC3HCSFeHFeHSH2CFeCH4NHC4HSCS2HSHFe2SCHFe2S2H3C3H2SFeH3FeHNCHC2H2CSH2CHS2FeHSH2CSHC2HC2HCHCSHNH2CSCH6FeSCH3CHCH4SC2SHCH3NH2C2HSCNH5CH2C2FeCHSHC2H2S2HC3H2SCH3CH2NCH2CH2CH4CHC2HSHCNC2HCSHC3H3SH3CHCFeHNFeHSHFeCH2CS2HC2HC2H3FeCSCSH4FeCFeSC3H2CH2SFeHCNH2SH4C2HCSCHSH3C4SHCSCSH2FeCHC2H3CHC2H4CH4CHNHCH2CHC4HC2H5SHC2H2CHC3H3C2SHCH2CSHSCHNH4C2HCHCH2NSHFeCH2C2H4CH4CH4FeNH3C2FeC2HCHCSHCHSHFeH2SHFeSCH2SH2CHCH2S2HCFeCHSFeHS2HCFeHNH8CSHC2HCHFeHC2H3SFe2SH2S2H2C3HCNH6CHNCSH2C2HC2H6C2H2CH2C2
_chemical_formula_sum              "C160 H256 Fe32 S64 N16"
_cell_length_a       14.5194
_cell_length_b       14.1393
_cell_length_c       39.6108
_cell_angle_alpha    87.2602
_cell_angle_beta     95.0806
_cell_angle_gamma    111.091

_space_group_name_H-M_alt    "P 1"
_space_group_IT_number       1

loop_
  _space_group_symop_operation_xyz
  'x, y, z'

loop_
  _atom_site_type_symbol
  _atom_site_label
  _atom_site_symmetry_multiplicity
  _atom_site_fract_x
  _atom_site_fract_y
  _atom_site_fract_z
  _atom_site_occupancy
  C   C1        1.0  0.90582  0.67285  0.32293  1.0000
  H   H1        1.0  0.85689  0.70349  0.33378  1.0000
  Fe  Fe1       1.0  0.75664  0.57907  0.38480  1.0000
  H   H2        1.0  0.78228  0.06548  0.34656  1.0000
  S   S1        1.0  0.67375  0.68608  0.37881  1.0000
  C   C2        1.0  0.74764  0.98341  0.39363  1.0000
  S   S2        1.0  0.85568  0.95477  0.39817  1.0000
  C   C3        1.0  0.57368  0.02794  0.38704  1.0000
  C   C4        1.0  0.72893  0.03927  0.36550  1.0000
  C   C5        1.0  0.98723  0.73807  0.30641  1.0000
  H   H3        1.0  0.00140  0.81859  0.30518  1.0000
  C   C6        1.0  0.64076  0.05973  0.36181  1.0000
  S   S3        1.0  0.89252  0.68867  0.41136  1.0000
  Fe  Fe2       1.0  0.61818  0.62345  0.42918  1.0000
  H   H4        1.0  0.69298  0.90628  0.44002  1.0000
  Fe  Fe3       1.0  0.80369  0.78938  0.41026  1.0000
  H   H5        1.0  0.82275  0.91971  0.50030  1.0000
  S   S4        1.0  0.74347  0.73431  0.46028  1.0000
  H   H6        1.0  0.88890  0.05337  0.50490  1.0000
  H   H7        1.0  0.94642  0.90290  0.46413  1.0000
  C   C7        1.0  0.54766  0.60839  0.50546  1.0000
  Fe  Fe4       1.0  0.81790  0.62114  0.45840  1.0000
  C   C8        1.0  0.88352  0.97735  0.51539  1.0000
  H   H8        1.0  0.94955  0.85689  0.55715  1.0000
  H   H9        1.0  0.62231  0.63642  0.55531  1.0000
  H   H10       1.0  0.86065  0.97226  0.54168  1.0000
  H   H11       1.0  0.54078  0.94597  0.43436  1.0000
  N   N1        1.0  0.97841  0.96111  0.51475  1.0000
  H   H12       1.0  0.91145  0.79808  0.51656  1.0000
  C   C9        1.0  0.96932  0.86158  0.53048  1.0000
  C   C10       1.0  0.67894  0.94901  0.41817  1.0000
  C   C11       1.0  0.55630  0.63278  0.53974  1.0000
  C   C12       1.0  0.59281  0.97234  0.41510  1.0000
  H   H13       1.0  0.60512  0.58906  0.49540  1.0000
  S   S5        1.0  0.51276  0.06388  0.48499  1.0000
  C   C13       1.0  0.00359  0.96372  0.47929  1.0000
  S   S6        1.0  0.67776  0.70609  0.67144  1.0000
  S   S7        1.0  0.67466  0.89382  0.73796  1.0000
  H   H14       1.0  0.69668  0.03178  0.57772  1.0000
  S   S8        1.0  0.87356  0.91637  0.67315  1.0000
  H   H15       1.0  0.51472  0.83701  0.68854  1.0000
  Fe  Fe5       1.0  0.81338  0.95539  0.62277  1.0000
  Fe  Fe6       1.0  0.63152  0.76239  0.62136  1.0000
  S   S9        1.0  0.77895  0.80332  0.59995  1.0000
  C   C14       1.0  0.66102  0.01174  0.73674  1.0000
  H   H16       1.0  0.92023  0.69446  0.73162  1.0000
  Fe  Fe7       1.0  0.82788  0.76110  0.65176  1.0000
  Fe  Fe8       1.0  0.71827  0.86601  0.68776  1.0000
  S   S10       1.0  0.66074  0.91953  0.63931  1.0000
  S   S11       1.0  0.94000  0.68685  0.65565  1.0000
  H   H17       1.0  0.59501  0.98370  0.84126  1.0000
  H   H18       1.0  0.68840  0.03393  0.87552  1.0000
  H   H19       1.0  0.70596  0.65727  0.78228  1.0000
  C   C15       1.0  0.86647  0.81748  0.76852  1.0000
  C   C16       1.0  0.76302  0.64039  0.76922  1.0000
  C   C17       1.0  0.50912  0.03877  0.88964  1.0000
  H   H20       1.0  0.54287  0.96412  0.77022  1.0000
  H   H21       1.0  0.74246  0.64179  0.74153  1.0000
  S   S12       1.0  0.62125  0.69263  0.84629  1.0000
  Fe  Fe9       1.0  0.71190  0.76214  0.89317  1.0000
  H   H22       1.0  0.96169  0.76619  0.82271  1.0000
  H   H23       1.0  0.88748  0.63275  0.82320  1.0000
  H   H24       1.0  0.93631  0.61315  0.76617  1.0000
  Fe  Fe10      1.0  0.50749  0.75045  0.86279  1.0000
  H   H25       1.0  0.83309  0.72517  0.82965  1.0000
  N   N2        1.0  0.86342  0.71425  0.77810  1.0000
  C   C18       1.0  0.93642  0.69059  0.75960  1.0000
  H   H26       1.0  0.81628  0.84027  0.78332  1.0000
  C   C19       1.0  0.88777  0.70916  0.81501  1.0000
  C   C20       1.0  0.58988  0.02620  0.75534  1.0000
  H   H27       1.0  0.94234  0.87462  0.77287  1.0000
  H   H28       1.0  0.84315  0.82278  0.74125  1.0000
  C   C21       1.0  0.64234  0.05450  0.85454  1.0000
  S   S13       1.0  0.87786  0.82441  0.89742  1.0000
  H   H29       1.0  0.99070  0.68928  0.89843  1.0000
  H   H30       1.0  0.00001  0.98638  0.81967  1.0000
  C   C22       1.0  0.92819  0.77441  0.01069  1.0000
  H   H31       1.0  0.68646  0.89792  0.01464  1.0000
  S   S14       1.0  0.60775  0.83755  0.90609  1.0000
  S   S15       1.0  0.64619  0.62697  0.92629  1.0000
  Fe  Fe11      1.0  0.53736  0.69746  0.93669  1.0000
  H   H32       1.0  0.52704  0.00205  0.97666  1.0000
  S   S16       1.0  0.52080  0.71436  0.99182  1.0000
  H   H33       1.0  0.81668  0.95437  0.02587  1.0000
  H   H34       1.0  0.84300  0.64148  0.93808  1.0000
  C   C23       1.0  0.90929  0.80431  0.94028  1.0000
  S   S17       1.0  0.93167  0.75951  0.05492  1.0000
  H   H35       1.0  0.75437  0.81997  0.03073  1.0000
  C   C24       1.0  0.87663  0.70604  0.95435  1.0000
  C   C25       1.0  0.57579  0.06719  0.99077  1.0000
  H   H36       1.0  0.85497  0.61545  0.00047  1.0000
  C   C26       1.0  0.74703  0.89489  0.03350  1.0000
  C   C27       1.0  0.88408  0.69111  0.98961  1.0000
  H   H37       1.0  0.54665  0.01281  0.91193  1.0000
  C   C28       1.0  0.95849  0.88690  0.96123  1.0000
  H   H38       1.0  0.65311  0.01334  0.05339  1.0000
  C   C29       1.0  0.96863  0.87186  0.99643  1.0000
  S   S18       1.0  0.72586  0.04868  0.95792  1.0000
  H   H39       1.0  0.98474  0.96280  0.95041  1.0000
  N   N3        1.0  0.72616  0.90910  0.06841  1.0000
  H   H40       1.0  0.56950  0.82948  0.05919  1.0000
  H   H41       1.0  0.00381  0.93641  0.01266  1.0000
  C   C30       1.0  0.71585  0.00866  0.07069  1.0000
  S   S19       1.0  0.80866  0.64296  0.13167  1.0000
  C   C31       1.0  0.63297  0.82809  0.07695  1.0000
  H   H42       1.0  0.63769  0.75193  0.07501  1.0000
  H   H43       1.0  0.79698  0.91859  0.11896  1.0000
  H   H44       1.0  0.81572  0.82944  0.09230  1.0000
  H   H45       1.0  0.70122  0.02248  0.09674  1.0000
  H   H46       1.0  0.61503  0.83484  0.10326  1.0000
  H   H47       1.0  0.88057  0.96228  0.08592  1.0000
  Fe  Fe12      1.0  0.81668  0.62104  0.07644  1.0000
  S   S20       1.0  0.52914  0.60540  0.14464  1.0000
  C   C32       1.0  0.80840  0.90484  0.09248  1.0000
  H   H48       1.0  0.99033  0.68542  0.18403  1.0000
  H   H49       1.0  0.79392  0.14244  0.29048  1.0000
  H   H50       1.0  0.65363  0.26500  0.28461  1.0000
  C   C33       1.0  0.73509  0.30279  0.28320  1.0000
  H   H51       1.0  0.74881  0.25073  0.38687  1.0000
  C   C34       1.0  0.88708  0.56850  0.32488  1.0000
  H   H52       1.0  0.92115  0.30948  0.27983  1.0000
  H   H53       1.0  0.78173  0.11390  0.24649  1.0000
  H   H54       1.0  0.55833  0.45313  0.35308  1.0000
  H   H55       1.0  0.67412  0.10618  0.26764  1.0000
  S   S21       1.0  0.00426  0.17799  0.31260  1.0000
  C   C35       1.0  0.95098  0.52984  0.31085  1.0000
  C   C36       1.0  0.87959  0.31311  0.25520  1.0000
  S   S22       1.0  0.78599  0.48677  0.34585  1.0000
  H   H56       1.0  0.77120  0.29637  0.30877  1.0000
  C   C37       1.0  0.75431  0.15020  0.26571  1.0000
  H   H57       1.0  0.62632  0.10321  0.34012  1.0000
  H   H58       1.0  0.89608  0.39468  0.24862  1.0000
  H   H59       1.0  0.93882  0.45000  0.31343  1.0000
  N   N4        1.0  0.77221  0.25782  0.25695  1.0000
  H   H60       1.0  0.75023  0.38488  0.27797  1.0000
  H   H61       1.0  0.91720  0.38042  0.39575  1.0000
  C   C38       1.0  0.81364  0.31695  0.55435  1.0000
  C   C39       1.0  0.73637  0.26513  0.41314  1.0000
  H   H62       1.0  0.81775  0.13994  0.44594  1.0000
  S   S23       1.0  0.64043  0.32776  0.52534  1.0000
  C   C40       1.0  0.87012  0.21214  0.43580  1.0000
  N   N5        1.0  0.82923  0.29410  0.43523  1.0000
  H   H63       1.0  0.75517  0.23931  0.48075  1.0000
  H   H64       1.0  0.70442  0.32569  0.41129  1.0000
  H   H65       1.0  0.84685  0.39604  0.54732  1.0000
  H   H66       1.0  0.59124  0.12304  0.55162  1.0000
  H   H67       1.0  0.87742  0.33355  0.48727  1.0000
  C   C41       1.0  0.87264  0.26623  0.57023  1.0000
  H   H68       1.0  0.67931  0.19598  0.42307  1.0000
  H   H69       1.0  0.77628  0.36976  0.47066  1.0000
  C   C42       1.0  0.80877  0.30964  0.46996  1.0000
  C   C43       1.0  0.72938  0.11163  0.57176  1.0000
  Fe  Fe13      1.0  0.50770  0.21203  0.50021  1.0000
  C   C44       1.0  0.67000  0.16283  0.55622  1.0000
  H   H70       1.0  0.87200  0.45210  0.42166  1.0000
  S   S24       1.0  0.68667  0.50467  0.43188  1.0000
  H   H71       1.0  0.94103  0.23161  0.45189  1.0000
  C   C45       1.0  0.71249  0.26515  0.54702  1.0000
  C   C46       1.0  0.90109  0.38912  0.42214  1.0000
  H   H72       1.0  0.97194  0.41345  0.43832  1.0000
  H   H73       1.0  0.88451  0.19626  0.40989  1.0000
  S   S25       1.0  0.89167  0.56804  0.50357  1.0000
  S   S26       1.0  0.62097  0.31694  0.73302  1.0000
  H   H74       1.0  0.81548  0.43820  0.61153  1.0000
  C   C47       1.0  0.76115  0.47534  0.60355  1.0000
  C   C48       1.0  0.62551  0.32537  0.61998  1.0000
  C   C49       1.0  0.71967  0.09100  0.71672  1.0000
  H   H75       1.0  0.75564  0.24771  0.70109  1.0000
  H   H76       1.0  0.92368  0.21126  0.72342  1.0000
  S   S27       1.0  0.90575  0.10126  0.59853  1.0000
  C   C50       1.0  0.70324  0.46092  0.65939  1.0000
  H   H77       1.0  0.67924  0.28647  0.62668  1.0000
  H   H78       1.0  0.77302  0.07887  0.70169  1.0000
  H   H79       1.0  0.56356  0.29342  0.63677  1.0000
  C   C51       1.0  0.70986  0.18625  0.71639  1.0000
  H   H80       1.0  0.59402  0.30420  0.59363  1.0000
  H   H81       1.0  0.75093  0.41915  0.67052  1.0000
  N   N6        1.0  0.67296  0.43656  0.62332  1.0000
  C   C52       1.0  0.60194  0.48519  0.61040  1.0000
  H   H82       1.0  0.53530  0.46069  0.62501  1.0000
  H   H83       1.0  0.74615  0.54284  0.66275  1.0000
  C   C53       1.0  0.83071  0.16353  0.57887  1.0000
  H   H84       1.0  0.57663  0.46634  0.58332  1.0000
  H   H85       1.0  0.63796  0.44096  0.67463  1.0000
  C   C54       1.0  0.63789  0.20032  0.73474  1.0000
  H   H86       1.0  0.63593  0.56905  0.61193  1.0000
  H   H87       1.0  0.74072  0.46347  0.57598  1.0000
  H   H88       1.0  0.95036  0.30707  0.57594  1.0000
  H   H89       1.0  0.80000  0.55845  0.60649  1.0000
  C   C55       1.0  0.99818  0.23412  0.73714  1.0000
  H   H90       1.0  0.69393  0.10275  0.83615  1.0000
  C   C56       1.0  0.64739  0.19646  0.88697  1.0000
  C   C57       1.0  0.92626  0.21305  0.79080  1.0000
  H   H91       1.0  0.98426  0.41845  0.78574  1.0000
  S   S28       1.0  0.97153  0.42231  0.85500  1.0000
  H   H92       1.0  0.94044  0.14120  0.79613  1.0000
  C   C58       1.0  0.69124  0.40218  0.82634  1.0000
  N   N7        1.0  0.58200  0.10775  0.86746  1.0000
  C   C59       1.0  0.97923  0.37700  0.76216  1.0000
  C   C60       1.0  0.57662  0.11967  0.75354  1.0000
  H   H93       1.0  0.85008  0.19297  0.77830  1.0000
  C   C61       1.0  0.78894  0.40614  0.82510  1.0000
  S   S29       1.0  0.94487  0.16497  0.89921  1.0000
  H   H94       1.0  0.51834  0.12932  0.76649  1.0000
  C   C62       1.0  0.85511  0.43283  0.85403  1.0000
  C   C63       1.0  0.52940  0.14186  0.83861  1.0000
  C   C64       1.0  0.66063  0.42600  0.85628  1.0000
  H   H95       1.0  0.81116  0.38416  0.80229  1.0000
  H   H96       1.0  0.58225  0.19225  0.82103  1.0000
  H   H97       1.0  0.60551  0.24192  0.89552  1.0000
  S   S30       1.0  0.53749  0.41316  0.85948  1.0000
  H   H98       1.0  0.63896  0.37910  0.80438  1.0000
  H   H99       1.0  0.70707  0.24621  0.87165  1.0000
  H   H100      1.0  0.90355  0.36011  0.74952  1.0000
  C   C65       1.0  0.82509  0.46001  0.88341  1.0000
  H   H101      1.0  0.92730  0.24700  0.81563  1.0000
  C   C66       1.0  0.72822  0.45662  0.88452  1.0000
  Fe  Fe14      1.0  0.54844  0.56125  0.88026  1.0000
  H   H102      1.0  0.75733  0.56154  0.77638  1.0000
  N   N8        1.0  0.00097  0.28330  0.76942  1.0000
  Fe  Fe15      1.0  0.98722  0.33305  0.90221  1.0000
  H   H103      1.0  0.87580  0.48183  0.90571  1.0000
  S   S31       1.0  0.55197  0.26259  0.05736  1.0000
  H   H104      1.0  0.68465  0.17377  0.90984  1.0000
  Fe  Fe16      1.0  0.87592  0.15909  0.94795  1.0000
  C   C67       1.0  0.54427  0.35346  0.96707  1.0000
  H   H105      1.0  0.75182  0.29829  0.04197  1.0000
  H   H106      1.0  0.81981  0.21155  0.00407  1.0000
  C   C68       1.0  0.70238  0.23426  0.02775  1.0000
  S   S32       1.0  0.65075  0.55715  0.06562  1.0000
  S   S33       1.0  0.90398  0.32560  0.94778  1.0000
  H   H107      1.0  0.70490  0.47267  0.90795  1.0000
  C   C69       1.0  0.67748  0.10390  0.98680  1.0000
  C   C70       1.0  0.53741  0.11480  0.01318  1.0000
  H   H108      1.0  0.59054  0.41987  0.95244  1.0000
  C   C71       1.0  0.60084  0.19917  0.03133  1.0000
  C   C72       1.0  0.74075  0.18604  0.00576  1.0000
  H   H109      1.0  0.55007  0.28442  0.95656  1.0000
  H   H110      1.0  0.57852  0.36184  0.99347  1.0000
  H   H111      1.0  0.78408  0.07152  0.06365  1.0000
  Fe  Fe17      1.0  0.81291  0.48712  0.13793  1.0000
  C   C73       1.0  0.56305  0.42981  0.22431  1.0000
  S   S34       1.0  0.64919  0.41142  0.13379  1.0000
  C   C74       1.0  0.90839  0.19141  0.14319  1.0000
  S   S35       1.0  0.91490  0.45713  0.17864  1.0000
  H   H112      1.0  0.85459  0.12493  0.13126  1.0000
  H   H113      1.0  0.80974  0.27569  0.14008  1.0000
  H   H114      1.0  0.73561  0.34591  0.21584  1.0000
  H   H115      1.0  0.74485  0.22997  0.20348  1.0000
  Fe  Fe18      1.0  0.66485  0.40620  0.07853  1.0000
  C   C75       1.0  0.88289  0.27621  0.14848  1.0000
  Fe  Fe19      1.0  0.64563  0.56613  0.12163  1.0000
  S   S36       1.0  0.83184  0.46870  0.08362  1.0000
  C   C76       1.0  0.95016  0.35863  0.16659  1.0000
  C   C77       1.0  0.58307  0.50632  0.19923  1.0000
  C   C78       1.0  0.72018  0.26532  0.22370  1.0000
  H   H116      1.0  0.63847  0.22774  0.22435  1.0000
  H   H117      1.0  0.65877  0.54773  0.19349  1.0000
  C   C79       1.0  0.00169  0.19082  0.15532  1.0000
  H   H118      1.0  0.91036  0.28075  0.23583  1.0000
  H   H119      1.0  0.62333  0.41363  0.23806  1.0000
  S   S37       1.0  0.15293  0.77957  0.27143  1.0000
  Fe  Fe20      1.0  0.15061  0.93712  0.26272  1.0000
  H   H120      1.0  0.26663  0.91729  0.37642  1.0000
  C   C80       1.0  0.04985  0.69899  0.29172  1.0000
  N   N9        1.0  0.25684  0.76208  0.38314  1.0000
  H   H121      1.0  0.08679  0.05739  0.35680  1.0000
  H   H122      1.0  0.09767  0.70798  0.37879  1.0000
  S   S38       1.0  0.21580  0.06245  0.30042  1.0000
  H   H123      1.0  0.20025  0.65969  0.34158  1.0000
  H   H124      1.0  0.20590  0.83766  0.34120  1.0000
  H   H125      1.0  0.33197  0.70253  0.35029  1.0000
  H   H126      1.0  0.25308  0.61011  0.37798  1.0000
  C   C81       1.0  0.26726  0.85286  0.36147  1.0000
  C   C82       1.0  0.16095  0.72921  0.39856  1.0000
  H   H127      1.0  0.33805  0.87919  0.34890  1.0000
  C   C83       1.0  0.26051  0.67968  0.36234  1.0000
  S   S39       1.0  0.47076  0.06547  0.38487  1.0000
  C   C84       1.0  0.03194  0.59482  0.29412  1.0000
  H   H128      1.0  0.41181  0.80921  0.39918  1.0000
  S   S40       1.0  0.01079  0.96877  0.24887  1.0000
  H   H129      1.0  0.33274  0.65536  0.54388  1.0000
  H   H130      1.0  0.32107  0.62123  0.48268  1.0000
  H   H131      1.0  0.20888  0.81945  0.47662  1.0000
  C   C85       1.0  0.39288  0.64250  0.53318  1.0000
  C   C86       1.0  0.46446  0.60738  0.48449  1.0000
  C   C87       1.0  0.01698  0.63928  0.51207  1.0000
  C   C88       1.0  0.07032  0.70543  0.48752  1.0000
  S   S41       1.0  0.46155  0.59319  0.44059  1.0000
  H   H132      1.0  0.15146  0.66244  0.41583  1.0000
  C   C89       1.0  0.33871  0.78654  0.41009  1.0000
  S   S42       1.0  0.28155  0.01191  0.45504  1.0000
  C   C90       1.0  0.16744  0.77021  0.49571  1.0000
  S   S43       1.0  0.32442  0.86466  0.54057  1.0000
  H   H133      1.0  0.03662  0.70788  0.46242  1.0000
  H   H134      1.0  0.33250  0.72039  0.42736  1.0000
  Fe  Fe21      1.0  0.36267  0.99934  0.50502  1.0000
  C   C91       1.0  0.21044  0.77123  0.52867  1.0000
  H   H135      1.0  0.00930  0.03712  0.46638  1.0000
  C   C92       1.0  0.15963  0.70022  0.55267  1.0000
  C   C93       1.0  0.38611  0.62274  0.49854  1.0000
  H   H136      1.0  0.34049  0.85025  0.42584  1.0000
  H   H137      1.0  0.04026  0.84806  0.53104  1.0000
  H   H138      1.0  0.07548  0.95333  0.47794  1.0000
  C   C94       1.0  0.06283  0.63365  0.54430  1.0000
  H   H139      1.0  0.13060  0.03297  0.53355  1.0000
  C   C95       1.0  0.05750  0.04180  0.53397  1.0000
  C   C96       1.0  0.47856  0.64946  0.55371  1.0000
  H   H140      1.0  0.04182  0.04027  0.56108  1.0000
  H   H141      1.0  0.02180  0.58190  0.56333  1.0000
  H   H142      1.0  0.15490  0.79088  0.41364  1.0000
  H   H143      1.0  0.29796  0.91304  0.67793  1.0000
  C   C97       1.0  0.07254  0.81317  0.61345  1.0000
  H   H144      1.0  0.05545  0.85570  0.69598  1.0000
  H   H145      1.0  0.41754  0.93759  0.69940  1.0000
  H   H146      1.0  0.04013  0.75593  0.59444  1.0000
  H   H147      1.0  0.24899  0.68007  0.67397  1.0000
  C   C98       1.0  0.14267  0.90788  0.60490  1.0000
  H   H148      1.0  0.31463  0.82883  0.71101  1.0000
  N   N10       1.0  0.37165  0.81617  0.66386  1.0000
  H   H149      1.0  0.22360  0.75942  0.64068  1.0000
  C   C99       1.0  0.28116  0.73136  0.65253  1.0000
  H   H150      1.0  0.41804  0.72576  0.70199  1.0000
  H   H151      1.0  0.16827  0.92201  0.57968  1.0000
  C   C100      1.0  0.44580  0.77517  0.67957  1.0000
  H   H152      1.0  0.35364  0.90997  0.62111  1.0000
  C   C101      1.0  0.34924  0.87638  0.68920  1.0000
  C   C102      1.0  0.41029  0.88191  0.63426  1.0000
  C   C103      1.0  0.17835  0.98457  0.62897  1.0000
  C   C104      1.0  0.04227  0.79366  0.64646  1.0000
  H   H153      1.0  0.46523  0.72905  0.66152  1.0000
  C   C105      1.0  0.14636  0.96444  0.66172  1.0000
  C   C106      1.0  0.08040  0.86904  0.67064  1.0000
  H   H154      1.0  0.29710  0.68526  0.63341  1.0000
  H   H155      1.0  0.43185  0.84051  0.61497  1.0000
  H   H156      1.0  0.17251  0.02164  0.68063  1.0000
  H   H157      1.0  0.47561  0.94985  0.64183  1.0000
  H   H158      1.0  0.19340  0.69990  0.57808  1.0000
  S   S44       1.0  0.48249  0.66839  0.59733  1.0000
  H   H159      1.0  0.17470  0.65288  0.72943  1.0000
  C   C107      1.0  0.07403  0.02467  0.83096  1.0000
  C   C108      1.0  0.27449  0.71902  0.77285  1.0000
  H   H160      1.0  0.03839  0.64080  0.86564  1.0000
  H   H161      1.0  0.30295  0.77038  0.89447  1.0000
  C   C109      1.0  0.15117  0.83612  0.87674  1.0000
  H   H162      1.0  0.22197  0.90115  0.88136  1.0000
  C   C110      1.0  0.35208  0.71295  0.79547  1.0000
  C   C111      1.0  0.22803  0.71171  0.88945  1.0000
  C   C112      1.0  0.05231  0.66516  0.89247  1.0000
  H   H163      1.0  0.24602  0.77922  0.77520  1.0000
  H   H164      1.0  0.01291  0.74558  0.76553  1.0000
  H   H165      1.0  0.14286  0.81877  0.84929  1.0000
  C   C113      1.0  0.27380  0.57198  0.74295  1.0000
  C   C114      1.0  0.23452  0.64777  0.74687  1.0000
  S   S45       1.0  0.40576  0.80387  0.82731  1.0000
  H   H166      1.0  0.02527  0.02306  0.88068  1.0000
  C   C115      1.0  0.38731  0.63408  0.79239  1.0000
  H   H167      1.0  0.44474  0.62642  0.81004  1.0000
  H   H168      1.0  0.21992  0.69282  0.86208  1.0000
  C   C116      1.0  0.08803  0.04709  0.86541  1.0000
  S   S46       1.0  0.42886  0.61400  0.89426  1.0000
  H   H169      1.0  0.09000  0.86189  0.88209  1.0000
  S   S47       1.0  0.13588  0.02969  0.76800  1.0000
  C   C117      1.0  0.15522  0.05371  0.81127  1.0000
  H   H170      1.0  0.45951  0.97010  0.87582  1.0000
  N   N11       1.0  0.14938  0.74739  0.89826  1.0000
  H   H171      1.0  0.22548  0.64181  0.90405  1.0000
  H   H172      1.0  0.10843  0.80641  0.94128  1.0000
  H   H173      1.0  0.16091  0.71077  0.95148  1.0000
  H   H174      1.0  0.44118  0.63813  0.05579  1.0000
  C   C118      1.0  0.16532  0.77647  0.93428  1.0000
  C   C119      1.0  0.38146  0.61752  0.03598  1.0000
  H   H175      1.0  0.33765  0.65061  0.95144  1.0000
  C   C120      1.0  0.32318  0.62333  0.97700  1.0000
  H   H176      1.0  0.04807  0.59721  0.90858  1.0000
  C   C121      1.0  0.40009  0.64980  0.00248  1.0000
  H   H177      1.0  0.23898  0.83672  0.93981  1.0000
  H   H178      1.0  0.20424  0.71311  0.20766  1.0000
  N   N12       1.0  0.12797  0.73360  0.16038  1.0000
  S   S48       1.0  0.23145  0.02786  0.21933  1.0000
  H   H179      1.0  0.22616  0.65109  0.17214  1.0000
  Fe  Fe22      1.0  0.09741  0.07031  0.20870  1.0000
  C   C122      1.0  0.20773  0.82938  0.15198  1.0000
  H   H180      1.0  0.08167  0.79957  0.20053  1.0000
  H   H181      1.0  0.11043  0.60052  0.19144  1.0000
  C   C123      1.0  0.08412  0.67717  0.12889  1.0000
  C   C124      1.0  0.16933  0.67191  0.18385  1.0000
  H   H182      1.0  0.24456  0.87227  0.17527  1.0000
  H   H183      1.0  0.01700  0.80195  0.15982  1.0000
  H   H184      1.0  0.05247  0.72181  0.11066  1.0000
  H   H185      1.0  0.17819  0.87907  0.13520  1.0000
  C   C125      1.0  0.05089  0.75631  0.17683  1.0000
  H   H186      1.0  0.26568  0.81491  0.13869  1.0000
  H   H187      1.0  0.13976  0.65798  0.11584  1.0000
  H   H188      1.0  0.02319  0.60477  0.13404  1.0000
  H   H189      1.0  0.02925  0.33392  0.36007  1.0000
  C   C126      1.0  0.05688  0.27855  0.37249  1.0000
  H   H190      1.0  0.45082  0.41595  0.40086  1.0000
  H   H191      1.0  0.32052  0.34645  0.39401  1.0000
  H   H192      1.0  0.32474  0.32620  0.30062  1.0000
  H   H193      1.0  0.48275  0.51696  0.33140  1.0000
  Fe  Fe23      1.0  0.08183  0.10163  0.28319  1.0000
  N   N13       1.0  0.40196  0.36648  0.34968  1.0000
  H   H194      1.0  0.24679  0.29446  0.33516  1.0000
  H   H195      1.0  0.37224  0.47517  0.37898  1.0000
  H   H196      1.0  0.42891  0.23859  0.33135  1.0000
  C   C127      1.0  0.09138  0.12386  0.37028  1.0000
  C   C128      1.0  0.13021  0.13644  0.40404  1.0000
  Fe  Fe24      1.0  0.28434  0.15649  0.25565  1.0000
  C   C129      1.0  0.31450  0.35234  0.32557  1.0000
  C   C130      1.0  0.05325  0.19391  0.35469  1.0000
  H   H197      1.0  0.29990  0.42403  0.32101  1.0000
  C   C131      1.0  0.38552  0.40246  0.38223  1.0000
  H   H198      1.0  0.35208  0.21016  0.36627  1.0000
  C   C132      1.0  0.41705  0.26891  0.35536  1.0000
  S   S49       1.0  0.44226  0.26593  0.25823  1.0000
  H   H199      1.0  0.08073  0.56435  0.28309  1.0000
  C   C133      1.0  0.49078  0.44191  0.33568  1.0000
  H   H200      1.0  0.48309  0.27703  0.37315  1.0000
  S   S50       1.0  0.15618  0.20570  0.24203  1.0000
  H   H201      1.0  0.50512  0.41731  0.31101  1.0000
  Fe  Fe25      1.0  0.43234  0.08949  0.43670  1.0000
  H   H202      1.0  0.15201  0.32676  0.53069  1.0000
  H   H203      1.0  0.15441  0.07914  0.41623  1.0000
  S   S51       1.0  0.44148  0.24475  0.45007  1.0000
  H   H204      1.0  0.09769  0.40309  0.55106  1.0000
  Fe  Fe26      1.0  0.29696  0.16548  0.47265  1.0000
  S   S52       1.0  0.17838  0.23322  0.46480  1.0000
  C   C134      1.0  0.13230  0.21960  0.42219  1.0000
  H   H205      1.0  0.06550  0.11820  0.52321  1.0000
  H   H206      1.0  0.21483  0.46108  0.53342  1.0000
  S   S53       1.0  0.36452  0.14649  0.52434  1.0000
  H   H207      1.0  0.10120  0.35753  0.41996  1.0000
  H   H208      1.0  0.30370  0.30420  0.55740  1.0000
  C   C135      1.0  0.16852  0.39282  0.54745  1.0000
  H   H209      1.0  0.36434  0.43890  0.56114  1.0000
  C   C136      1.0  0.09714  0.29175  0.40623  1.0000
  H   H210      1.0  0.05072  0.28696  0.71996  1.0000
  H   H211      1.0  0.28129  0.53858  0.58942  1.0000
  S   S54       1.0  0.40511  0.35175  0.67720  1.0000
  S   S55       1.0  0.26334  0.10513  0.61887  1.0000
  H   H212      1.0  0.35541  0.35738  0.59793  1.0000
  C   C137      1.0  0.15810  0.28554  0.59750  1.0000
  Fe  Fe27      1.0  0.30165  0.19264  0.66704  1.0000
  C   C138      1.0  0.31515  0.36966  0.57392  1.0000
  H   H213      1.0  0.19598  0.27206  0.62184  1.0000
  S   S56       1.0  0.18247  0.21123  0.69474  1.0000
  Fe  Fe28      1.0  0.45745  0.28226  0.72366  1.0000
  H   H214      1.0  0.27938  0.46029  0.62646  1.0000
  S   S57       1.0  0.22920  0.48794  0.70885  1.0000
  S   S58       1.0  0.36237  0.12263  0.71089  1.0000
  H   H215      1.0  0.16694  0.47352  0.60804  1.0000
  C   C139      1.0  0.23763  0.46653  0.60200  1.0000
  Fe  Fe29      1.0  0.29142  0.36249  0.71040  1.0000
  H   H216      1.0  0.14148  0.21736  0.58184  1.0000
  N   N14       1.0  0.21981  0.37873  0.58020  1.0000
  H   H217      1.0  0.08664  0.28966  0.60368  1.0000
  H   H218      1.0  0.47695  0.07624  0.82397  1.0000
  H   H219      1.0  0.48664  0.18646  0.84713  1.0000
  H   H220      1.0  0.33818  0.16232  0.87245  1.0000
  H   H221      1.0  0.10505  0.34594  0.81192  1.0000
  H   H222      1.0  0.11996  0.24019  0.79277  1.0000
  H   H223      1.0  0.03321  0.42995  0.74529  1.0000
  H   H224      1.0  0.31340  0.12623  0.81079  1.0000
  C   C140      1.0  0.25068  0.10346  0.82611  1.0000
  S   S59       1.0  0.35049  0.30307  0.75784  1.0000
  H   H225      1.0  0.15868  0.36214  0.77191  1.0000
  C   C141      1.0  0.26478  0.12333  0.86090  1.0000
  C   C142      1.0  0.10052  0.30900  0.78729  1.0000
  H   H226      1.0  0.38170  0.50830  0.76303  1.0000
  C   C143      1.0  0.18319  0.09591  0.88042  1.0000
  H   H227      1.0  0.01753  0.16474  0.74130  1.0000
  Fe  Fe30      1.0  0.24907  0.15030  0.73951  1.0000
  H   H228      1.0  0.46196  0.07671  0.89941  1.0000
  C   C144      1.0  0.34988  0.56525  0.76589  1.0000
  C   C145      1.0  0.37872  0.25300  0.98196  1.0000
  H   H229      1.0  0.32366  0.34313  0.92759  1.0000
  H   H230      1.0  0.40400  0.24864  0.00895  1.0000
  H   H231      1.0  0.17737  0.30245  0.06607  1.0000
  S   S60       1.0  0.01073  0.16774  0.98162  1.0000
  Fe  Fe31      1.0  0.04485  0.33512  0.97768  1.0000
  Fe  Fe32      1.0  0.08365  0.18810  0.93293  1.0000
  S   S61       1.0  0.13178  0.35728  0.93193  1.0000
  H   H232      1.0  0.35802  0.43349  0.98284  1.0000
  H   H233      1.0  0.29984  0.24669  0.98089  1.0000
  S   S62       1.0  0.19934  0.12392  0.92342  1.0000
  S   S63       1.0  0.09911  0.42559  0.02503  1.0000
  H   H234      1.0  0.38089  0.18540  0.96923  1.0000
  H   H235      1.0  0.40860  0.28798  0.91540  1.0000
  C   C146      1.0  0.28628  0.55361  0.04353  1.0000
  C   C147      1.0  0.40270  0.35064  0.92993  1.0000
  C   C148      1.0  0.21090  0.52180  0.01748  1.0000
  H   H236      1.0  0.27668  0.20351  0.05176  1.0000
  C   C149      1.0  0.43540  0.43525  0.98347  1.0000
  N   N15       1.0  0.44039  0.34804  0.96565  1.0000
  H   H237      1.0  0.44475  0.42281  0.91720  1.0000
  H   H238      1.0  0.35985  0.38689  0.06487  1.0000
  H   H239      1.0  0.45877  0.08656  0.01626  1.0000
  H   H240      1.0  0.46415  0.43640  0.01051  1.0000
  H   H241      1.0  0.48065  0.50828  0.97169  1.0000
  H   H242      1.0  0.16880  0.53854  0.96480  1.0000
  C   C150      1.0  0.22838  0.55955  0.98452  1.0000
  H   H243      1.0  0.27226  0.52551  0.06916  1.0000
  N   N16       1.0  0.28581  0.26951  0.10021  1.0000
  C   C151      1.0  0.07133  0.27725  0.17042  1.0000
  S   S64       1.0  0.02813  0.07921  0.15603  1.0000
  H   H244      1.0  0.12688  0.21543  0.09977  1.0000
  H   H245      1.0  0.35749  0.17252  0.08378  1.0000
  C   C152      1.0  0.19027  0.28459  0.09331  1.0000
  C   C153      1.0  0.40802  0.47496  0.18906  1.0000
  H   H246      1.0  0.14513  0.27942  0.17797  1.0000
  C   C154      1.0  0.28644  0.18614  0.07922  1.0000
  C   C155      1.0  0.04498  0.35990  0.17694  1.0000
  H   H247      1.0  0.29591  0.30321  0.15282  1.0000
  H   H248      1.0  0.37139  0.23404  0.14276  1.0000
  H   H249      1.0  0.22525  0.11401  0.08489  1.0000
  H   H250      1.0  0.18720  0.34816  0.10815  1.0000
  H   H251      1.0  0.31281  0.35494  0.21882  1.0000
  H   H252      1.0  0.34773  0.49119  0.17512  1.0000
  C   C156      1.0  0.29872  0.24310  0.13641  1.0000
  C   C157      1.0  0.36760  0.36397  0.09192  1.0000
  H   H253      1.0  0.23923  0.17137  0.14352  1.0000
  H   H254      1.0  0.44078  0.35505  0.09655  1.0000
  C   C158      1.0  0.38806  0.39678  0.21366  1.0000
  H   H255      1.0  0.09768  0.42380  0.19055  1.0000
  H   H256      1.0  0.37002  0.42816  0.10768  1.0000
  C   C159      1.0  0.46532  0.37181  0.23056  1.0000
  C   C160      1.0  0.50537  0.52697  0.18090  1.0000
