data_image0
_chemical_formula_structural       HFeC2H4CSH6FeCSHCSC2S2HCS3CFeCH2CH2FeH2C2HC2H2CHSCH2SHFeC2H3FeC2HSH2SHCHCHCH3CHFe2SH3CH2C2HNHCS2C2HC2HN2HCHSC2S2CHFeH2CH2SFeHCHSCHSH2C2HFeH2CH2NSHCSC2HC2SH3FeHSHC2H2FeHCHCH7CHC3SCH2FeSH2C5HNHSFeHCHC2H2CH2CH2CHSFeHCHFeC2H3CHCHSHCH2SHCH2C3SH3CH4NH5NH2NSH2FeSC3H2CH2Fe2CH2SH4C3HCHCH2S2H2CHCSCH2FeSH2C3H2C3H2FeCSHSH2SCH3SH2SHC2SH5NCH2C5SHSC2NH2CH2FeH2C2HSFeH2CHC3HFeHC2H2FeC3NCH2CFeSHSH4C3H3SCH6C2H3NH6CHSHSCSHFeH3CSHSHCNFe2CFeCSHCSHCFe2H4CH2FeS2CH3FeHCH2C2HFeHFeCH2S2H2CSC2HC2HC2HFeCS2H2CNC2HC2H2CSC3HC3HCHNCSHSNH4CH2CHCHSCH3C2HCHSC2SH2FeH4SHFeC2SHFeCH3FeHS2C2SH3CH2C2NH4CHNH5SH2SHCFeCH2CFeCH3C2H2FeHCHC3HCSNCH3SCSHC2FeC2FeHNFeHC2HCH2CSCSCSCHCHS2H2CH4C2HC2HC3HSCSH2CH4C2HC2H4SCHFeHSHCH2C3S2H3C2FeCSC2H5CSHCH3CNSHC2HSC2H3CH3SHNH2CFeHCSHSHCHSH2Fe2HCH2SH2CHCSCHFeH2NH2CSFeHC4H2C2H4CH2C2HCFeHSHCSHSH2SH2CH2CH2CSCHC2HNFeCHN2FeH2SNH2CHSCHC3HCHSH5SH4CHCHC2H4C2H2SHC4HCHCH3SHSHCHCNFeH4C2FeH4SH2SCHCFeH2CH2SHCS2H2CH2FeS2FeHFeH2SFeH2CFe2H3C2HFeS3HS2H4CHCH2SCHC3H4NCSH3NH4FeSHCHCH2C2H4SCFeH3CH2SCH2SCHCSC4H4CH5NH2CH3CHC2H2FeHSHCSCSNHCHC3H2C2HSFeHCH2CH3CHCHCSH3C3Fe2SHFeHS2H2CH2SFeH2CH2SCS2H2CHC2NCHCHNHSCH3C2H3CH3CH2CHCHS2H2CSHCSCHN2C3SH2SFeC2H2CHFe2HCSHSHSCHNCHCH2CNSCH3Fe2HC2FeC2HFeS2FeCHCH2Fe2HSC2HNHC2SHC2HFeHCH3CH4C3HSFeHCH7CH2CHCH3C2HSH5CHSHCH4C2HSCH2CHSH6SCH2C2SC2SH2CHCH7CFeH2SC2SH3CH2CHNCH2C2H2NH2CHSFeC2HSC3SH2S2CHSHC4H2CHCHFeHCH3NHC2SHFeH3C3H3CFeHSH2C2HC2SCSHC2HNCH2CHCHFeH3NSHFeCH6SH3C2NH3CH2CHCHFeHCSH3FeHFeHCHCHFeHSH2CHSHSH3CHCH3SHFeSCSCSH2FeH2SH3SCH3CHC2SHSCH3CH2SNHCH2C2H3CHCHFeSCHCH3SH3CH2C2HSFeSH2C3HCHCH5SNCFe2HC2HC2HCHNH2CFeH2CH2CHC4FeCHCH3SH4CSC2H2S2H3CHCNH2SH3SH2SFeH2CS2CHCSC3H2CH4CHCNH2CSFeC2SCHCFeCHC3S2CH4C2H4SHSHSCFeH2C3HFeCHCH2FeH5FeSCSHNHSCHCHCHSH2S2C2HCH2SFeHC2H2FeH2S2H2CH3C3H2C5H2C2H2CH2C2SCH3SNCS3FeCSC3SHC2HSHCFeC3HSHCNH6C2H2SCHFeHFeC2SC2H6S2H3SCHCH2CH4SFeHNCH5C4SHCFeCHS2CHSHCH3C3H2FeHFeN2HNHCHCH3CH4CHFeSH2SHC2FeCH3SH2CS2H3CH3NC2H3CH5CHCH2SH6C2HCH4FeHC2HFeHCFeHFeCSC3HCFeCHCH2CSFeSCHS2H2CH2FeHC2HSCHCH2CHCHSHSH3C2FeHCHCH2SH5SCSCH2C2H2CH4CSCSCH3S3H2CFeCH2C2SH3CNSHC3HC2H2SCH2NH3CH4CH2FeC3FeHSHS2NHCH2CHSH2CHCHFeC2H3CH3NHCHNH2CH2CHSHCFeCFeH2C2H3CH3CH3C2FeH2CH2SCHCH4SC2Fe2H2SHSHC3HS2CSNC2HFeCSHSC2HCNSHCHCHS2H3S2CHCHFeNSC2HC2FeCH2CS2H5N2C2H2C6HC2HNHCH2S2HFeSHCH7CH5C2H4CH3CH2NCFeH4CHCH4CH4NC2SCH3SHC2NH2CHSH2FeH2CHSCFeHCFeCH3C2HNC3HS2HSHCNH3FeCHFeSC5H3CHFeHCHC2SCS2CH2CH2CSHC3H2SHSHCH2SNCH5FeH3SCHC2H2CH2CH2C2HC3SH2CHCHCH4SHFeCH3CSCH2C3H2S2H2SH3CNCFeHCH6CHC2FeNC2FeH4SCHCHCHCHCFeH5SCSH2CSFeHFeHCHCHNCHCH2NCHCHC2SC2H2CSHCH2C2H3CHCH3SCH5C2H3CHCSHCH5SHFeSH2CHC2H2CH5SHCSHSC2HCNSHCH2FeH2FeH2SH3SCSHNFeH2SH2CHC5FeHC4SH2C2HCHCSC2H6CH7FeHCHC2HFeH2CH4SCHCH3SCHFeCSCH8SNHCH4CHC4HFeHFeC3HNHCSC3H2CSHC2H3SHCSCHCFeHC2H3C2H2NCNCSH2SH2NHCH2C3H3SC4S2C2H5C2HNCHSCFeC2HFeNH2C2FeH5FeHC3HS2HCH5C2SNHSHC3H3SCFeCHSFeH2CSHCSCHFeHCSHSHCHCHC2HCH2FeH3C2H3SC2SCH3NSH2CFeH3C2SHCH2CSH2SCH2CH4C3SCHSHC3H3C2SH5CH2S2H2C2H6CHNCH3CSHCHCFeH2C2H2FeHSHFeSFeH2SCHNCHCFeH2CHCH2FeHCHFeSCH2C2H2C3FeHFeCS3HC3SH5C4H2C4H2SH6CH7CHSCSCH2SC2HSH2CHCHSHFeCHSC2HCHNH3NHNH4CH4CH9FeHCH3C2SHCHCFeSNCH2FeSHC3HSH2SNH3CH2C3H3CHC2H3SHFeH3CSH3CSHCNCH6CSH2C2HCNSFe2CH3NCFeHC2SFeH2FeCH2SHC2H2SCH2CH4CSHCHNSC3HCFeCH2SCH2CH4NH2FeCHC2H3FeCHCSH2FeH2CH5CHCSC2HSHCHSH2SHCSHCHNHSFeHCSHC2H2C2S4H2C2H2CHCHCHCH2CSH3SHC2FeC3NHSH2CHCNHCHC2FeH3C2HSHFeSFeHCH3CNSCHFeC2HSH5CHSH2FeC2H3CHSFeH3CH3FeH2C2SH3CFeHCH4C2HN2H2CHFeCHCH2NH2CSH5NHCSCH2SCH2SC2HC2HSC3HSH5C2HCSHC2HCH6FeH3CH2C2HFeHCHSCH2CH3FeH2SH2C2HFeH4SC2H2SFeC6HCHSC2H2CHNCH2CNFeNS2CSHC3H3SHC2SHCH2C3HCSH2CSHCHSFeCHCH4CHFeHCHCH2FeSHC2HC2HCSC2FeH3CSCSC2H7C2HCH3CFeH2CHSH3SCHCH4SH2SH3CHFeH3C3HFeC2S2HCH2CHC2H2FeCNCSFeH2CHFeHFeS2CSCH2SCHC2HCH2CH2CH2SH3CSH5C2SCHFeC2HC3H3CH3CFeH2SCSHCFeC5NCFeSHSH2FeSHC2SNC2SH4CHNHNSNHC2SCHC3HNH2CH3CH2CH3CH2CSH2Fe2HCHCS2FeH3SHCHSH2C2H4SC2SH4FeSCHCNHSHCH3FeHC2HFe2HSFeHC2HC2SHS2HSFeH6SCHC2HCH2CHSCH5S2H2SH2SHFe2H2S2C4HCH2CH2C2SHCH3CSCHC2SCHCFeC2HCNHCH3FeH2CH3CSHCH2CHC3HNFeHSH2CH4NH3FeC2HC2H2CS2C2HCSCH4FeCHCH2C2HC2H2SH2CH3CSC3HCH3SHC3FeCNCHCH3SCHNSH2SCH3CH2FeHCFeCH4C2SHFeHSCH3C2SCNFeSC2HFeC2HCSCFeHNCHSHC2H2S2C2HSH7SH2CSH2CFeHSH2C4H2SHNHFeCHSHSHC3H3C2HFeH5CH3SH6C3H2C2H6NHSHCH2CHCHC2NH2CNH
_chemical_formula_sum              "H2112 Fe264 C1320 S528 N132"
_cell_length_a       63.8672
_cell_length_b       62.6592
_cell_length_c       23.5309
_cell_angle_alpha    62.293
_cell_angle_beta     88.3371
_cell_angle_gamma    115.726

_space_group_name_H-M_alt    "P 1"
_space_group_IT_number       1

loop_
  _space_group_symop_operation_xyz
  'x, y, z'

loop_
  _atom_site_type_symbol
  _atom_site_label
  _atom_site_symmetry_multiplicity
  _atom_site_fract_x
  _atom_site_fract_y
  _atom_site_fract_z
  _atom_site_occupancy
  H   H1        1.0  0.04879  0.10544  0.83488  1.0000
  Fe  Fe1       1.0  0.10608  0.09862  0.78444  1.0000
  C   C1        1.0  0.09422  0.03784  0.95400  1.0000
  C   C2        1.0  0.34710  0.08188  0.92519  1.0000
  H   H2        1.0  0.25742  0.09066  0.23613  1.0000
  H   H3        1.0  0.17009  0.14009  0.92835  1.0000
  H   H4        1.0  0.14733  0.17111  0.91816  1.0000
  H   H5        1.0  0.37507  0.12726  0.13929  1.0000
  C   C3        1.0  0.15908  0.98072  0.90321  1.0000
  S   S1        1.0  0.21947  0.98824  0.01154  1.0000
  H   H6        1.0  0.20325  0.07033  0.99161  1.0000
  H   H7        1.0  0.06720  0.97750  0.95503  1.0000
  H   H8        1.0  0.32150  0.97844  0.76891  1.0000
  H   H9        1.0  0.33689  0.04707  0.14621  1.0000
  H   H10       1.0  0.18564  0.95306  0.78656  1.0000
  H   H11       1.0  0.20049  0.02126  0.93895  1.0000
  Fe  Fe2       1.0  0.31675  0.16966  0.01978  1.0000
  C   C4        1.0  0.21231  0.10612  0.22890  1.0000
  S   S2        1.0  0.34440  0.10166  0.05656  1.0000
  H   H12       1.0  0.13890  0.09637  0.14095  1.0000
  C   C5        1.0  0.28356  0.03895  0.06729  1.0000
  S   S3        1.0  0.30035  0.17367  0.09681  1.0000
  C   C6        1.0  0.15252  0.11557  0.03468  1.0000
  C   C7        1.0  0.33443  0.07408  0.24103  1.0000
  S   S4        1.0  0.11814  0.98137  0.87666  1.0000
  S   S5        1.0  0.28367  0.15310  0.84291  1.0000
  H   H13       1.0  0.10251  0.04458  0.98806  1.0000
  C   C8        1.0  0.36710  0.02651  0.90038  1.0000
  S   S6        1.0  0.30253  0.99098  0.86738  1.0000
  S   S7        1.0  0.15744  0.07093  0.91720  1.0000
  S   S8        1.0  0.35277  0.17186  0.01189  1.0000
  C   C9        1.0  0.17248  0.96786  0.93077  1.0000
  Fe  Fe3       1.0  0.12736  0.04897  0.12596  1.0000
  C   C10       1.0  0.30440  0.96500  0.76294  1.0000
  H   H14       1.0  0.32753  0.10991  0.79167  1.0000
  H   H15       1.0  0.19185  0.98049  0.91921  1.0000
  C   C11       1.0  0.19077  0.15856  0.03970  1.0000
  H   H16       1.0  0.33007  0.06129  0.95637  1.0000
  H   H17       1.0  0.05861  0.96860  0.06909  1.0000
  Fe  Fe4       1.0  0.14982  0.10142  0.83561  1.0000
  H   H18       1.0  0.16828  0.00308  0.87096  1.0000
  H   H19       1.0  0.20384  0.17865  0.93253  1.0000
  C   C12       1.0  0.06611  0.01802  0.75169  1.0000
  C   C13       1.0  0.20098  0.96565  0.21847  1.0000
  H   H20       1.0  0.08915  0.01154  0.88652  1.0000
  C   C14       1.0  0.28440  0.01527  0.11347  1.0000
  C   C15       1.0  0.16944  0.93699  0.83141  1.0000
  H   H21       1.0  0.17699  0.94801  0.14048  1.0000
  H   H22       1.0  0.14686  0.96163  0.04419  1.0000
  C   C16       1.0  0.23968  0.12419  0.00903  1.0000
  H   H23       1.0  0.17382  0.13289  0.14606  1.0000
  S   S9        1.0  0.08555  0.95304  0.16937  1.0000
  C   C17       1.0  0.05776  0.04620  0.78252  1.0000
  H   H24       1.0  0.07958  0.04305  0.94459  1.0000
  H   H25       1.0  0.25452  0.11645  0.16556  1.0000
  S   S10       1.0  0.13378  0.08819  0.76662  1.0000
  H   H26       1.0  0.10914  0.12824  0.95670  1.0000
  Fe  Fe5       1.0  0.26999  0.98795  0.91687  1.0000
  C   C18       1.0  0.07487  0.00018  0.93442  1.0000
  C   C19       1.0  0.32478  0.00124  0.90595  1.0000
  H   H27       1.0  0.16531  0.04027  0.81209  1.0000
  H   H28       1.0  0.34810  0.08644  0.77553  1.0000
  H   H29       1.0  0.34851  0.00736  0.21411  1.0000
  Fe  Fe6       1.0  0.08718  0.95372  0.85566  1.0000
  C   C20       1.0  0.06595  0.99136  0.04620  1.0000
  C   C21       1.0  0.32089  0.06849  0.07937  1.0000
  H   H30       1.0  0.11217  0.17280  0.87310  1.0000
  S   S11       1.0  0.06598  0.06987  0.80968  1.0000
  H   H31       1.0  0.09888  0.97964  0.01523  1.0000
  H   H32       1.0  0.23881  0.14158  0.00891  1.0000
  S   S12       1.0  0.29744  0.12998  0.02030  1.0000
  H   H33       1.0  0.13120  0.96890  0.09092  1.0000
  C   C22       1.0  0.32720  0.09963  0.84515  1.0000
  H   H34       1.0  0.30103  0.08384  0.01495  1.0000
  C   C23       1.0  0.21630  0.12503  0.93005  1.0000
  H   H35       1.0  0.22179  0.12665  0.18047  1.0000
  C   C24       1.0  0.34948  0.01518  0.87269  1.0000
  H   H36       1.0  0.25644  0.13367  0.96974  1.0000
  H   H37       1.0  0.15996  0.94743  0.83730  1.0000
  H   H38       1.0  0.14471  0.04801  0.76920  1.0000
  C   C25       1.0  0.18180  0.06859  0.89100  1.0000
  H   H39       1.0  0.23563  0.09257  0.95605  1.0000
  Fe  Fe7       1.0  0.33420  0.13434  0.00346  1.0000
  Fe  Fe8       1.0  0.25159  0.98542  0.04109  1.0000
  S   S13       1.0  0.34281  0.15900  0.89183  1.0000
  H   H40       1.0  0.08753  0.16811  0.92509  1.0000
  H   H41       1.0  0.23145  0.13245  0.88860  1.0000
  H   H42       1.0  0.19954  0.09019  0.21884  1.0000
  C   C26       1.0  0.32061  0.16157  0.19944  1.0000
  H   H43       1.0  0.06030  0.00529  0.92210  1.0000
  H   H44       1.0  0.10996  0.15258  0.07420  1.0000
  C   C27       1.0  0.10477  0.16292  0.02861  1.0000
  C   C28       1.0  0.33535  0.00881  0.99589  1.0000
  H   H45       1.0  0.15348  0.95867  0.20192  1.0000
  N   N1        1.0  0.13961  0.93703  0.15092  1.0000
  H   H46       1.0  0.30463  0.14094  0.22518  1.0000
  C   C29       1.0  0.27805  0.18090  0.80371  1.0000
  S   S14       1.0  0.19411  0.02976  0.19756  1.0000
  S   S15       1.0  0.22609  0.17085  0.21925  1.0000
  C   C30       1.0  0.36036  0.00319  0.19026  1.0000
  C   C31       1.0  0.34746  0.07715  0.82928  1.0000
  H   H47       1.0  0.30420  0.99990  0.17793  1.0000
  C   C32       1.0  0.24398  0.09623  0.21444  1.0000
  C   C33       1.0  0.17057  0.13900  0.97556  1.0000
  H   H48       1.0  0.08218  0.12073  0.00660  1.0000
  N   N2        1.0  0.21801  0.10720  0.99630  1.0000
  N   N3        1.0  0.34815  0.09530  0.85355  1.0000
  H   H49       1.0  0.19906  0.11350  0.92134  1.0000
  C   C34       1.0  0.04382  0.15570  0.89048  1.0000
  H   H50       1.0  0.21687  0.14376  0.92547  1.0000
  S   S16       1.0  0.14513  0.05007  0.20628  1.0000
  C   C35       1.0  0.16096  0.93882  0.97184  1.0000
  C   C36       1.0  0.37094  0.12256  0.81486  1.0000
  S   S17       1.0  0.17100  0.15721  0.21268  1.0000
  S   S18       1.0  0.26228  0.98199  0.13345  1.0000
  C   C37       1.0  0.33913  0.16759  0.22972  1.0000
  H   H51       1.0  0.33065  0.05626  0.85792  1.0000
  Fe  Fe9       1.0  0.15617  0.02195  0.19933  1.0000
  H   H52       1.0  0.08462  0.15285  0.04330  1.0000
  H   H53       1.0  0.16305  0.98112  0.08049  1.0000
  C   C38       1.0  0.17259  0.13520  0.09828  1.0000
  H   H54       1.0  0.21870  0.01006  0.14711  1.0000
  H   H55       1.0  0.14577  0.16323  0.00288  1.0000
  S   S19       1.0  0.12073  0.10966  0.85826  1.0000
  Fe  Fe10      1.0  0.10659  0.98669  0.19012  1.0000
  H   H56       1.0  0.35498  0.01801  0.82462  1.0000
  C   C39       1.0  0.18972  0.16062  0.97806  1.0000
  H   H57       1.0  0.23760  0.10732  0.77855  1.0000
  S   S20       1.0  0.24667  0.06178  0.83597  1.0000
  C   C40       1.0  0.15322  0.11406  0.09557  1.0000
  H   H58       1.0  0.21069  0.96213  0.18844  1.0000
  S   S21       1.0  0.17513  0.14580  0.75282  1.0000
  H   H59       1.0  0.23208  0.07994  0.20428  1.0000
  H   H60       1.0  0.05056  0.99533  0.03927  1.0000
  C   C41       1.0  0.31781  0.99745  0.96839  1.0000
  C   C42       1.0  0.10225  0.13083  0.99575  1.0000
  H   H61       1.0  0.19587  0.08000  0.09889  1.0000
  Fe  Fe11      1.0  0.24486  0.02105  0.90734  1.0000
  H   H62       1.0  0.16572  0.02538  0.97005  1.0000
  H   H63       1.0  0.26886  0.03670  0.04460  1.0000
  C   C43       1.0  0.20191  0.09160  0.83635  1.0000
  H   H64       1.0  0.04772  0.16001  0.84012  1.0000
  H   H65       1.0  0.11354  0.00810  0.02836  1.0000
  N   N4        1.0  0.08504  0.00786  0.98207  1.0000
  S   S22       1.0  0.24565  0.95225  0.01982  1.0000
  H   H66       1.0  0.17923  0.08411  0.03798  1.0000
  C   C44       1.0  0.20107  0.04092  0.91078  1.0000
  S   S23       1.0  0.14140  0.02391  0.11294  1.0000
  C   C45       1.0  0.22148  0.06401  0.85727  1.0000
  C   C46       1.0  0.32185  0.04481  0.12490  1.0000
  H   H67       1.0  0.07319  0.99664  0.08324  1.0000
  C   C47       1.0  0.30338  0.01816  0.14288  1.0000
  C   C48       1.0  0.07982  0.17924  0.22160  1.0000
  S   S24       1.0  0.09151  0.01185  0.19778  1.0000
  H   H68       1.0  0.35761  0.00798  0.14007  1.0000
  H   H69       1.0  0.36319  0.07382  0.83437  1.0000
  H   H70       1.0  0.33866  0.07327  0.19764  1.0000
  Fe  Fe12      1.0  0.21567  0.95796  0.98108  1.0000
  H   H71       1.0  0.37122  0.13753  0.82810  1.0000
  S   S25       1.0  0.13047  0.08659  0.03534  1.0000
  H   H72       1.0  0.22228  0.07113  0.04564  1.0000
  C   C49       1.0  0.30165  0.06556  0.05085  1.0000
  C   C50       1.0  0.10723  0.17563  0.91378  1.0000
  H   H73       1.0  0.25700  0.14087  0.22466  1.0000
  H   H74       1.0  0.34806  0.09530  0.94461  1.0000
  Fe  Fe13      1.0  0.30786  0.15845  0.90851  1.0000
  H   H75       1.0  0.32975  0.00660  0.04309  1.0000
  C   C51       1.0  0.20555  0.99278  0.19517  1.0000
  H   H76       1.0  0.10852  0.05077  0.90564  1.0000
  C   C52       1.0  0.14542  0.96334  0.08887  1.0000
  H   H77       1.0  0.35391  0.98044  0.22123  1.0000
  H   H78       1.0  0.17257  0.07572  0.76262  1.0000
  H   H79       1.0  0.36253  0.07810  0.93353  1.0000
  H   H80       1.0  0.30325  0.07819  0.21996  1.0000
  H   H81       1.0  0.10627  0.11882  0.04207  1.0000
  H   H82       1.0  0.32709  0.11306  0.86346  1.0000
  H   H83       1.0  0.28975  0.95423  0.80963  1.0000
  C   C53       1.0  0.22182  0.08934  0.81978  1.0000
  H   H84       1.0  0.30969  0.07957  0.87337  1.0000
  C   C54       1.0  0.18132  0.04323  0.92794  1.0000
  C   C55       1.0  0.19609  0.09519  0.04897  1.0000
  C   C56       1.0  0.19205  0.99718  0.23200  1.0000
  S   S26       1.0  0.27737  0.02090  0.93997  1.0000
  C   C57       1.0  0.13406  0.96464  0.91608  1.0000
  H   H85       1.0  0.11987  0.01428  0.94585  1.0000
  H   H86       1.0  0.24164  0.11128  0.05828  1.0000
  Fe  Fe14      1.0  0.04937  0.95442  0.78067  1.0000
  S   S27       1.0  0.23954  0.99089  0.87537  1.0000
  H   H87       1.0  0.16252  0.01444  0.75252  1.0000
  H   H88       1.0  0.29881  0.98605  0.99524  1.0000
  C   C58       1.0  0.21993  0.08435  0.99737  1.0000
  C   C59       1.0  0.35998  0.02392  0.96116  1.0000
  C   C60       1.0  0.14020  0.17320  0.95791  1.0000
  C   C61       1.0  0.10519  0.00216  0.99348  1.0000
  C   C62       1.0  0.12237  0.93555  0.95858  1.0000
  H   H89       1.0  0.20239  0.11131  0.80803  1.0000
  N   N5        1.0  0.11358  0.16061  0.97406  1.0000
  H   H90       1.0  0.19509  0.11167  0.05310  1.0000
  S   S28       1.0  0.04963  0.94561  0.88439  1.0000
  Fe  Fe15      1.0  0.14460  0.15305  0.76959  1.0000
  H   H91       1.0  0.28151  0.99328  0.75436  1.0000
  C   C63       1.0  0.07368  0.03811  0.76955  1.0000
  H   H92       1.0  0.37351  0.13242  0.75994  1.0000
  C   C64       1.0  0.04351  0.17578  0.90084  1.0000
  C   C65       1.0  0.13716  0.93996  0.20915  1.0000
  H   H93       1.0  0.30655  0.94887  0.75971  1.0000
  H   H94       1.0  0.12134  0.94242  0.21716  1.0000
  C   C66       1.0  0.16433  0.05557  0.76483  1.0000
  H   H95       1.0  0.09158  0.04667  0.77512  1.0000
  H   H96       1.0  0.06997  0.15650  0.24105  1.0000
  C   C67       1.0  0.05409  0.12317  0.78260  1.0000
  H   H97       1.0  0.06142  0.14275  0.78291  1.0000
  H   H98       1.0  0.20217  0.04799  0.75292  1.0000
  C   C68       1.0  0.32314  0.18194  0.13521  1.0000
  H   H99       1.0  0.06923  0.12475  0.75300  1.0000
  S   S29       1.0  0.08794  0.96553  0.74955  1.0000
  Fe  Fe16      1.0  0.08052  0.16619  0.51036  1.0000
  H   H100      1.0  0.16094  0.94114  0.71932  1.0000
  C   C69       1.0  0.10984  0.95751  0.47391  1.0000
  H   H101      1.0  0.07063  0.07372  0.26129  1.0000
  Fe  Fe17      1.0  0.18958  0.14779  0.29206  1.0000
  C   C70       1.0  0.17524  0.97482  0.29425  1.0000
  C   C71       1.0  0.32368  0.08583  0.65170  1.0000
  H   H102      1.0  0.22894  0.06538  0.35016  1.0000
  H   H103      1.0  0.21761  0.98211  0.46859  1.0000
  H   H104      1.0  0.31347  0.01720  0.71433  1.0000
  C   C72       1.0  0.12898  0.15799  0.39164  1.0000
  H   H105      1.0  0.20895  0.16953  0.63623  1.0000
  C   C73       1.0  0.04295  0.00695  0.74345  1.0000
  H   H106      1.0  0.31866  0.07541  0.39888  1.0000
  S   S30       1.0  0.06224  0.12044  0.58431  1.0000
  H   H107      1.0  0.09345  0.02427  0.46107  1.0000
  C   C74       1.0  0.24638  0.12012  0.27230  1.0000
  H   H108      1.0  0.31510  0.00853  0.59644  1.0000
  H   H109      1.0  0.14568  0.13367  0.35019  1.0000
  S   S31       1.0  0.12237  0.98243  0.27602  1.0000
  H   H110      1.0  0.04800  0.12883  0.46113  1.0000
  C   C75       1.0  0.34824  0.07104  0.28618  1.0000
  H   H111      1.0  0.11442  0.12117  0.35160  1.0000
  H   H112      1.0  0.21185  0.06709  0.66292  1.0000
  C   C76       1.0  0.20133  0.95878  0.62994  1.0000
  C   C77       1.0  0.19140  0.97411  0.58910  1.0000
  C   C78       1.0  0.06641  0.93510  0.49153  1.0000
  S   S32       1.0  0.22273  0.97281  0.66539  1.0000
  H   H113      1.0  0.11392  0.96753  0.41866  1.0000
  H   H114      1.0  0.12349  0.09835  0.41109  1.0000
  H   H115      1.0  0.25638  0.99408  0.29545  1.0000
  C   C79       1.0  0.24067  0.97938  0.34176  1.0000
  H   H116      1.0  0.27862  0.01657  0.35529  1.0000
  H   H117      1.0  0.27129  0.97538  0.65264  1.0000
  H   H118      1.0  0.28177  0.14365  0.72087  1.0000
  H   H119      1.0  0.06315  0.94031  0.29847  1.0000
  N   N6        1.0  0.29888  0.98177  0.70314  1.0000
  H   H120      1.0  0.25075  0.95174  0.27554  1.0000
  H   H121      1.0  0.20528  0.16581  0.45910  1.0000
  H   H122      1.0  0.35381  0.07070  0.37602  1.0000
  H   H123      1.0  0.08385  0.04101  0.26768  1.0000
  H   H124      1.0  0.14796  0.17255  0.35829  1.0000
  N   N7        1.0  0.17686  0.05861  0.70553  1.0000
  H   H125      1.0  0.15898  0.07864  0.64350  1.0000
  H   H126      1.0  0.25402  0.03360  0.28955  1.0000
  N   N8        1.0  0.23970  0.99287  0.37837  1.0000
  S   S33       1.0  0.09597  0.00485  0.37471  1.0000
  H   H127      1.0  0.31972  0.14944  0.58337  1.0000
  H   H128      1.0  0.12537  0.95490  0.48791  1.0000
  Fe  Fe18      1.0  0.30109  0.06207  0.55232  1.0000
  S   S34       1.0  0.33739  0.07096  0.57127  1.0000
  C   C80       1.0  0.08926  0.03034  0.36507  1.0000
  C   C81       1.0  0.34277  0.07217  0.34218  1.0000
  C   C82       1.0  0.21037  0.08040  0.51195  1.0000
  H   H129      1.0  0.27719  0.11489  0.71312  1.0000
  H   H130      1.0  0.13662  0.10467  0.50194  1.0000
  C   C83       1.0  0.28506  0.17683  0.31331  1.0000
  H   H131      1.0  0.04703  0.16226  0.68261  1.0000
  H   H132      1.0  0.30576  0.06840  0.66720  1.0000
  Fe  Fe19      1.0  0.26192  0.07801  0.53794  1.0000
  Fe  Fe20      1.0  0.11026  0.01097  0.27729  1.0000
  C   C84       1.0  0.36549  0.13336  0.39937  1.0000
  H   H133      1.0  0.21248  0.08462  0.70573  1.0000
  H   H134      1.0  0.26405  0.98329  0.43276  1.0000
  S   S35       1.0  0.28261  0.03100  0.52247  1.0000
  H   H135      1.0  0.31216  0.10230  0.70041  1.0000
  H   H136      1.0  0.17928  0.06003  0.48410  1.0000
  H   H137      1.0  0.24320  0.15031  0.44718  1.0000
  H   H138      1.0  0.12687  0.16531  0.42521  1.0000
  C   C85       1.0  0.26205  0.00150  0.39916  1.0000
  C   C86       1.0  0.23773  0.01764  0.33418  1.0000
  C   C87       1.0  0.37033  0.13033  0.61445  1.0000
  H   H139      1.0  0.27695  0.94703  0.69259  1.0000
  C   C88       1.0  0.09804  0.11042  0.47345  1.0000
  H   H140      1.0  0.33721  0.15163  0.27913  1.0000
  C   C89       1.0  0.08166  0.05409  0.41302  1.0000
  H   H141      1.0  0.33641  0.01002  0.64450  1.0000
  H   H142      1.0  0.30711  0.14094  0.69964  1.0000
  S   S36       1.0  0.25147  0.10741  0.54017  1.0000
  S   S37       1.0  0.17495  0.10417  0.37827  1.0000
  H   H143      1.0  0.30109  0.15509  0.52911  1.0000
  H   H144      1.0  0.28936  0.16985  0.28116  1.0000
  C   C90       1.0  0.04439  0.17219  0.28446  1.0000
  H   H145      1.0  0.28947  0.12168  0.60502  1.0000
  C   C91       1.0  0.20416  0.16540  0.55121  1.0000
  S   S38       1.0  0.33917  0.95667  0.54764  1.0000
  C   C92       1.0  0.21628  0.07136  0.32443  1.0000
  H   H146      1.0  0.11701  0.16061  0.35869  1.0000
  H   H147      1.0  0.19683  0.99462  0.57968  1.0000
  Fe  Fe21      1.0  0.24843  0.01811  0.58979  1.0000
  S   S39       1.0  0.29744  0.09578  0.46767  1.0000
  H   H148      1.0  0.08068  0.05733  0.45405  1.0000
  H   H149      1.0  0.06538  0.94959  0.50476  1.0000
  C   C93       1.0  0.12684  0.12008  0.38380  1.0000
  C   C94       1.0  0.28927  0.13770  0.69119  1.0000
  C   C95       1.0  0.34303  0.08988  0.61065  1.0000
  H   H150      1.0  0.05281  0.17250  0.32495  1.0000
  H   H151      1.0  0.25420  0.12713  0.63209  1.0000
  C   C96       1.0  0.31876  0.99575  0.64244  1.0000
  C   C97       1.0  0.30085  0.14464  0.58260  1.0000
  C   C98       1.0  0.32291  0.07497  0.35494  1.0000
  H   H152      1.0  0.30681  0.16134  0.40843  1.0000
  H   H153      1.0  0.27384  0.17714  0.71787  1.0000
  Fe  Fe22      1.0  0.27642  0.06365  0.44283  1.0000
  C   C99       1.0  0.16642  0.93567  0.57544  1.0000
  S   S40       1.0  0.37114  0.06362  0.27698  1.0000
  H   H154      1.0  0.22148  0.01201  0.31578  1.0000
  S   S41       1.0  0.12773  0.14274  0.69661  1.0000
  H   H155      1.0  0.09324  0.08818  0.50357  1.0000
  H   H156      1.0  0.20099  0.96650  0.42488  1.0000
  S   S42       1.0  0.33095  0.98561  0.39959  1.0000
  C   C100      1.0  0.07571  0.06304  0.30471  1.0000
  H   H157      1.0  0.09485  0.11635  0.50929  1.0000
  H   H158      1.0  0.15936  0.14017  0.44208  1.0000
  H   H159      1.0  0.32386  0.17089  0.33033  1.0000
  S   S43       1.0  0.34875  0.02044  0.47482  1.0000
  H   H160      1.0  0.22390  0.97224  0.32621  1.0000
  H   H161      1.0  0.24253  0.96087  0.37367  1.0000
  S   S44       1.0  0.24054  0.04797  0.50717  1.0000
  H   H162      1.0  0.26203  0.01180  0.42698  1.0000
  C   C101      1.0  0.21573  0.17358  0.48737  1.0000
  C   C102      1.0  0.29650  0.00304  0.70945  1.0000
  S   S45       1.0  0.17268  0.14286  0.58397  1.0000
  H   H163      1.0  0.13770  0.13245  0.50910  1.0000
  H   H164      1.0  0.32108  0.98032  0.63597  1.0000
  H   H165      1.0  0.23625  0.02774  0.36117  1.0000
  H   H166      1.0  0.10932  0.97240  0.48634  1.0000
  H   H167      1.0  0.27273  0.15783  0.36260  1.0000
  N   N9        1.0  0.22974  0.09847  0.25997  1.0000
  C   C103      1.0  0.22861  0.10592  0.50074  1.0000
  H   H168      1.0  0.08504  0.11161  0.44315  1.0000
  H   H169      1.0  0.18565  0.08406  0.59821  1.0000
  C   C104      1.0  0.21771  0.17578  0.58711  1.0000
  C   C105      1.0  0.36659  0.11125  0.59512  1.0000
  C   C106      1.0  0.26736  0.14960  0.61122  1.0000
  C   C107      1.0  0.17367  0.96239  0.56253  1.0000
  C   C108      1.0  0.07457  0.06741  0.35758  1.0000
  S   S46       1.0  0.28120  0.96433  0.54705  1.0000
  H   H170      1.0  0.16587  0.97417  0.53118  1.0000
  S   S47       1.0  0.06209  0.08721  0.35831  1.0000
  C   C109      1.0  0.08869  0.03525  0.41719  1.0000
  C   C110      1.0  0.20192  0.06484  0.70681  1.0000
  N   N10       1.0  0.29149  0.15402  0.61914  1.0000
  H   H171      1.0  0.23623  0.12233  0.30661  1.0000
  H   H172      1.0  0.18852  0.10216  0.64040  1.0000
  C   C111      1.0  0.08332  0.04470  0.30812  1.0000
  H   H173      1.0  0.05708  0.14545  0.65338  1.0000
  H   H174      1.0  0.35105  0.11446  0.40208  1.0000
  Fe  Fe23      1.0  0.31917  0.97872  0.49985  1.0000
  H   H175      1.0  0.17265  0.03390  0.66229  1.0000
  H   H176      1.0  0.29269  0.01624  0.66480  1.0000
  C   C112      1.0  0.21278  0.13013  0.41743  1.0000
  C   C113      1.0  0.13998  0.12639  0.47276  1.0000
  H   H177      1.0  0.26034  0.95275  0.74203  1.0000
  S   S48       1.0  0.26710  0.04705  0.62521  1.0000
  Fe  Fe24      1.0  0.36992  0.99908  0.51527  1.0000
  H   H178      1.0  0.20493  0.07227  0.35923  1.0000
  H   H179      1.0  0.26823  0.16117  0.55737  1.0000
  C   C114      1.0  0.17750  0.08180  0.64430  1.0000
  H   H180      1.0  0.10873  0.16652  0.73599  1.0000
  C   C115      1.0  0.19332  0.07975  0.47574  1.0000
  C   C116      1.0  0.30826  0.07645  0.31195  1.0000
  C   C117      1.0  0.22932  0.13064  0.45514  1.0000
  H   H181      1.0  0.16500  0.97821  0.32333  1.0000
  Fe  Fe25      1.0  0.35370  0.96708  0.44483  1.0000
  H   H182      1.0  0.25972  0.11482  0.29579  1.0000
  C   C118      1.0  0.16360  0.03236  0.70631  1.0000
  C   C119      1.0  0.31438  0.07679  0.25384  1.0000
  H   H183      1.0  0.23024  0.93536  0.57667  1.0000
  H   H184      1.0  0.21401  0.14945  0.38040  1.0000
  Fe  Fe26      1.0  0.15670  0.13296  0.68507  1.0000
  C   C120      1.0  0.32741  0.10475  0.67153  1.0000
  C   C121      1.0  0.19483  0.10471  0.42756  1.0000
  C   C122      1.0  0.27586  0.96336  0.69764  1.0000
  N   N11       1.0  0.12346  0.12872  0.43041  1.0000
  C   C123      1.0  0.35055  0.12780  0.64981  1.0000
  H   H185      1.0  0.20914  0.06113  0.54942  1.0000
  H   H186      1.0  0.21880  0.95358  0.47199  1.0000
  C   C124      1.0  0.31899  0.17926  0.35751  1.0000
  Fe  Fe27      1.0  0.36238  0.02605  0.37725  1.0000
  S   S49       1.0  0.35443  0.15567  0.65700  1.0000
  H   H187      1.0  0.14461  0.02704  0.70531  1.0000
  S   S50       1.0  0.28133  0.07516  0.33595  1.0000
  H   H188      1.0  0.25985  0.15681  0.63723  1.0000
  H   H189      1.0  0.06856  0.94448  0.43679  1.0000
  H   H190      1.0  0.20394  0.05434  0.31697  1.0000
  H   H191      1.0  0.36196  0.13010  0.45022  1.0000
  C   C125      1.0  0.21833  0.97292  0.43842  1.0000
  C   C126      1.0  0.17109  0.94784  0.31819  1.0000
  C   C127      1.0  0.18327  0.94305  0.27910  1.0000
  H   H192      1.0  0.20106  0.10767  0.26234  1.0000
  H   H193      1.0  0.36331  0.15133  0.36498  1.0000
  H   H194      1.0  0.27153  0.93308  0.35618  1.0000
  S   S51       1.0  0.35546  0.93531  0.42928  1.0000
  C   C128      1.0  0.26147  0.93282  0.55370  1.0000
  H   H195      1.0  0.07828  0.01128  0.74372  1.0000
  H   H196      1.0  0.27507  0.93374  0.24982  1.0000
  H   H197      1.0  0.09111  0.18227  0.25538  1.0000
  H   H198      1.0  0.09306  0.36191  0.93075  1.0000
  H   H199      1.0  0.23634  0.37625  0.14040  1.0000
  H   H200      1.0  0.31114  0.27304  0.22890  1.0000
  C   C129      1.0  0.05288  0.29761  0.96806  1.0000
  C   C130      1.0  0.11022  0.36133  0.93210  1.0000
  H   H201      1.0  0.14037  0.32059  0.08062  1.0000
  H   H202      1.0  0.07897  0.27560  0.20450  1.0000
  H   H203      1.0  0.08963  0.34661  0.84694  1.0000
  N   N12       1.0  0.28618  0.24056  0.97696  1.0000
  H   H204      1.0  0.10195  0.32512  0.89408  1.0000
  H   H205      1.0  0.28197  0.40700  0.95120  1.0000
  H   H206      1.0  0.31525  0.26202  0.88797  1.0000
  H   H207      1.0  0.28874  0.35154  0.13661  1.0000
  H   H208      1.0  0.14932  0.19581  0.93913  1.0000
  H   H209      1.0  0.12198  0.37667  0.94506  1.0000
  C   C131      1.0  0.34443  0.20816  0.10065  1.0000
  H   H210      1.0  0.23239  0.30997  0.77419  1.0000
  S   S52       1.0  0.07804  0.39942  0.05089  1.0000
  H   H211      1.0  0.25073  0.27590  0.19843  1.0000
  S   S53       1.0  0.07227  0.37798  0.21041  1.0000
  C   C132      1.0  0.13780  0.32615  0.11777  1.0000
  S   S54       1.0  0.15101  0.20737  0.20326  1.0000
  H   H212      1.0  0.18479  0.27775  0.19666  1.0000
  Fe  Fe28      1.0  0.35084  0.41128  0.08463  1.0000
  H   H213      1.0  0.26631  0.19577  0.03937  1.0000
  H   H214      1.0  0.11012  0.39568  0.80836  1.0000
  H   H215      1.0  0.11686  0.19851  0.89342  1.0000
  C   C133      1.0  0.05508  0.28021  0.02904  1.0000
  S   S55       1.0  0.32498  0.19798  0.90920  1.0000
  H   H216      1.0  0.13221  0.31808  0.24070  1.0000
  S   S56       1.0  0.35142  0.30512  0.90852  1.0000
  H   H217      1.0  0.10549  0.34014  0.97368  1.0000
  C   C134      1.0  0.27529  0.33165  0.14140  1.0000
  N   N13       1.0  0.21966  0.27129  0.77772  1.0000
  Fe  Fe29      1.0  0.07549  0.23989  0.85400  1.0000
  Fe  Fe30      1.0  0.23672  0.40620  0.90819  1.0000
  C   C135      1.0  0.13997  0.42292  0.97685  1.0000
  Fe  Fe31      1.0  0.12373  0.25838  0.88527  1.0000
  C   C136      1.0  0.30810  0.28011  0.17996  1.0000
  S   S57       1.0  0.13029  0.38718  0.11294  1.0000
  H   H218      1.0  0.23204  0.25535  0.86382  1.0000
  C   C137      1.0  0.13918  0.23337  0.08932  1.0000
  S   S58       1.0  0.34115  0.35011  0.99561  1.0000
  H   H219      1.0  0.20138  0.29367  0.77304  1.0000
  C   C138      1.0  0.19666  0.24462  0.80427  1.0000
  Fe  Fe32      1.0  0.05694  0.39799  0.13144  1.0000
  Fe  Fe33      1.0  0.17959  0.19527  0.21515  1.0000
  H   H220      1.0  0.34665  0.22375  0.05033  1.0000
  H   H221      1.0  0.17317  0.20289  0.10488  1.0000
  H   H222      1.0  0.22996  0.28872  0.18236  1.0000
  H   H223      1.0  0.29113  0.20989  0.97069  1.0000
  C   C139      1.0  0.28679  0.26328  0.17186  1.0000
  H   H224      1.0  0.14273  0.34742  0.91038  1.0000
  H   H225      1.0  0.18799  0.40979  0.13332  1.0000
  Fe  Fe34      1.0  0.04691  0.35665  0.08571  1.0000
  S   S59       1.0  0.36664  0.42111  0.98344  1.0000
  S   S60       1.0  0.32335  0.42005  0.11483  1.0000
  C   C140      1.0  0.15274  0.23774  0.98500  1.0000
  H   H226      1.0  0.34141  0.31974  0.13186  1.0000
  H   H227      1.0  0.32897  0.21181  0.22318  1.0000
  H   H228      1.0  0.13853  0.41209  0.82247  1.0000
  Fe  Fe35      1.0  0.35138  0.34066  0.82011  1.0000
  H   H229      1.0  0.18976  0.23331  0.85976  1.0000
  C   C141      1.0  0.25675  0.39085  0.04298  1.0000
  H   H230      1.0  0.06430  0.20195  0.11606  1.0000
  H   H231      1.0  0.26350  0.20953  0.95579  1.0000
  C   C142      1.0  0.16485  0.40180  0.01141  1.0000
  C   C143      1.0  0.24712  0.32115  0.23387  1.0000
  H   H232      1.0  0.13844  0.28437  0.22926  1.0000
  Fe  Fe36      1.0  0.35839  0.37680  0.03750  1.0000
  H   H233      1.0  0.26654  0.25962  0.10238  1.0000
  Fe  Fe37      1.0  0.35915  0.19635  0.90126  1.0000
  C   C144      1.0  0.04649  0.41699  0.90532  1.0000
  H   H234      1.0  0.29716  0.30621  0.00476  1.0000
  H   H235      1.0  0.15807  0.38412  0.87992  1.0000
  S   S61       1.0  0.26751  0.42015  0.82784  1.0000
  S   S62       1.0  0.15276  0.24760  0.90244  1.0000
  H   H236      1.0  0.13700  0.40121  0.76366  1.0000
  H   H237      1.0  0.12617  0.27325  0.17420  1.0000
  C   C145      1.0  0.17104  0.43210  0.89306  1.0000
  S   S63       1.0  0.21589  0.22242  0.13761  1.0000
  C   C146      1.0  0.15136  0.21911  0.11943  1.0000
  C   C147      1.0  0.35998  0.19417  0.19647  1.0000
  H   H238      1.0  0.17002  0.38885  0.05064  1.0000
  C   C148      1.0  0.16412  0.21423  0.08204  1.0000
  C   C149      1.0  0.27633  0.21271  0.98594  1.0000
  H   H239      1.0  0.11133  0.32813  0.20452  1.0000
  C   C150      1.0  0.29900  0.26229  0.90530  1.0000
  C   C151      1.0  0.07668  0.21893  0.20229  1.0000
  H   H240      1.0  0.08614  0.22024  0.24046  1.0000
  Fe  Fe38      1.0  0.09159  0.37701  0.13156  1.0000
  C   C152      1.0  0.21547  0.28945  0.79424  1.0000
  S   S64       1.0  0.32518  0.35499  0.82683  1.0000
  S   S65       1.0  0.11400  0.26737  0.79001  1.0000
  H   H241      1.0  0.19134  0.41141  0.93220  1.0000
  H   H242      1.0  0.12635  0.42701  0.98926  1.0000
  C   C153      1.0  0.05089  0.18927  0.16630  1.0000
  N   N14       1.0  0.06294  0.18984  0.21868  1.0000
  C   C154      1.0  0.24174  0.28462  0.21499  1.0000
  C   C155      1.0  0.29798  0.40882  0.08633  1.0000
  H   H243      1.0  0.31583  0.23169  0.22551  1.0000
  C   C156      1.0  0.16519  0.22392  0.01475  1.0000
  C   C157      1.0  0.23797  0.26562  0.80839  1.0000
  H   H244      1.0  0.31917  0.24316  0.00075  1.0000
  H   H245      1.0  0.09088  0.31055  0.13458  1.0000
  C   C158      1.0  0.30304  0.24359  0.01814  1.0000
  S   S66       1.0  0.20884  0.39462  0.85639  1.0000
  C   C159      1.0  0.17714  0.41483  0.94423  1.0000
  C   C160      1.0  0.30031  0.29878  0.05352  1.0000
  C   C161      1.0  0.12239  0.27888  0.21017  1.0000
  H   H246      1.0  0.30982  0.26368  0.01596  1.0000
  C   C162      1.0  0.22487  0.43004  0.03271  1.0000
  C   C163      1.0  0.11516  0.31066  0.22644  1.0000
  C   C164      1.0  0.28300  0.27247  0.10857  1.0000
  H   H247      1.0  0.07318  0.39790  0.87765  1.0000
  C   C165      1.0  0.18356  0.28636  0.22643  1.0000
  H   H248      1.0  0.29077  0.40475  0.75982  1.0000
  N   N15       1.0  0.12248  0.36778  0.86725  1.0000
  C   C166      1.0  0.30053  0.41264  0.02252  1.0000
  S   S67       1.0  0.05056  0.20819  0.83225  1.0000
  H   H249      1.0  0.28484  0.29562  0.24014  1.0000
  S   S68       1.0  0.06790  0.25955  0.03665  1.0000
  N   N16       1.0  0.25980  0.31032  0.21139  1.0000
  H   H250      1.0  0.28705  0.25953  0.87292  1.0000
  H   H251      1.0  0.30535  0.28353  0.89598  1.0000
  H   H252      1.0  0.11593  0.35013  0.80596  1.0000
  H   H253      1.0  0.27953  0.18882  0.88371  1.0000
  C   C167      1.0  0.13953  0.24231  0.02231  1.0000
  H   H254      1.0  0.23619  0.32720  0.20035  1.0000
  H   H255      1.0  0.19357  0.32685  0.14076  1.0000
  C   C168      1.0  0.14593  0.40537  0.02794  1.0000
  H   H256      1.0  0.25623  0.22763  0.05248  1.0000
  C   C169      1.0  0.12728  0.39541  0.81313  1.0000
  H   H257      1.0  0.06440  0.22738  0.20065  1.0000
  S   S69       1.0  0.18482  0.35593  0.19710  1.0000
  C   C170      1.0  0.06773  0.40995  0.83511  1.0000
  H   H258      1.0  0.09249  0.19006  0.17136  1.0000
  H   H259      1.0  0.18219  0.24808  0.78358  1.0000
  H   H260      1.0  0.13459  0.34402  0.09312  1.0000
  C   C171      1.0  0.18455  0.32422  0.23370  1.0000
  C   C172      1.0  0.32118  0.31601  0.06217  1.0000
  H   H261      1.0  0.08164  0.41988  0.78759  1.0000
  C   C173      1.0  0.27757  0.19545  0.83388  1.0000
  H   H262      1.0  0.27260  0.39219  0.17846  1.0000
  S   S70       1.0  0.12386  0.29417  0.88473  1.0000
  C   C174      1.0  0.36280  0.21435  0.13152  1.0000
  C   C175      1.0  0.09480  0.29322  0.15968  1.0000
  S   S71       1.0  0.08544  0.22794  0.95024  1.0000
  H   H263      1.0  0.28561  0.32450  0.12305  1.0000
  H   H264      1.0  0.15534  0.37275  0.82204  1.0000
  Fe  Fe39      1.0  0.11134  0.30118  0.79306  1.0000
  H   H265      1.0  0.04490  0.33074  0.91509  1.0000
  H   H266      1.0  0.17546  0.22040  0.98619  1.0000
  H   H267      1.0  0.27328  0.26454  0.99185  1.0000
  H   H268      1.0  0.20898  0.27958  0.84944  1.0000
  S   S72       1.0  0.06175  0.33431  0.16254  1.0000
  H   H269      1.0  0.19895  0.23055  0.79157  1.0000
  Fe  Fe40      1.0  0.23075  0.20747  0.22386  1.0000
  C   C176      1.0  0.27445  0.21863  0.79945  1.0000
  C   C177      1.0  0.27477  0.39578  0.12858  1.0000
  S   S73       1.0  0.07164  0.27454  0.84949  1.0000
  H   H270      1.0  0.05719  0.29689  0.92446  1.0000
  Fe  Fe41      1.0  0.24026  0.41261  0.77145  1.0000
  C   C178      1.0  0.25422  0.38658  0.10721  1.0000
  H   H271      1.0  0.12994  0.25308  0.99929  1.0000
  H   H272      1.0  0.29414  0.22649  0.07184  1.0000
  H   H273      1.0  0.25305  0.24130  0.96912  1.0000
  Fe  Fe42      1.0  0.08433  0.26457  0.94189  1.0000
  H   H274      1.0  0.12974  0.23773  0.11749  1.0000
  S   S74       1.0  0.23046  0.37940  0.01816  1.0000
  S   S75       1.0  0.33976  0.36619  0.13646  1.0000
  C   C179      1.0  0.26627  0.24361  0.99860  1.0000
  C   C180      1.0  0.14564  0.36798  0.87019  1.0000
  S   S76       1.0  0.26466  0.23166  0.24263  1.0000
  H   H275      1.0  0.26434  0.33671  0.10669  1.0000
  H   H276      1.0  0.36629  0.27881  0.02037  1.0000
  H   H277      1.0  0.09048  0.23284  0.15232  1.0000
  C   C181      1.0  0.10676  0.34641  0.85316  1.0000
  H   H278      1.0  0.05031  0.39455  0.83489  1.0000
  H   H279      1.0  0.31840  0.42267  0.98965  1.0000
  C   C182      1.0  0.32517  0.30657  0.12524  1.0000
  C   C183      1.0  0.18829  0.31399  0.19491  1.0000
  N   N17       1.0  0.11754  0.30221  0.17853  1.0000
  H   H280      1.0  0.35267  0.40037  0.23263  1.0000
  H   H281      1.0  0.09579  0.28621  0.12451  1.0000
  H   H282      1.0  0.21521  0.40687  0.06662  1.0000
  H   H283      1.0  0.26030  0.33996  0.23394  1.0000
  C   C184      1.0  0.27993  0.40396  0.00054  1.0000
  H   H284      1.0  0.15528  0.33370  0.12996  1.0000
  N   N18       1.0  0.06509  0.43103  0.84182  1.0000
  H   H285      1.0  0.22746  0.41419  0.15691  1.0000
  H   H286      1.0  0.27458  0.23021  0.82216  1.0000
  H   H287      1.0  0.25570  0.28529  0.78840  1.0000
  H   H288      1.0  0.11255  0.18518  0.01307  1.0000
  H   H289      1.0  0.31607  0.43120  0.76553  1.0000
  S   S77       1.0  0.15183  0.19177  0.76889  1.0000
  H   H290      1.0  0.04822  0.26545  0.13434  1.0000
  H   H291      1.0  0.29636  0.40569  0.24313  1.0000
  S   S78       1.0  0.21524  0.18469  0.04351  1.0000
  H   H292      1.0  0.37434  0.28572  0.20670  1.0000
  C   C185      1.0  0.37384  0.31568  0.22736  1.0000
  Fe  Fe43      1.0  0.35713  0.39815  0.76056  1.0000
  C   C186      1.0  0.04784  0.27991  0.08621  1.0000
  H   H293      1.0  0.24136  0.25174  0.79738  1.0000
  H   H294      1.0  0.05142  0.40512  0.94938  1.0000
  C   C187      1.0  0.04571  0.31658  0.96297  1.0000
  Fe  Fe44      1.0  0.20799  0.18345  0.13958  1.0000
  C   C188      1.0  0.37263  0.29040  0.24488  1.0000
  H   H295      1.0  0.04400  0.43232  0.91195  1.0000
  H   H296      1.0  0.26174  0.41207  0.24353  1.0000
  H   H297      1.0  0.07745  0.28041  0.45508  1.0000
  C   C189      1.0  0.27141  0.42856  0.25511  1.0000
  C   C190      1.0  0.23388  0.41605  0.53748  1.0000
  H   H298      1.0  0.21297  0.22026  0.57376  1.0000
  H   H299      1.0  0.22369  0.39289  0.43062  1.0000
  Fe  Fe45      1.0  0.33536  0.31198  0.46916  1.0000
  H   H300      1.0  0.05739  0.25917  0.36701  1.0000
  C   C191      1.0  0.10584  0.20046  0.65904  1.0000
  H   H301      1.0  0.16567  0.39795  0.67968  1.0000
  C   C192      1.0  0.27507  0.30398  0.25527  1.0000
  C   C193      1.0  0.27164  0.21222  0.70568  1.0000
  C   C194      1.0  0.16054  0.35811  0.70312  1.0000
  H   H302      1.0  0.32989  0.38729  0.30499  1.0000
  C   C195      1.0  0.29429  0.36753  0.61870  1.0000
  S   S79       1.0  0.09011  0.33581  0.39681  1.0000
  N   N19       1.0  0.21990  0.40647  0.49694  1.0000
  C   C196      1.0  0.17500  0.26922  0.29641  1.0000
  H   H303      1.0  0.17680  0.25456  0.56077  1.0000
  H   H304      1.0  0.36174  0.36245  0.59814  1.0000
  H   H305      1.0  0.26926  0.21859  0.65629  1.0000
  S   S80       1.0  0.06411  0.41430  0.43947  1.0000
  C   C197      1.0  0.17799  0.30764  0.30335  1.0000
  S   S81       1.0  0.16219  0.23311  0.33801  1.0000
  H   H306      1.0  0.34483  0.26789  0.67119  1.0000
  C   C198      1.0  0.22855  0.28543  0.70411  1.0000
  C   C199      1.0  0.13558  0.20582  0.72056  1.0000
  Fe  Fe46      1.0  0.13040  0.35434  0.36636  1.0000
  C   C200      1.0  0.17008  0.23905  0.54521  1.0000
  C   C201      1.0  0.04672  0.36453  0.71861  1.0000
  Fe  Fe47      1.0  0.17538  0.35604  0.40830  1.0000
  H   H307      1.0  0.06130  0.40634  0.69848  1.0000
  N   N20       1.0  0.36673  0.40761  0.30798  1.0000
  Fe  Fe48      1.0  0.28969  0.31103  0.43371  1.0000
  H   H308      1.0  0.10027  0.29299  0.27332  1.0000
  C   C202      1.0  0.09747  0.33774  0.57435  1.0000
  C   C203      1.0  0.10108  0.38398  0.39166  1.0000
  H   H309      1.0  0.23466  0.30534  0.28567  1.0000
  C   C204      1.0  0.29244  0.40304  0.51857  1.0000
  H   H310      1.0  0.28351  0.41456  0.49420  1.0000
  H   H311      1.0  0.32663  0.18787  0.59838  1.0000
  C   C205      1.0  0.32657  0.39570  0.51500  1.0000
  S   S82       1.0  0.15633  0.37952  0.40286  1.0000
  C   C206      1.0  0.14348  0.23435  0.68878  1.0000
  S   S83       1.0  0.11194  0.24587  0.38940  1.0000
  C   C207      1.0  0.06535  0.39041  0.70504  1.0000
  S   S84       1.0  0.06304  0.19058  0.50819  1.0000
  C   C208      1.0  0.19521  0.35188  0.72009  1.0000
  H   H312      1.0  0.09171  0.18741  0.64668  1.0000
  C   C209      1.0  0.17288  0.28011  0.33469  1.0000
  H   H313      1.0  0.25313  0.20255  0.58694  1.0000
  S   S85       1.0  0.28539  0.34569  0.70594  1.0000
  S   S86       1.0  0.11330  0.42948  0.66960  1.0000
  H   H314      1.0  0.20343  0.33904  0.73138  1.0000
  H   H315      1.0  0.22428  0.25849  0.45403  1.0000
  C   C210      1.0  0.20827  0.37839  0.71064  1.0000
  H   H316      1.0  0.28899  0.32299  0.25343  1.0000
  H   H317      1.0  0.33211  0.23400  0.68191  1.0000
  H   H318      1.0  0.19721  0.36401  0.57930  1.0000
  H   H319      1.0  0.20329  0.27010  0.42604  1.0000
  C   C211      1.0  0.17115  0.34149  0.71774  1.0000
  C   C212      1.0  0.09469  0.37603  0.70181  1.0000
  H   H320      1.0  0.10967  0.42075  0.39385  1.0000
  C   C213      1.0  0.36833  0.35089  0.53030  1.0000
  C   C214      1.0  0.05834  0.35002  0.42723  1.0000
  H   H321      1.0  0.23210  0.27236  0.69001  1.0000
  C   C215      1.0  0.13279  0.24601  0.64105  1.0000
  C   C216      1.0  0.05261  0.36727  0.43808  1.0000
  C   C217      1.0  0.25434  0.20245  0.49569  1.0000
  H   H322      1.0  0.11532  0.34568  0.58458  1.0000
  S   S87       1.0  0.13023  0.34444  0.70319  1.0000
  C   C218      1.0  0.25225  0.33558  0.39897  1.0000
  S   S88       1.0  0.18934  0.33620  0.49285  1.0000
  H   H323      1.0  0.35013  0.33337  0.54915  1.0000
  H   H324      1.0  0.08638  0.34342  0.59564  1.0000
  C   C219      1.0  0.31632  0.37441  0.58267  1.0000
  H   H325      1.0  0.10396  0.31141  0.51791  1.0000
  H   H326      1.0  0.21775  0.27710  0.48440  1.0000
  H   H327      1.0  0.05136  0.27459  0.61242  1.0000
  H   H328      1.0  0.26165  0.32639  0.49161  1.0000
  C   C220      1.0  0.04834  0.26823  0.38143  1.0000
  C   C221      1.0  0.24272  0.19456  0.55904  1.0000
  H   H329      1.0  0.31105  0.19676  0.53655  1.0000
  C   C222      1.0  0.30844  0.18404  0.59135  1.0000
  C   C223      1.0  0.24088  0.19196  0.45978  1.0000
  H   H330      1.0  0.07283  0.26979  0.69991  1.0000
  H   H331      1.0  0.30160  0.19221  0.61579  1.0000
  H   H332      1.0  0.06944  0.29682  0.70077  1.0000
  H   H333      1.0  0.24598  0.30559  0.68264  1.0000
  S   S89       1.0  0.37333  0.24291  0.33116  1.0000
  C   C224      1.0  0.21298  0.33441  0.45946  1.0000
  H   H334      1.0  0.13965  0.26829  0.61417  1.0000
  Fe  Fe49      1.0  0.28747  0.27596  0.57911  1.0000
  H   H335      1.0  0.18428  0.37482  0.51200  1.0000
  S   S90       1.0  0.27100  0.25812  0.68766  1.0000
  H   H336      1.0  0.08032  0.33464  0.72006  1.0000
  C   C225      1.0  0.08934  0.39610  0.69649  1.0000
  H   H337      1.0  0.36824  0.30784  0.38070  1.0000
  H   H338      1.0  0.37404  0.22461  0.71738  1.0000
  C   C226      1.0  0.19762  0.39501  0.69637  1.0000
  C   C227      1.0  0.31488  0.41036  0.48322  1.0000
  C   C228      1.0  0.37313  0.32244  0.27602  1.0000
  S   S91       1.0  0.23767  0.39037  0.71826  1.0000
  S   S92       1.0  0.31506  0.26677  0.55111  1.0000
  H   H339      1.0  0.24978  0.19842  0.41017  1.0000
  H   H340      1.0  0.15460  0.21926  0.58744  1.0000
  H   H341      1.0  0.11857  0.30773  0.58305  1.0000
  C   C229      1.0  0.23312  0.39889  0.46420  1.0000
  C   C230      1.0  0.06306  0.25819  0.47863  1.0000
  Fe  Fe50      1.0  0.32071  0.35632  0.73137  1.0000
  C   C231      1.0  0.34784  0.25002  0.68579  1.0000
  S   S93       1.0  0.28571  0.22503  0.46271  1.0000
  C   C232      1.0  0.17388  0.38508  0.69115  1.0000
  C   C233      1.0  0.05212  0.34440  0.72377  1.0000
  H   H342      1.0  0.16473  0.19321  0.54853  1.0000
  H   H343      1.0  0.16089  0.32068  0.72670  1.0000
  H   H344      1.0  0.35651  0.25610  0.56398  1.0000
  H   H345      1.0  0.11334  0.38091  0.69249  1.0000
  H   H346      1.0  0.18576  0.38695  0.56781  1.0000
  C   C234      1.0  0.32407  0.21904  0.25372  1.0000
  S   S94       1.0  0.10415  0.24387  0.55666  1.0000
  H   H347      1.0  0.20287  0.34140  0.36905  1.0000
  C   C235      1.0  0.28184  0.38113  0.58622  1.0000
  H   H348      1.0  0.36613  0.26355  0.41141  1.0000
  H   H349      1.0  0.17258  0.22085  0.46335  1.0000
  H   H350      1.0  0.06374  0.30750  0.53480  1.0000
  C   C236      1.0  0.08265  0.35830  0.40448  1.0000
  N   N21       1.0  0.30738  0.19534  0.32090  1.0000
  S   S95       1.0  0.20004  0.38841  0.30299  1.0000
  H   H351      1.0  0.04992  0.30318  0.60956  1.0000
  C   C237      1.0  0.06147  0.29763  0.58950  1.0000
  C   C238      1.0  0.24894  0.33001  0.46455  1.0000
  H   H352      1.0  0.09880  0.30026  0.68818  1.0000
  S   S96       1.0  0.05285  0.22162  0.33297  1.0000
  C   C239      1.0  0.20958  0.26123  0.47037  1.0000
  C   C240      1.0  0.21673  0.42897  0.44515  1.0000
  H   H353      1.0  0.11977  0.39078  0.37256  1.0000
  H   H354      1.0  0.26492  0.37605  0.61439  1.0000
  H   H355      1.0  0.34410  0.40160  0.48835  1.0000
  C   C241      1.0  0.37082  0.27209  0.31093  1.0000
  H   H356      1.0  0.23615  0.39931  0.57793  1.0000
  H   H357      1.0  0.04396  0.33020  0.43728  1.0000
  H   H358      1.0  0.20634  0.42249  0.41349  1.0000
  S   S97       1.0  0.34443  0.33856  0.72983  1.0000
  H   H359      1.0  0.23804  0.34405  0.31401  1.0000
  N   N22       1.0  0.18946  0.23455  0.52692  1.0000
  H   H360      1.0  0.16274  0.24699  0.50271  1.0000
  H   H361      1.0  0.28849  0.18893  0.40974  1.0000
  C   C242      1.0  0.31030  0.42127  0.73564  1.0000
  Fe  Fe51      1.0  0.29485  0.25996  0.47961  1.0000
  H   H362      1.0  0.31790  0.22007  0.36584  1.0000
  C   C243      1.0  0.21600  0.33903  0.39501  1.0000
  S   S98       1.0  0.11600  0.19537  0.51338  1.0000
  H   H363      1.0  0.16606  0.26686  0.38863  1.0000
  S   S99       1.0  0.14761  0.32857  0.38048  1.0000
  H   H364      1.0  0.35940  0.21849  0.65831  1.0000
  C   C244      1.0  0.07606  0.35004  0.71638  1.0000
  H   H365      1.0  0.31671  0.41757  0.62681  1.0000
  S   S100      1.0  0.19511  0.18365  0.30166  1.0000
  H   H366      1.0  0.15857  0.24766  0.69848  1.0000
  H   H367      1.0  0.09191  0.27796  0.59398  1.0000
  Fe  Fe52      1.0  0.09941  0.22169  0.50159  1.0000
  Fe  Fe53      1.0  0.07683  0.21268  0.39654  1.0000
  H   H368      1.0  0.32579  0.36372  0.60765  1.0000
  C   C245      1.0  0.07112  0.39273  0.42614  1.0000
  H   H369      1.0  0.10091  0.34935  0.51911  1.0000
  H   H370      1.0  0.30396  0.41341  0.30669  1.0000
  S   S101      1.0  0.26567  0.26581  0.51330  1.0000
  H   H371      1.0  0.26403  0.28814  0.30854  1.0000
  H   H372      1.0  0.28680  0.41049  0.65369  1.0000
  C   C246      1.0  0.36956  0.30313  0.34268  1.0000
  H   H373      1.0  0.37231  0.40631  0.39899  1.0000
  C   C247      1.0  0.30134  0.20612  0.35911  1.0000
  S   S102      1.0  0.30920  0.32194  0.50201  1.0000
  C   C248      1.0  0.19576  0.38197  0.54101  1.0000
  H   H374      1.0  0.23467  0.38087  0.50188  1.0000
  Fe  Fe54      1.0  0.17152  0.36180  0.27504  1.0000
  H   H375      1.0  0.20606  0.23931  0.60174  1.0000
  H   H376      1.0  0.21520  0.29002  0.67926  1.0000
  N   N23       1.0  0.08520  0.30725  0.60325  1.0000
  H   H377      1.0  0.17584  0.31561  0.33328  1.0000
  H   H378      1.0  0.22709  0.32602  0.54467  1.0000
  C   C249      1.0  0.27212  0.22744  0.73456  1.0000
  S   S103      1.0  0.35096  0.40073  0.66557  1.0000
  Fe  Fe55      1.0  0.17820  0.40893  0.29423  1.0000
  H   H379      1.0  0.32058  0.41039  0.73990  1.0000
  C   C250      1.0  0.08129  0.29279  0.67641  1.0000
  C   C251      1.0  0.19843  0.22410  0.58544  1.0000
  C   C252      1.0  0.22935  0.32962  0.49469  1.0000
  C   C253      1.0  0.11458  0.22917  0.62444  1.0000
  H   H380      1.0  0.19400  0.21016  0.49199  1.0000
  H   H381      1.0  0.07118  0.24782  0.46638  1.0000
  C   C254      1.0  0.09535  0.40102  0.40331  1.0000
  C   C255      1.0  0.17974  0.21379  0.50690  1.0000
  H   H382      1.0  0.18359  0.20409  0.62917  1.0000
  H   H383      1.0  0.29281  0.21869  0.33294  1.0000
  H   H384      1.0  0.35459  0.37294  0.40842  1.0000
  H   H385      1.0  0.34131  0.39414  0.39585  1.0000
  C   C256      1.0  0.35839  0.39479  0.38106  1.0000
  H   H386      1.0  0.27492  0.18765  0.28986  1.0000
  H   H387      1.0  0.25177  0.41660  0.43306  1.0000
  C   C257      1.0  0.11587  0.18873  0.70839  1.0000
  C   C258      1.0  0.36851  0.27808  0.36008  1.0000
  H   H388      1.0  0.34133  0.23329  0.25706  1.0000
  C   C259      1.0  0.23579  0.34016  0.36427  1.0000
  Fe  Fe56      1.0  0.12593  0.21716  0.40160  1.0000
  H   H389      1.0  0.20783  0.41564  0.68847  1.0000
  S   S104      1.0  0.27600  0.33593  0.35919  1.0000
  H   H390      1.0  0.05857  0.24856  0.53395  1.0000
  C   C260      1.0  0.10054  0.30080  0.57325  1.0000
  S   S105      1.0  0.31724  0.30442  0.39509  1.0000
  H   H391      1.0  0.06115  0.29121  0.35465  1.0000
  S   S106      1.0  0.09164  0.18595  0.39922  1.0000
  H   H392      1.0  0.22477  0.42260  0.56173  1.0000
  H   H393      1.0  0.34602  0.36945  0.30971  1.0000
  S   S107      1.0  0.15132  0.38469  0.25837  1.0000
  H   H394      1.0  0.26640  0.41811  0.31068  1.0000
  H   H395      1.0  0.34744  0.24069  0.73959  1.0000
  C   C261      1.0  0.34802  0.39053  0.28789  1.0000
  H   H396      1.0  0.10678  0.25996  0.25371  1.0000
  H   H397      1.0  0.33608  0.19249  0.36352  1.0000
  C   C262      1.0  0.30616  0.42748  0.62863  1.0000
  H   H398      1.0  0.04259  0.29295  0.43682  1.0000
  H   H399      1.0  0.22967  0.26802  0.26701  1.0000
  C   C263      1.0  0.27425  0.18877  0.74053  1.0000
  S   S108      1.0  0.12336  0.43096  0.50003  1.0000
  C   C264      1.0  0.37502  0.36694  0.55924  1.0000
  H   H400      1.0  0.10324  0.41704  0.26266  1.0000
  C   C265      1.0  0.37418  0.23470  0.66387  1.0000
  C   C266      1.0  0.37099  0.27152  0.57221  1.0000
  H   H401      1.0  0.36807  0.28950  0.55563  1.0000
  N   N24       1.0  0.37109  0.25909  0.64303  1.0000
  Fe  Fe57      1.0  0.37518  0.38331  0.67075  1.0000
  C   C267      1.0  0.30641  0.42301  0.25174  1.0000
  H   H402      1.0  0.09492  0.44048  0.88390  1.0000
  N   N25       1.0  0.13055  0.46047  0.20063  1.0000
  N   N26       1.0  0.29796  0.44338  0.22577  1.0000
  Fe  Fe58      1.0  0.21645  0.43853  0.80921  1.0000
  H   H403      1.0  0.36183  0.63379  0.07028  1.0000
  H   H404      1.0  0.32592  0.43311  0.22599  1.0000
  S   S109      1.0  0.05682  0.43359  0.13125  1.0000
  N   N27       1.0  0.32633  0.61509  0.05859  1.0000
  H   H405      1.0  0.29424  0.44314  0.13541  1.0000
  H   H406      1.0  0.08712  0.46738  0.84631  1.0000
  C   C268      1.0  0.37106  0.51387  0.83665  1.0000
  H   H407      1.0  0.37287  0.49780  0.88065  1.0000
  S   S110      1.0  0.04323  0.56091  0.83528  1.0000
  C   C269      1.0  0.33053  0.59619  0.04544  1.0000
  H   H408      1.0  0.25549  0.44573  0.09988  1.0000
  C   C270      1.0  0.14280  0.45499  0.15908  1.0000
  C   C271      1.0  0.05753  0.44623  0.78503  1.0000
  C   C272      1.0  0.30388  0.45778  0.15195  1.0000
  H   H409      1.0  0.19642  0.44201  0.12880  1.0000
  C   C273      1.0  0.23592  0.43719  0.12192  1.0000
  H   H410      1.0  0.14229  0.43477  0.19013  1.0000
  S   S111      1.0  0.34996  0.54837  0.07338  1.0000
  H   H411      1.0  0.28769  0.46437  0.98583  1.0000
  H   H412      1.0  0.34766  0.65473  0.04985  1.0000
  H   H413      1.0  0.34166  0.58900  0.07625  1.0000
  H   H414      1.0  0.04229  0.61710  0.15422  1.0000
  H   H415      1.0  0.12260  0.49212  0.18801  1.0000
  S   S112      1.0  0.30363  0.51224  0.99707  1.0000
  H   H416      1.0  0.36462  0.47088  0.82547  1.0000
  H   H417      1.0  0.25522  0.48271  0.99587  1.0000
  H   H418      1.0  0.34366  0.48182  0.79196  1.0000
  H   H419      1.0  0.29572  0.58162  0.14568  1.0000
  C   C274      1.0  0.29631  0.48291  0.93593  1.0000
  H   H420      1.0  0.22700  0.47977  0.98188  1.0000
  C   C275      1.0  0.29747  0.48041  0.87999  1.0000
  H   H421      1.0  0.30546  0.48103  0.22241  1.0000
  C   C276      1.0  0.13169  0.48746  0.15785  1.0000
  C   C277      1.0  0.31893  0.53332  0.86290  1.0000
  H   H422      1.0  0.32853  0.54934  0.75684  1.0000
  H   H423      1.0  0.26437  0.44318  0.23484  1.0000
  H   H424      1.0  0.15082  0.50501  0.13240  1.0000
  H   H425      1.0  0.10292  0.46240  0.79393  1.0000
  C   C278      1.0  0.23473  0.50438  0.17097  1.0000
  C   C279      1.0  0.31373  0.60033  0.13052  1.0000
  H   H426      1.0  0.22519  0.51320  0.13917  1.0000
  H   H427      1.0  0.32362  0.46791  0.12840  1.0000
  S   S113      1.0  0.30165  0.53278  0.19543  1.0000
  H   H428      1.0  0.18853  0.43800  0.06051  1.0000
  C   C280      1.0  0.30856  0.50433  0.81532  1.0000
  C   C281      1.0  0.30654  0.50935  0.92725  1.0000
  C   C282      1.0  0.22270  0.47582  0.21978  1.0000
  C   C283      1.0  0.08856  0.45110  0.84168  1.0000
  H   H429      1.0  0.23477  0.44642  0.15167  1.0000
  C   C284      1.0  0.19807  0.43292  0.09930  1.0000
  H   H430      1.0  0.32705  0.55379  0.85623  1.0000
  C   C285      1.0  0.34995  0.63989  0.04065  1.0000
  H   H431      1.0  0.36008  0.65133  0.98681  1.0000
  H   H432      1.0  0.29333  0.60552  0.03010  1.0000
  H   H433      1.0  0.16217  0.47872  0.22969  1.0000
  S   S114      1.0  0.19245  0.45475  0.22741  1.0000
  H   H434      1.0  0.13398  0.45389  0.11965  1.0000
  S   S115      1.0  0.18630  0.44781  0.80908  1.0000
  H   H435      1.0  0.34042  0.60668  0.99195  1.0000
  C   C286      1.0  0.31983  0.53081  0.80678  1.0000
  H   H436      1.0  0.28966  0.45993  0.88689  1.0000
  C   C287      1.0  0.10486  0.43788  0.23314  1.0000
  N   N28       1.0  0.22375  0.44360  0.06893  1.0000
  Fe  Fe59      1.0  0.27113  0.46227  0.78164  1.0000
  H   H437      1.0  0.14788  0.44987  0.87006  1.0000
  H   H438      1.0  0.16229  0.47153  0.13421  1.0000
  H   H439      1.0  0.32025  0.63499  0.96320  1.0000
  H   H440      1.0  0.26830  0.54363  0.12542  1.0000
  C   C288      1.0  0.15245  0.43621  0.90939  1.0000
  C   C289      1.0  0.23608  0.47416  0.02163  1.0000
  Fe  Fe60      1.0  0.34141  0.53757  0.99548  1.0000
  H   H441      1.0  0.09483  0.43745  0.19546  1.0000
  H   H442      1.0  0.33039  0.47495  0.22507  1.0000
  H   H443      1.0  0.21629  0.43486  0.99168  1.0000
  H   H444      1.0  0.12247  0.48732  0.11844  1.0000
  S   S116      1.0  0.24225  0.44902  0.86633  1.0000
  H   H445      1.0  0.30766  0.63817  0.02636  1.0000
  H   H446      1.0  0.23640  0.48514  0.04793  1.0000
  S   S117      1.0  0.36392  0.51739  0.01165  1.0000
  C   C290      1.0  0.27134  0.51039  0.20528  1.0000
  H   H447      1.0  0.31321  0.57719  0.05801  1.0000
  C   C291      1.0  0.31122  0.62388  0.01772  1.0000
  Fe  Fe61      1.0  0.37487  0.53151  0.08281  1.0000
  H   H448      1.0  0.24389  0.43692  0.01029  1.0000
  H   H449      1.0  0.32435  0.59266  0.16282  1.0000
  C   C292      1.0  0.25910  0.52159  0.16327  1.0000
  H   H450      1.0  0.29894  0.47434  0.13066  1.0000
  H   H451      1.0  0.35177  0.50831  0.84828  1.0000
  S   S118      1.0  0.37063  0.57913  0.90876  1.0000
  H   H452      1.0  0.05561  0.46233  0.78903  1.0000
  C   C293      1.0  0.36313  0.48772  0.78264  1.0000
  S   S119      1.0  0.05069  0.50266  0.83093  1.0000
  S   S120      1.0  0.36822  0.43565  0.76789  1.0000
  H   H453      1.0  0.31065  0.61405  0.14281  1.0000
  H   H454      1.0  0.04625  0.60579  0.84483  1.0000
  C   C294      1.0  0.31030  0.46437  0.24410  1.0000
  H   H455      1.0  0.30637  0.46704  0.68991  1.0000
  H   H456      1.0  0.18784  0.49983  0.70492  1.0000
  Fe  Fe62      1.0  0.12065  0.44992  0.55855  1.0000
  S   S121      1.0  0.26767  0.48507  0.50906  1.0000
  S   S122      1.0  0.09183  0.45774  0.51866  1.0000
  Fe  Fe63      1.0  0.09698  0.44282  0.45299  1.0000
  H   H457      1.0  0.21878  0.54619  0.52077  1.0000
  Fe  Fe64      1.0  0.12254  0.49964  0.43932  1.0000
  H   H458      1.0  0.36855  0.48786  0.73709  1.0000
  H   H459      1.0  0.10427  0.56480  0.46659  1.0000
  S   S123      1.0  0.29073  0.47546  0.37841  1.0000
  Fe  Fe65      1.0  0.32492  0.47429  0.38585  1.0000
  H   H460      1.0  0.22591  0.44234  0.29750  1.0000
  H   H461      1.0  0.34485  0.47896  0.58119  1.0000
  C   C295      1.0  0.10726  0.54980  0.50745  1.0000
  Fe  Fe66      1.0  0.31383  0.51814  0.28750  1.0000
  Fe  Fe67      1.0  0.06837  0.52164  0.72345  1.0000
  H   H462      1.0  0.34755  0.47387  0.66154  1.0000
  H   H463      1.0  0.05247  0.63328  0.31504  1.0000
  H   H464      1.0  0.17453  0.51513  0.64329  1.0000
  C   C296      1.0  0.23309  0.50027  0.36600  1.0000
  C   C297      1.0  0.11799  0.51378  0.55086  1.0000
  H   H465      1.0  0.21790  0.48884  0.67496  1.0000
  Fe  Fe68      1.0  0.29978  0.49732  0.43451  1.0000
  S   S124      1.0  0.24584  0.45588  0.71956  1.0000
  S   S125      1.0  0.30704  0.50062  0.74604  1.0000
  S   S126      1.0  0.34761  0.51553  0.29056  1.0000
  H   H466      1.0  0.04878  0.59978  0.37484  1.0000
  S   S127      1.0  0.05979  0.55603  0.68407  1.0000
  S   S128      1.0  0.33219  0.49205  0.45147  1.0000
  H   H467      1.0  0.20583  0.53554  0.63664  1.0000
  H   H468      1.0  0.30563  0.45463  0.29933  1.0000
  H   H469      1.0  0.04338  0.50113  0.43367  1.0000
  H   H470      1.0  0.06332  0.47118  0.58319  1.0000
  C   C298      1.0  0.22137  0.47495  0.50538  1.0000
  H   H471      1.0  0.23766  0.50968  0.31214  1.0000
  C   C299      1.0  0.11436  0.53327  0.49758  1.0000
  H   H472      1.0  0.18472  0.46511  0.50142  1.0000
  H   H473      1.0  0.16185  0.47715  0.62137  1.0000
  S   S129      1.0  0.32158  0.54044  0.34283  1.0000
  C   C300      1.0  0.37076  0.43629  0.27294  1.0000
  H   H474      1.0  0.18729  0.52691  0.52768  1.0000
  C   C301      1.0  0.10363  0.54652  0.57083  1.0000
  C   C302      1.0  0.34088  0.46285  0.63437  1.0000
  C   C303      1.0  0.11532  0.51125  0.61302  1.0000
  H   H475      1.0  0.12258  0.50037  0.54460  1.0000
  H   H476      1.0  0.36545  0.54816  0.46513  1.0000
  H   H477      1.0  0.17465  0.46147  0.68369  1.0000
  H   H478      1.0  0.30436  0.47267  0.60864  1.0000
  N   N29       1.0  0.19870  0.50508  0.60985  1.0000
  C   C304      1.0  0.25931  0.48174  0.25350  1.0000
  S   S130      1.0  0.11751  0.53528  0.42076  1.0000
  H   H479      1.0  0.35428  0.43659  0.28801  1.0000
  H   H480      1.0  0.11822  0.49611  0.65380  1.0000
  H   H481      1.0  0.18360  0.46915  0.60059  1.0000
  N   N30       1.0  0.31465  0.44206  0.66493  1.0000
  H   H482      1.0  0.09778  0.55894  0.57903  1.0000
  H   H483      1.0  0.36541  0.46984  0.44206  1.0000
  H   H484      1.0  0.22734  0.49768  0.59081  1.0000
  H   H485      1.0  0.23615  0.52474  0.60849  1.0000
  Fe  Fe69      1.0  0.15175  0.47478  0.42019  1.0000
  S   S131      1.0  0.15143  0.49266  0.48283  1.0000
  H   H486      1.0  0.23446  0.44815  0.41147  1.0000
  C   C305      1.0  0.20348  0.52494  0.53795  1.0000
  H   H487      1.0  0.06541  0.52033  0.46252  1.0000
  C   C306      1.0  0.10800  0.52746  0.62313  1.0000
  H   H488      1.0  0.35176  0.45278  0.63657  1.0000
  H   H489      1.0  0.35721  0.53272  0.72581  1.0000
  C   C307      1.0  0.20916  0.48778  0.40287  1.0000
  C   C308      1.0  0.22097  0.50403  0.62149  1.0000
  H   H490      1.0  0.20632  0.43464  0.46831  1.0000
  H   H491      1.0  0.30732  0.44175  0.57655  1.0000
  H   H492      1.0  0.25227  0.43435  0.50644  1.0000
  H   H493      1.0  0.06161  0.49864  0.58481  1.0000
  S   S132      1.0  0.10245  0.52138  0.70349  1.0000
  C   C309      1.0  0.17886  0.47700  0.62969  1.0000
  Fe  Fe70      1.0  0.35327  0.53360  0.35530  1.0000
  H   H494      1.0  0.20830  0.51809  0.50606  1.0000
  H   H495      1.0  0.21657  0.46398  0.55951  1.0000
  H   H496      1.0  0.26879  0.47281  0.28433  1.0000
  C   C310      1.0  0.05054  0.47802  0.59010  1.0000
  H   H497      1.0  0.36697  0.44698  0.52152  1.0000
  H   H498      1.0  0.28123  0.44157  0.68175  1.0000
  S   S133      1.0  0.12545  0.48555  0.36924  1.0000
  C   C311      1.0  0.24533  0.48736  0.46831  1.0000
  H   H499      1.0  0.07117  0.45727  0.73611  1.0000
  H   H500      1.0  0.26950  0.51003  0.36936  1.0000
  S   S134      1.0  0.18693  0.48645  0.36035  1.0000
  C   C312      1.0  0.19142  0.51434  0.65039  1.0000
  H   H501      1.0  0.06537  0.49158  0.46365  1.0000
  C   C313      1.0  0.20333  0.47545  0.47260  1.0000
  S   S135      1.0  0.32962  0.43879  0.40063  1.0000
  C   C314      1.0  0.05332  0.49903  0.47222  1.0000
  C   C315      1.0  0.30111  0.45648  0.66130  1.0000
  C   C316      1.0  0.25114  0.50031  0.39850  1.0000
  C   C317      1.0  0.23507  0.46443  0.26046  1.0000
  H   H502      1.0  0.14287  0.44184  0.28469  1.0000
  H   H503      1.0  0.13387  0.46517  0.28546  1.0000
  H   H504      1.0  0.37485  0.48199  0.49757  1.0000
  H   H505      1.0  0.09526  0.44045  0.26771  1.0000
  C   C318      1.0  0.14282  0.46158  0.25236  1.0000
  H   H506      1.0  0.11800  0.91079  0.11631  1.0000
  H   H507      1.0  0.15566  0.91129  0.19262  1.0000
  H   H508      1.0  0.12102  0.90223  0.88994  1.0000
  H   H509      1.0  0.07571  0.72558  0.78711  1.0000
  H   H510      1.0  0.10292  0.92308  0.97107  1.0000
  N   N31       1.0  0.06341  0.74656  0.81810  1.0000
  H   H511      1.0  0.18351  0.91496  0.77764  1.0000
  H   H512      1.0  0.07866  0.79089  0.75231  1.0000
  C   C319      1.0  0.07371  0.74438  0.76528  1.0000
  H   H513      1.0  0.11166  0.89379  0.20587  1.0000
  H   H514      1.0  0.12683  0.90009  0.01848  1.0000
  H   H515      1.0  0.10569  0.83054  0.79915  1.0000
  C   C320      1.0  0.13585  0.92260  0.98611  1.0000
  H   H516      1.0  0.13707  0.88491  0.93152  1.0000
  C   C321      1.0  0.13169  0.89283  0.88466  1.0000
  C   C322      1.0  0.09506  0.83694  0.81691  1.0000
  H   H517      1.0  0.17148  0.89028  0.86602  1.0000
  H   H518      1.0  0.11932  0.87451  0.88157  1.0000
  Fe  Fe71      1.0  0.07239  0.91981  0.78922  1.0000
  H   H519      1.0  0.07251  0.75040  0.90142  1.0000
  S   S136      1.0  0.17833  0.92328  0.00395  1.0000
  H   H520      1.0  0.24975  0.90953  0.23987  1.0000
  C   C323      1.0  0.06782  0.82925  0.90698  1.0000
  S   S137      1.0  0.07475  0.90896  0.89270  1.0000
  C   C324      1.0  0.07974  0.74881  0.86088  1.0000
  S   S138      1.0  0.08358  0.79140  0.93846  1.0000
  N   N32       1.0  0.15316  0.91333  0.82495  1.0000
  H   H521      1.0  0.05793  0.86080  0.88026  1.0000
  C   C325      1.0  0.08228  0.87058  0.79527  1.0000
  H   H522      1.0  0.15522  0.88273  0.81047  1.0000
  C   C326      1.0  0.08162  0.82092  0.88446  1.0000
  C   C327      1.0  0.11661  0.91380  0.15898  1.0000
  C   C328      1.0  0.16638  0.89968  0.81947  1.0000
  H   H523      1.0  0.08213  0.73030  0.88533  1.0000
  H   H524      1.0  0.09804  0.76780  0.83142  1.0000
  C   C329      1.0  0.06097  0.77168  0.78677  1.0000
  C   C330      1.0  0.06835  0.85424  0.86251  1.0000
  H   H525      1.0  0.13501  0.90732  0.75360  1.0000
  S   S139      1.0  0.05123  0.73015  0.13522  1.0000
  Fe  Fe72      1.0  0.05158  0.75640  0.02939  1.0000
  H   H526      1.0  0.05743  0.81696  0.95913  1.0000
  C   C331      1.0  0.09501  0.86140  0.77218  1.0000
  H   H527      1.0  0.05461  0.77483  0.82528  1.0000
  H   H528      1.0  0.10134  0.91779  0.16137  1.0000
  C   C332      1.0  0.14524  0.92388  0.76430  1.0000
  H   H529      1.0  0.04258  0.91762  0.15379  1.0000
  H   H530      1.0  0.04778  0.77000  0.75691  1.0000
  H   H531      1.0  0.13328  0.93194  0.76940  1.0000
  C   C333      1.0  0.05561  0.93106  0.22137  1.0000
  H   H532      1.0  0.16168  0.92861  0.10360  1.0000
  C   C334      1.0  0.15933  0.93099  0.14675  1.0000
  H   H533      1.0  0.17639  0.92994  0.87543  1.0000
  C   C335      1.0  0.27000  0.91756  0.54257  1.0000
  S   S140      1.0  0.17482  0.90870  0.30345  1.0000
  H   H534      1.0  0.36562  0.89207  0.51092  1.0000
  H   H535      1.0  0.13471  0.92137  0.25623  1.0000
  H   H536      1.0  0.10187  0.90643  0.50447  1.0000
  C   C336      1.0  0.22873  0.88378  0.55959  1.0000
  C   C337      1.0  0.22030  0.89903  0.57102  1.0000
  C   C338      1.0  0.06373  0.84364  0.62500  1.0000
  Fe  Fe73      1.0  0.12197  0.83253  0.54961  1.0000
  Fe  Fe74      1.0  0.17574  0.85878  0.53689  1.0000
  S   S141      1.0  0.14386  0.84867  0.60812  1.0000
  H   H537      1.0  0.17045  0.89954  0.62683  1.0000
  Fe  Fe75      1.0  0.15904  0.88219  0.41463  1.0000
  H   H538      1.0  0.26013  0.88100  0.53757  1.0000
  S   S142      1.0  0.15356  0.83959  0.48394  1.0000
  S   S143      1.0  0.18299  0.90171  0.46352  1.0000
  H   H539      1.0  0.20103  0.91978  0.67646  1.0000
  H   H540      1.0  0.20112  0.89191  0.58230  1.0000
  C   C339      1.0  0.25356  0.89279  0.54635  1.0000
  H   H541      1.0  0.22495  0.86409  0.38727  1.0000
  H   H542      1.0  0.06193  0.74290  0.73171  1.0000
  S   S144      1.0  0.20849  0.85510  0.55544  1.0000
  Fe  Fe76      1.0  0.14911  0.89004  0.52868  1.0000
  H   H543      1.0  0.24260  0.91095  0.41893  1.0000
  H   H544      1.0  0.22119  0.92732  0.33631  1.0000
  C   C340      1.0  0.23489  0.93025  0.29912  1.0000
  H   H545      1.0  0.09743  0.91280  0.59759  1.0000
  H   H546      1.0  0.28921  0.92476  0.53123  1.0000
  S   S145      1.0  0.14577  0.92237  0.53772  1.0000
  C   C341      1.0  0.17621  0.92028  0.61652  1.0000
  S   S146      1.0  0.08514  0.90304  0.73891  1.0000
  S   S147      1.0  0.12545  0.87351  0.47437  1.0000
  H   H547      1.0  0.20773  0.87741  0.40557  1.0000
  H   H548      1.0  0.06520  0.89779  0.61081  1.0000
  C   C342      1.0  0.22022  0.88082  0.36431  1.0000
  H   H549      1.0  0.20982  0.87783  0.32886  1.0000
  C   C343      1.0  0.25449  0.91246  0.38005  1.0000
  C   C344      1.0  0.08783  0.91195  0.48832  1.0000
  N   N33       1.0  0.08675  0.93051  0.50895  1.0000
  C   C345      1.0  0.23668  0.92345  0.56839  1.0000
  H   H550      1.0  0.15751  0.93055  0.36525  1.0000
  C   C346      1.0  0.06641  0.80821  0.61422  1.0000
  H   H551      1.0  0.10558  0.87376  0.72005  1.0000
  N   N34       1.0  0.24211  0.90895  0.33032  1.0000
  H   H552      1.0  0.07018  0.89211  0.51052  1.0000
  S   S148      1.0  0.08416  0.79534  0.60001  1.0000
  C   C347      1.0  0.04933  0.92876  0.28225  1.0000
  H   H553      1.0  0.26501  0.89699  0.29934  1.0000
  H   H554      1.0  0.07216  0.86157  0.62989  1.0000
  H   H555      1.0  0.09577  0.84039  0.62085  1.0000
  C   C348      1.0  0.25874  0.91237  0.27772  1.0000
  C   C349      1.0  0.08291  0.91759  0.58204  1.0000
  H   H556      1.0  0.04869  0.91511  0.51845  1.0000
  H   H557      1.0  0.09194  0.76306  0.73290  1.0000
  H   H558      1.0  0.22660  0.92910  0.25886  1.0000
  C   C350      1.0  0.07710  0.83151  0.62031  1.0000
  H   H559      1.0  0.04680  0.73721  0.51561  1.0000
  H   H560      1.0  0.09221  0.92196  0.43293  1.0000
  H   H561      1.0  0.25926  0.89593  0.40689  1.0000
  C   C351      1.0  0.19338  0.93168  0.64472  1.0000
  H   H562      1.0  0.08301  0.93165  0.59847  1.0000
  H   H563      1.0  0.68088  0.09896  0.00731  1.0000
  C   C352      1.0  0.50834  0.00262  0.01706  1.0000
  H   H564      1.0  0.63570  0.93978  0.82745  1.0000
  C   C353      1.0  0.55641  0.09807  0.12238  1.0000
  H   H565      1.0  0.39483  0.14886  0.02069  1.0000
  S   S149      1.0  0.38111  0.04092  0.99301  1.0000
  S   S150      1.0  0.52396  0.16973  0.21076  1.0000
  H   H566      1.0  0.54975  0.07615  0.16372  1.0000
  H   H567      1.0  0.54468  0.14835  0.05842  1.0000
  C   C354      1.0  0.40122  0.01389  0.15273  1.0000
  S   S151      1.0  0.51524  0.00890  0.16109  1.0000
  H   H568      1.0  0.50970  0.05726  0.97480  1.0000
  C   C355      1.0  0.59756  0.11229  0.12904  1.0000
  S   S152      1.0  0.47045  0.03618  0.13700  1.0000
  C   C356      1.0  0.60981  0.00444  0.75606  1.0000
  H   H569      1.0  0.45239  0.16786  0.06914  1.0000
  N   N35       1.0  0.41331  0.14608  0.09642  1.0000
  N   N36       1.0  0.51478  0.00257  0.95631  1.0000
  C   C357      1.0  0.58382  0.09596  0.05503  1.0000
  C   C358      1.0  0.46231  0.09834  0.12375  1.0000
  C   C359      1.0  0.53962  0.13667  0.90289  1.0000
  S   S153      1.0  0.57761  0.15821  0.17044  1.0000
  H   H570      1.0  0.48965  0.99919  0.02736  1.0000
  H   H571      1.0  0.59664  0.12412  0.15152  1.0000
  S   S154      1.0  0.45015  0.07763  0.89985  1.0000
  Fe  Fe77      1.0  0.46702  0.11932  0.89023  1.0000
  C   C360      1.0  0.55382  0.12553  0.89731  1.0000
  C   C361      1.0  0.53143  0.15560  0.05503  1.0000
  H   H572      1.0  0.38616  0.03757  0.87426  1.0000
  H   H573      1.0  0.44365  0.04255  0.83572  1.0000
  C   C362      1.0  0.41151  0.11973  0.10994  1.0000
  H   H574      1.0  0.46387  0.08239  0.06109  1.0000
  Fe  Fe78      1.0  0.54466  0.14700  0.23983  1.0000
  Fe  Fe79      1.0  0.59877  0.11806  0.85074  1.0000
  H   H575      1.0  0.62721  0.99278  0.89588  1.0000
  C   C363      1.0  0.59003  0.14074  0.02988  1.0000
  S   S155      1.0  0.66543  0.13787  0.95161  1.0000
  H   H576      1.0  0.53407  0.96715  0.14162  1.0000
  S   S156      1.0  0.47424  0.14307  0.77882  1.0000
  H   H577      1.0  0.68020  0.15829  0.03865  1.0000
  S   S157      1.0  0.62963  0.11067  0.84059  1.0000
  C   C364      1.0  0.62182  0.16344  0.18946  1.0000
  H   H578      1.0  0.39386  0.15893  0.13741  1.0000
  N   N37       1.0  0.63566  0.97369  0.98769  1.0000
  C   C365      1.0  0.49855  0.97470  0.96725  1.0000
  H   H579      1.0  0.59389  0.01028  0.10155  1.0000
  C   C366      1.0  0.39287  0.13960  0.14475  1.0000
  H   H580      1.0  0.39267  0.12689  0.19731  1.0000
  H   H581      1.0  0.54566  0.00921  0.89650  1.0000
  C   C367      1.0  0.46632  0.05387  0.22208  1.0000
  N   N38       1.0  0.58193  0.11175  0.08406  1.0000
  S   S158      1.0  0.48036  0.99085  0.81711  1.0000
  C   C368      1.0  0.62958  0.05361  0.15040  1.0000
  H   H582      1.0  0.68983  0.93359  0.09152  1.0000
  H   H583      1.0  0.62135  0.97406  0.79481  1.0000
  H   H584      1.0  0.57694  0.07374  0.09449  1.0000
  Fe  Fe80      1.0  0.63229  0.18160  0.77525  1.0000
  Fe  Fe81      1.0  0.64927  0.14292  0.86675  1.0000
  H   H585      1.0  0.60357  0.97544  0.00756  1.0000
  C   C369      1.0  0.61148  0.05164  0.19080  1.0000
  C   C370      1.0  0.58702  0.03468  0.19932  1.0000
  Fe  Fe82      1.0  0.43772  0.13860  0.79957  1.0000
  C   C371      1.0  0.46403  0.07960  0.10998  1.0000
  C   C372      1.0  0.54024  0.00911  0.94208  1.0000
  H   H586      1.0  0.41316  0.06344  0.13768  1.0000
  Fe  Fe83      1.0  0.41531  0.07782  0.91235  1.0000
  S   S159      1.0  0.56051  0.08347  0.90980  1.0000
  S   S160      1.0  0.43184  0.11801  0.91061  1.0000
  Fe  Fe84      1.0  0.69748  0.00091  0.20372  1.0000
  C   C373      1.0  0.62193  0.94538  0.99904  1.0000
  H   H587      1.0  0.52333  0.04499  0.89042  1.0000
  C   C374      1.0  0.51200  0.02387  0.89878  1.0000
  H   H588      1.0  0.57305  0.09605  0.01862  1.0000
  H   H589      1.0  0.38265  0.05529  0.16494  1.0000
  Fe  Fe85      1.0  0.48436  0.00988  0.20564  1.0000
  Fe  Fe86      1.0  0.49205  0.96232  0.22750  1.0000
  H   H590      1.0  0.61694  0.12247  0.10152  1.0000
  S   S161      1.0  0.70523  0.96265  0.91736  1.0000
  C   C375      1.0  0.50389  0.09063  0.95944  1.0000
  C   C376      1.0  0.54315  0.09689  0.92314  1.0000
  H   H591      1.0  0.57279  0.13936  0.87016  1.0000
  N   N39       1.0  0.38613  0.02012  0.18426  1.0000
  H   H592      1.0  0.52326  0.14952  0.10639  1.0000
  C   C377      1.0  0.65735  0.97693  0.01172  1.0000
  C   C378      1.0  0.46423  0.07239  0.23625  1.0000
  S   S162      1.0  0.61757  0.14772  0.88346  1.0000
  H   H593      1.0  0.54413  0.09726  0.08969  1.0000
  C   C379      1.0  0.59699  0.15143  0.21813  1.0000
  C   C380      1.0  0.46287  0.09503  0.18650  1.0000
  H   H594      1.0  0.70075  0.12612  0.77114  1.0000
  Fe  Fe87      1.0  0.45443  0.10129  0.78971  1.0000
  H   H595      1.0  0.50986  0.09518  0.76658  1.0000
  C   C381      1.0  0.52811  0.95042  0.13211  1.0000
  H   H596      1.0  0.44818  0.00081  0.87654  1.0000
  H   H597      1.0  0.49284  0.01908  0.90682  1.0000
  H   H598      1.0  0.62993  0.99896  0.01736  1.0000
  C   C382      1.0  0.58065  0.02028  0.16586  1.0000
  H   H599      1.0  0.65594  0.16804  0.20905  1.0000
  H   H600      1.0  0.50895  0.98584  0.06219  1.0000
  H   H601      1.0  0.61386  0.96221  0.07937  1.0000
  H   H602      1.0  0.51653  0.14377  0.03958  1.0000
  C   C383      1.0  0.62331  0.03849  0.11874  1.0000
  C   C384      1.0  0.52186  0.11283  0.77191  1.0000
  C   C385      1.0  0.59883  0.02223  0.12540  1.0000
  H   H603      1.0  0.57883  0.14134  0.99436  1.0000
  S   S163      1.0  0.57916  0.97895  0.78074  1.0000
  Fe  Fe88      1.0  0.66408  0.02403  0.15941  1.0000
  H   H604      1.0  0.66918  0.97318  0.98623  1.0000
  C   C386      1.0  0.39390  0.05008  0.14260  1.0000
  H   H605      1.0  0.42594  0.12366  0.07258  1.0000
  H   H606      1.0  0.49980  0.95802  0.01118  1.0000
  H   H607      1.0  0.41353  0.10811  0.16044  1.0000
  H   H608      1.0  0.51750  0.02509  0.85160  1.0000
  H   H609      1.0  0.59205  0.09088  0.17071  1.0000
  H   H610      1.0  0.48455  0.07705  0.98344  1.0000
  H   H611      1.0  0.60926  0.15161  0.00051  1.0000
  C   C387      1.0  0.51818  0.07938  0.95498  1.0000
  H   H612      1.0  0.65458  0.99158  0.88606  1.0000
  H   H613      1.0  0.41167  0.15808  0.86444  1.0000
  C   C388      1.0  0.68839  0.17011  0.93536  1.0000
  H   H614      1.0  0.66845  0.99822  0.00284  1.0000
  C   C389      1.0  0.54499  0.94915  0.09606  1.0000
  H   H615      1.0  0.39932  0.01841  0.10211  1.0000
  H   H616      1.0  0.63353  0.94099  0.97537  1.0000
  H   H617      1.0  0.67643  0.97211  0.82478  1.0000
  C   C390      1.0  0.41385  0.17815  0.82848  1.0000
  C   C391      1.0  0.45662  0.04282  0.80439  1.0000
  H   H618      1.0  0.55434  0.10941  0.14517  1.0000
  S   S164      1.0  0.66553  0.17906  0.76029  1.0000
  H   H619      1.0  0.69683  0.12148  0.03689  1.0000
  H   H620      1.0  0.61649  0.06295  0.21622  1.0000
  H   H621      1.0  0.62958  0.17687  0.13560  1.0000
  H   H622      1.0  0.69319  0.08729  0.07466  1.0000
  H   H623      1.0  0.58907  0.15329  0.05031  1.0000
  C   C392      1.0  0.41210  0.16157  0.02753  1.0000
  H   H624      1.0  0.54785  0.15898  0.88012  1.0000
  S   S165      1.0  0.49673  0.13383  0.93461  1.0000
  H   H625      1.0  0.39224  0.05603  0.09112  1.0000
  C   C393      1.0  0.62706  0.99601  0.76966  1.0000
  H   H626      1.0  0.42081  0.02671  0.14618  1.0000
  H   H627      1.0  0.39626  0.18097  0.90231  1.0000
  H   H628      1.0  0.46151  0.11595  0.08490  1.0000
  H   H629      1.0  0.64847  0.06644  0.14479  1.0000
  C   C394      1.0  0.62010  0.97781  0.02453  1.0000
  C   C395      1.0  0.69676  0.10588  0.02628  1.0000
  H   H630      1.0  0.65391  0.01624  0.90422  1.0000
  S   S166      1.0  0.64599  0.03684  0.08013  1.0000
  C   C396      1.0  0.64323  0.99455  0.91524  1.0000
  H   H631      1.0  0.54298  0.99348  0.98452  1.0000
  H   H632      1.0  0.55299  0.03005  0.93340  1.0000
  C   C397      1.0  0.69222  0.17438  0.98837  1.0000
  H   H633      1.0  0.39619  0.99158  0.18358  1.0000
  S   S167      1.0  0.41829  0.09839  0.80259  1.0000
  H   H634      1.0  0.43788  0.15217  0.15541  1.0000
  H   H635      1.0  0.42733  0.16700  0.98954  1.0000
  H   H636      1.0  0.60619  0.94259  0.97825  1.0000
  H   H637      1.0  0.50316  0.97382  0.92269  1.0000
  H   H638      1.0  0.66510  0.00941  0.75764  1.0000
  H   H639      1.0  0.47923  0.96941  0.97640  1.0000
  S   S168      1.0  0.70412  0.04459  0.14678  1.0000
  C   C398      1.0  0.46674  0.05786  0.15838  1.0000
  H   H640      1.0  0.60300  0.10488  0.02836  1.0000
  H   H641      1.0  0.38708  0.12039  0.82410  1.0000
  C   C399      1.0  0.43659  0.16321  0.10362  1.0000
  C   C400      1.0  0.45921  0.01926  0.82744  1.0000
  S   S169      1.0  0.65796  0.98054  0.21001  1.0000
  C   C401      1.0  0.47623  0.01971  0.78731  1.0000
  C   C402      1.0  0.66607  0.95088  0.86719  1.0000
  S   S170      1.0  0.46400  0.12056  0.20039  1.0000
  H   H642      1.0  0.52987  0.10469  0.81218  1.0000
  H   H643      1.0  0.56175  0.00710  0.17243  1.0000
  C   C403      1.0  0.63675  0.15862  0.23092  1.0000
  H   H644      1.0  0.52110  0.02285  0.01187  1.0000
  C   C404      1.0  0.51459  0.11928  0.93340  1.0000
  H   H645      1.0  0.56479  0.15261  0.75852  1.0000
  H   H646      1.0  0.51025  0.11892  0.78953  1.0000
  H   H647      1.0  0.70359  0.94511  0.80926  1.0000
  H   H648      1.0  0.56403  0.96482  0.07808  1.0000
  H   H649      1.0  0.39357  0.10570  0.10847  1.0000
  H   H650      1.0  0.41292  0.18132  0.01595  1.0000
  H   H651      1.0  0.70222  0.09047  0.94139  1.0000
  C   C405      1.0  0.67592  0.94126  0.91954  1.0000
  Fe  Fe89      1.0  0.69425  0.03898  0.24646  1.0000
  H   H652      1.0  0.53825  0.18202  0.92226  1.0000
  H   H653      1.0  0.65215  0.96166  0.06649  1.0000
  S   S171      1.0  0.51631  0.96606  0.75149  1.0000
  C   C406      1.0  0.65179  0.01598  0.74904  1.0000
  C   C407      1.0  0.64306  0.93260  0.86872  1.0000
  S   S172      1.0  0.70838  0.03487  0.84610  1.0000
  H   H654      1.0  0.70862  0.13886  0.89407  1.0000
  H   H655      1.0  0.70621  0.95555  0.44083  1.0000
  H   H656      1.0  0.40530  0.98036  0.36567  1.0000
  C   C408      1.0  0.51542  0.93821  0.61976  1.0000
  H   H657      1.0  0.53928  0.97470  0.39686  1.0000
  H   H658      1.0  0.50752  0.01580  0.41097  1.0000
  C   C409      1.0  0.58462  0.99211  0.41277  1.0000
  H   H659      1.0  0.59432  0.11751  0.38249  1.0000
  N   N40       1.0  0.54089  0.13653  0.70839  1.0000
  C   C410      1.0  0.45202  0.97547  0.54125  1.0000
  H   H660      1.0  0.56851  0.97753  0.32336  1.0000
  H   H661      1.0  0.42461  0.01030  0.66040  1.0000
  C   C411      1.0  0.55172  0.06191  0.43895  1.0000
  C   C412      1.0  0.38900  0.01336  0.25161  1.0000
  H   H662      1.0  0.68554  0.94292  0.40001  1.0000
  H   H663      1.0  0.48498  0.12487  0.55193  1.0000
  N   N41       1.0  0.44951  0.11195  0.53694  1.0000
  H   H664      1.0  0.47867  0.10732  0.50665  1.0000
  H   H665      1.0  0.41130  0.96907  0.59968  1.0000
  C   C413      1.0  0.63016  0.07014  0.52666  1.0000
  H   H666      1.0  0.67026  0.09025  0.56399  1.0000
  S   S173      1.0  0.48435  0.12116  0.35891  1.0000
  Fe  Fe90      1.0  0.68270  0.16617  0.32187  1.0000
  C   C414      1.0  0.40505  0.96126  0.39980  1.0000
  C   C415      1.0  0.62667  0.14183  0.30066  1.0000
  H   H667      1.0  0.64358  0.06006  0.43644  1.0000
  S   S174      1.0  0.69022  0.06978  0.68424  1.0000
  C   C416      1.0  0.43316  0.02148  0.60711  1.0000
  C   C417      1.0  0.54296  0.16893  0.44190  1.0000
  C   C418      1.0  0.69160  0.97720  0.59009  1.0000
  S   S175      1.0  0.57809  0.09002  0.53723  1.0000
  H   H668      1.0  0.38172  0.11405  0.56508  1.0000
  H   H669      1.0  0.64671  0.03879  0.60971  1.0000
  S   S176      1.0  0.50696  0.96005  0.31393  1.0000
  S   S177      1.0  0.38739  0.00366  0.59338  1.0000
  C   C419      1.0  0.65123  0.04421  0.55722  1.0000
  H   H670      1.0  0.50803  0.04474  0.41032  1.0000
  S   S178      1.0  0.64329  0.13520  0.35757  1.0000
  H   H671      1.0  0.58384  0.00897  0.36806  1.0000
  C   C420      1.0  0.68930  0.93702  0.44930  1.0000
  C   C421      1.0  0.40840  0.16360  0.37464  1.0000
  C   C422      1.0  0.55980  0.17181  0.47885  1.0000
  C   C423      1.0  0.54188  0.95966  0.44123  1.0000
  H   H672      1.0  0.69770  0.15041  0.59618  1.0000
  H   H673      1.0  0.49840  0.08511  0.65101  1.0000
  C   C424      1.0  0.39399  0.14285  0.30894  1.0000
  H   H674      1.0  0.69577  0.10639  0.73162  1.0000
  C   C425      1.0  0.55629  0.15945  0.71829  1.0000
  H   H675      1.0  0.54335  0.16546  0.60853  1.0000
  Fe  Fe91      1.0  0.50861  0.10293  0.37837  1.0000
  H   H676      1.0  0.54193  0.95798  0.65955  1.0000
  C   C426      1.0  0.59382  0.10206  0.63184  1.0000
  H   H677      1.0  0.50405  0.04444  0.69361  1.0000
  H   H678      1.0  0.56480  0.94301  0.53129  1.0000
  H   H679      1.0  0.67487  0.11452  0.47794  1.0000
  N   N42       1.0  0.43511  0.95246  0.60860  1.0000
  H   H680      1.0  0.44527  0.97202  0.50157  1.0000
  C   C427      1.0  0.57140  0.96261  0.36741  1.0000
  C   C428      1.0  0.68083  0.99324  0.55926  1.0000
  S   S179      1.0  0.56283  0.01473  0.61726  1.0000
  H   H681      1.0  0.68096  0.12606  0.71860  1.0000
  Fe  Fe92      1.0  0.51883  0.16183  0.31487  1.0000
  H   H682      1.0  0.65979  0.09687  0.40329  1.0000
  H   H683      1.0  0.44239  0.14305  0.46437  1.0000
  H   H684      1.0  0.60401  0.03947  0.71279  1.0000
  C   C429      1.0  0.65927  0.04439  0.71540  1.0000
  C   C430      1.0  0.61172  0.11587  0.65496  1.0000
  C   C431      1.0  0.55109  0.02614  0.42423  1.0000
  H   H685      1.0  0.57126  0.03733  0.40645  1.0000
  H   H686      1.0  0.40620  0.16081  0.42517  1.0000
  H   H687      1.0  0.60730  0.11084  0.70591  1.0000
  C   C432      1.0  0.60191  0.12955  0.32861  1.0000
  Fe  Fe93      1.0  0.47713  0.96499  0.34705  1.0000
  H   H688      1.0  0.37841  0.01860  0.27596  1.0000
  S   S180      1.0  0.49857  0.01168  0.29025  1.0000
  H   H689      1.0  0.53264  0.14936  0.44469  1.0000
  H   H690      1.0  0.51911  0.13051  0.64348  1.0000
  C   C433      1.0  0.66673  0.95354  0.48394  1.0000
  C   C434      1.0  0.55076  0.06527  0.33250  1.0000
  H   H691      1.0  0.40836  0.02531  0.24898  1.0000
  C   C435      1.0  0.45740  0.13851  0.47302  1.0000
  C   C436      1.0  0.43001  0.03663  0.49414  1.0000
  S   S181      1.0  0.69042  0.99673  0.30284  1.0000
  C   C437      1.0  0.59959  0.10817  0.56627  1.0000
  S   S182      1.0  0.65831  0.15287  0.63997  1.0000
  H   H692      1.0  0.44401  0.98077  0.37364  1.0000
  C   C438      1.0  0.46940  0.04956  0.51365  1.0000
  C   C439      1.0  0.43056  0.08834  0.53450  1.0000
  H   H693      1.0  0.45360  0.13004  0.59730  1.0000
  N   N43       1.0  0.38994  0.13848  0.37660  1.0000
  C   C440      1.0  0.69325  0.01742  0.49531  1.0000
  H   H694      1.0  0.63094  0.09017  0.49158  1.0000
  H   H695      1.0  0.68215  0.95867  0.63967  1.0000
  C   C441      1.0  0.64111  0.14200  0.54678  1.0000
  H   H696      1.0  0.60550  0.94894  0.28414  1.0000
  C   C442      1.0  0.55584  0.12734  0.68781  1.0000
  H   H697      1.0  0.54392  0.05378  0.30649  1.0000
  Fe  Fe94      1.0  0.49113  0.12709  0.25749  1.0000
  H   H698      1.0  0.62759  0.13338  0.47285  1.0000
  H   H699      1.0  0.54388  0.01347  0.40119  1.0000
  H   H700      1.0  0.50851  0.01783  0.48463  1.0000
  N   N44       1.0  0.54223  0.04596  0.40610  1.0000
  S   S183      1.0  0.38627  0.00801  0.41511  1.0000
  H   H701      1.0  0.37996  0.12463  0.30831  1.0000
  Fe  Fe95      1.0  0.51078  0.00024  0.74287  1.0000
  C   C443      1.0  0.43956  0.11302  0.59249  1.0000
  H   H702      1.0  0.61793  0.16472  0.37820  1.0000
  H   H703      1.0  0.64767  0.07480  0.67748  1.0000
  H   H704      1.0  0.43729  0.08709  0.49256  1.0000
  H   H705      1.0  0.57095  0.07748  0.31362  1.0000
  H   H706      1.0  0.44552  0.97844  0.65017  1.0000
  H   H707      1.0  0.54731  0.07884  0.42225  1.0000
  S   S184      1.0  0.62149  0.94571  0.40000  1.0000
  H   H708      1.0  0.41917  0.03780  0.45978  1.0000
  H   H709      1.0  0.41212  0.14624  0.29095  1.0000
  H   H710      1.0  0.57083  0.14489  0.64092  1.0000
  C   C444      1.0  0.39182  0.11399  0.42366  1.0000
  C   C445      1.0  0.63542  0.13563  0.61253  1.0000
  N   N45       1.0  0.65321  0.07125  0.50939  1.0000
  H   H711      1.0  0.54386  0.04840  0.49434  1.0000
  H   H712      1.0  0.46745  0.03647  0.26043  1.0000
  H   H713      1.0  0.46436  0.13837  0.42949  1.0000
  C   C446      1.0  0.61728  0.03286  0.72295  1.0000
  H   H714      1.0  0.59054  0.96817  0.35185  1.0000
  H   H715      1.0  0.58155  0.99417  0.45633  1.0000
  C   C447      1.0  0.48738  0.06677  0.70022  1.0000
  H   H716      1.0  0.39320  0.16143  0.27169  1.0000
  C   C448      1.0  0.42695  0.96147  0.40431  1.0000
  H   H717      1.0  0.54476  0.11054  0.67828  1.0000
  Fe  Fe96      1.0  0.52279  0.98769  0.64028  1.0000
  H   H718      1.0  0.42719  0.16874  0.35617  1.0000
  C   C449      1.0  0.49051  0.04365  0.72412  1.0000
  S   S185      1.0  0.65154  0.98332  0.59713  1.0000
  H   H719      1.0  0.65943  0.15726  0.51391  1.0000
  H   H720      1.0  0.46361  0.06109  0.41638  1.0000
  H   H721      1.0  0.47009  0.97710  0.53692  1.0000
  Fe  Fe97      1.0  0.55593  0.99541  0.72825  1.0000
  H   H722      1.0  0.38878  0.11000  0.47517  1.0000
  Fe  Fe98      1.0  0.52749  0.00680  0.25105  1.0000
  H   H723      1.0  0.43284  0.09306  0.64143  1.0000
  C   C450      1.0  0.67320  0.09391  0.51271  1.0000
  H   H724      1.0  0.56283  0.15465  0.50869  1.0000
  C   C451      1.0  0.47049  0.10785  0.54808  1.0000
  H   H725      1.0  0.54538  0.01162  0.47953  1.0000
  Fe  Fe99      1.0  0.55397  0.04524  0.61947  1.0000
  H   H726      1.0  0.38841  0.14773  0.59951  1.0000
  S   S186      1.0  0.45425  0.93740  0.45340  1.0000
  H   H727      1.0  0.65218  0.94868  0.52271  1.0000
  H   H728      1.0  0.47242  0.15651  0.47244  1.0000
  C   C452      1.0  0.44416  0.95875  0.65923  1.0000
  H   H729      1.0  0.66847  0.04443  0.54712  1.0000
  S   S187      1.0  0.54993  0.02787  0.72942  1.0000
  H   H730      1.0  0.53811  0.96222  0.48342  1.0000
  S   S188      1.0  0.43332  0.17457  0.72868  1.0000
  H   H731      1.0  0.40993  0.11693  0.40780  1.0000
  H   H732      1.0  0.67563  0.07785  0.42608  1.0000
  H   H733      1.0  0.70564  0.17874  0.64892  1.0000
  C   C453      1.0  0.41895  0.02199  0.56283  1.0000
  H   H734      1.0  0.42413  0.11688  0.58489  1.0000
  C   C454      1.0  0.51540  0.03037  0.42890  1.0000
  H   H735      1.0  0.56793  0.12366  0.30959  1.0000
  H   H736      1.0  0.66247  0.96185  0.43596  1.0000
  H   H737      1.0  0.40350  0.94474  0.57301  1.0000
  S   S189      1.0  0.46921  0.09705  0.71038  1.0000
  H   H738      1.0  0.58973  0.16424  0.38755  1.0000
  Fe  Fe100     1.0  0.64288  0.14743  0.73512  1.0000
  S   S190      1.0  0.46046  0.96353  0.26597  1.0000
  C   C455      1.0  0.64198  0.05282  0.70307  1.0000
  S   S191      1.0  0.51433  0.01975  0.63282  1.0000
  C   C456      1.0  0.65827  0.07672  0.44082  1.0000
  S   S192      1.0  0.51222  0.10475  0.28116  1.0000
  H   H739      1.0  0.68942  0.93374  0.56867  1.0000
  H   H740      1.0  0.46369  0.06917  0.28569  1.0000
  Fe  Fe101     1.0  0.65136  0.98015  0.30458  1.0000
  H   H741      1.0  0.60346  0.99596  0.40213  1.0000
  H   H742      1.0  0.41408  0.09004  0.52847  1.0000
  S   S193      1.0  0.56494  0.03149  0.25354  1.0000
  H   H743      1.0  0.61465  0.05335  0.52470  1.0000
  H   H744      1.0  0.54544  0.16686  0.73339  1.0000
  H   H745      1.0  0.62585  0.06620  0.57796  1.0000
  S   S194      1.0  0.54278  0.14349  0.33929  1.0000
  C   C457      1.0  0.58709  0.13392  0.28748  1.0000
  H   H746      1.0  0.42469  0.06799  0.58170  1.0000
  H   H747      1.0  0.57550  0.08694  0.66443  1.0000
  H   H748      1.0  0.68397  0.97084  0.47844  1.0000
  C   C458      1.0  0.62312  0.12854  0.52348  1.0000
  H   H749      1.0  0.57171  0.07142  0.42889  1.0000
  C   C459      1.0  0.47060  0.06649  0.74053  1.0000
  C   C460      1.0  0.52952  0.14653  0.65572  1.0000
  S   S195      1.0  0.65471  0.02207  0.25505  1.0000
  H   H750      1.0  0.54428  0.08043  0.31691  1.0000
  S   S196      1.0  0.50659  0.96337  0.59170  1.0000
  C   C461      1.0  0.69825  0.12630  0.72439  1.0000
  H   H751      1.0  0.46501  0.08775  0.59544  1.0000
  H   H752      1.0  0.45452  0.99589  0.52997  1.0000
  H   H753      1.0  0.69098  0.09575  0.49906  1.0000
  C   C462      1.0  0.41079  0.94951  0.61074  1.0000
  H   H754      1.0  0.68486  0.02966  0.47085  1.0000
  H   H755      1.0  0.51677  0.15180  0.67151  1.0000
  S   S197      1.0  0.50077  0.06755  0.48066  1.0000
  N   N46       1.0  0.56663  0.96420  0.42678  1.0000
  H   H756      1.0  0.63667  0.02671  0.55503  1.0000
  C   C463      1.0  0.45848  0.03522  0.58244  1.0000
  H   H757      1.0  0.46955  0.03494  0.61649  1.0000
  H   H758      1.0  0.57115  0.17762  0.67181  1.0000
  C   C464      1.0  0.45519  0.05025  0.46956  1.0000
  C   C465      1.0  0.60940  0.17636  0.38183  1.0000
  H   H759      1.0  0.61083  0.17621  0.42907  1.0000
  H   H760      1.0  0.56408  0.11885  0.72736  1.0000
  H   H761      1.0  0.38257  0.99069  0.28522  1.0000
  C   C466      1.0  0.53378  0.94099  0.65132  1.0000
  H   H762      1.0  0.46259  0.96133  0.65825  1.0000
  C   C467      1.0  0.56868  0.94256  0.48557  1.0000
  H   H763      1.0  0.55946  0.94126  0.37747  1.0000
  Fe  Fe102     1.0  0.62821  0.93746  0.67367  1.0000
  S   S198      1.0  0.70833  0.15101  0.32104  1.0000
  C   C468      1.0  0.42673  0.93682  0.44877  1.0000
  H   H764      1.0  0.43192  0.94183  0.71082  1.0000
  C   C469      1.0  0.38292  0.93617  0.43756  1.0000
  H   H765      1.0  0.58724  0.94561  0.47733  1.0000
  H   H766      1.0  0.52783  0.93822  0.45554  1.0000
  H   H767      1.0  0.37779  0.09463  0.42718  1.0000
  S   S199      1.0  0.61049  0.15238  0.74332  1.0000
  H   H768      1.0  0.40695  0.18229  0.34087  1.0000
  H   H769      1.0  0.69519  0.93563  0.74863  1.0000
  H   H770      1.0  0.50964  0.18394  0.98980  1.0000
  C   C470      1.0  0.40534  0.19119  0.84993  1.0000
  H   H771      1.0  0.69374  0.25051  0.82013  1.0000
  H   H772      1.0  0.52799  0.22445  0.09946  1.0000
  C   C471      1.0  0.51087  0.33678  0.17080  1.0000
  C   C472      1.0  0.63223  0.22259  0.93359  1.0000
  H   H773      1.0  0.37891  0.23487  0.10564  1.0000
  S   S200      1.0  0.66750  0.38611  0.20569  1.0000
  Fe  Fe103     1.0  0.46712  0.25223  0.11126  1.0000
  S   S201      1.0  0.58659  0.40377  0.02558  1.0000
  H   H774      1.0  0.68307  0.24711  0.92621  1.0000
  H   H775      1.0  0.42366  0.38571  0.81369  1.0000
  C   C473      1.0  0.40523  0.29941  0.98547  1.0000
  C   C474      1.0  0.42593  0.32025  0.93072  1.0000
  C   C475      1.0  0.69217  0.29436  0.81629  1.0000
  H   H776      1.0  0.50998  0.29051  0.17239  1.0000
  C   C476      1.0  0.54801  0.27055  0.76711  1.0000
  H   H777      1.0  0.61429  0.24652  0.89732  1.0000
  C   C477      1.0  0.53337  0.24534  0.05899  1.0000
  H   H778      1.0  0.49952  0.34449  0.08151  1.0000
  H   H779      1.0  0.39881  0.34129  0.81008  1.0000
  H   H780      1.0  0.58643  0.41215  0.82482  1.0000
  H   H781      1.0  0.70117  0.27545  0.93659  1.0000
  H   H782      1.0  0.58110  0.34644  0.95918  1.0000
  S   S202      1.0  0.48258  0.30739  0.22457  1.0000
  N   N47       1.0  0.45443  0.28509  0.85298  1.0000
  C   C478      1.0  0.42391  0.19045  0.76003  1.0000
  Fe  Fe104     1.0  0.45027  0.29417  0.04346  1.0000
  Fe  Fe105     1.0  0.37630  0.37942  0.15308  1.0000
  H   H783      1.0  0.64793  0.30534  0.76637  1.0000
  C   C479      1.0  0.70161  0.26513  0.90920  1.0000
  C   C480      1.0  0.59743  0.36564  0.94979  1.0000
  H   H784      1.0  0.56614  0.37543  0.88311  1.0000
  C   C481      1.0  0.64287  0.20950  0.92016  1.0000
  C   C482      1.0  0.45580  0.27149  0.81698  1.0000
  H   H785      1.0  0.43478  0.42001  0.93690  1.0000
  C   C483      1.0  0.54457  0.26016  0.20914  1.0000
  H   H786      1.0  0.55266  0.32008  0.91341  1.0000
  N   N48       1.0  0.60353  0.38987  0.88233  1.0000
  H   H787      1.0  0.57730  0.19492  0.02977  1.0000
  H   H788      1.0  0.46931  0.37864  0.21352  1.0000
  C   C484      1.0  0.66692  0.33800  0.23940  1.0000
  Fe  Fe106     1.0  0.62269  0.30385  0.96003  1.0000
  H   H789      1.0  0.53662  0.24616  0.18955  1.0000
  H   H790      1.0  0.38740  0.37611  0.89028  1.0000
  C   C485      1.0  0.58255  0.39425  0.87548  1.0000
  H   H791      1.0  0.49457  0.21759  0.88736  1.0000
  H   H792      1.0  0.46862  0.29224  0.92812  1.0000
  C   C486      1.0  0.70420  0.19069  0.87066  1.0000
  H   H793      1.0  0.40098  0.41344  0.84258  1.0000
  C   C487      1.0  0.43542  0.40344  0.81909  1.0000
  C   C488      1.0  0.56478  0.29101  0.96701  1.0000
  C   C489      1.0  0.55758  0.26383  0.01884  1.0000
  C   C490      1.0  0.52331  0.28107  0.99562  1.0000
  Fe  Fe107     1.0  0.41783  0.23976  0.17492  1.0000
  C   C491      1.0  0.38006  0.31000  0.91460  1.0000
  H   H794      1.0  0.55527  0.30456  0.21991  1.0000
  C   C492      1.0  0.52295  0.28447  0.16216  1.0000
  H   H795      1.0  0.42758  0.27920  0.92452  1.0000
  H   H796      1.0  0.62548  0.22583  0.21637  1.0000
  H   H797      1.0  0.44581  0.32919  0.23844  1.0000
  S   S203      1.0  0.39433  0.38640  0.05855  1.0000
  H   H798      1.0  0.64301  0.33355  0.09345  1.0000
  H   H799      1.0  0.53296  0.21769  0.97061  1.0000
  H   H800      1.0  0.51500  0.27222  0.13842  1.0000
  H   H801      1.0  0.42132  0.24812  0.92633  1.0000
  C   C493      1.0  0.51875  0.21256  0.83528  1.0000
  S   S204      1.0  0.64499  0.29794  0.89975  1.0000
  C   C494      1.0  0.60939  0.38455  0.83073  1.0000
  C   C495      1.0  0.64462  0.21098  0.85911  1.0000
  H   H802      1.0  0.46506  0.26112  0.93387  1.0000
  H   H803      1.0  0.43970  0.35079  0.82447  1.0000
  S   S205      1.0  0.38124  0.20167  0.23959  1.0000
  S   S206      1.0  0.59532  0.31527  0.91819  1.0000
  H   H804      1.0  0.39329  0.39483  0.93153  1.0000
  H   H805      1.0  0.69029  0.30445  0.84280  1.0000
  H   H806      1.0  0.40958  0.35432  0.94083  1.0000
  C   C496      1.0  0.54037  0.22620  0.78554  1.0000
  H   H807      1.0  0.55306  0.41763  0.20425  1.0000
  C   C497      1.0  0.51465  0.35021  0.10153  1.0000
  N   N49       1.0  0.42516  0.39885  0.88350  1.0000
  H   H808      1.0  0.65137  0.34742  0.76494  1.0000
  H   H809      1.0  0.51008  0.28771  0.98593  1.0000
  S   S207      1.0  0.44960  0.24005  0.21343  1.0000
  H   H810      1.0  0.57780  0.39871  0.91301  1.0000
  H   H811      1.0  0.48198  0.32594  0.77291  1.0000
  H   H812      1.0  0.61584  0.24732  0.79037  1.0000
  S   S208      1.0  0.61649  0.40310  0.17249  1.0000
  H   H813      1.0  0.43888  0.18352  0.09286  1.0000
  H   H814      1.0  0.57061  0.25697  0.02787  1.0000
  S   S209      1.0  0.43092  0.28461  0.14067  1.0000
  Fe  Fe108     1.0  0.64836  0.29337  0.06812  1.0000
  H   H815      1.0  0.65375  0.20175  0.84790  1.0000
  H   H816      1.0  0.44514  0.27378  0.78017  1.0000
  C   C498      1.0  0.42367  0.33504  0.86714  1.0000
  S   S210      1.0  0.65188  0.28738  0.16816  1.0000
  S   S211      1.0  0.61425  0.26526  0.05755  1.0000
  C   C499      1.0  0.60861  0.30975  0.76732  1.0000
  H   H817      1.0  0.67392  0.27668  0.82825  1.0000
  C   C500      1.0  0.40076  0.39574  0.88692  1.0000
  S   S212      1.0  0.38361  0.38375  0.76136  1.0000
  C   C501      1.0  0.40064  0.32981  0.85904  1.0000
  C   C502      1.0  0.44133  0.42311  0.88798  1.0000
  C   C503      1.0  0.62475  0.41507  0.87319  1.0000
  H   H818      1.0  0.47478  0.28083  0.78877  1.0000
  H   H819      1.0  0.43715  0.42270  0.77574  1.0000
  C   C504      1.0  0.47000  0.28315  0.89830  1.0000
  H   H820      1.0  0.45161  0.31725  0.76862  1.0000
  H   H821      1.0  0.41714  0.27420  0.85962  1.0000
  H   H822      1.0  0.46013  0.42678  0.88265  1.0000
  H   H823      1.0  0.44866  0.24878  0.85208  1.0000
  C   C505      1.0  0.56322  0.20100  0.02821  1.0000
  H   H824      1.0  0.62446  0.37995  0.83594  1.0000
  C   C506      1.0  0.46294  0.31479  0.80365  1.0000
  N   N50       1.0  0.54312  0.18610  0.00726  1.0000
  H   H825      1.0  0.56184  0.27882  0.17095  1.0000
  H   H826      1.0  0.46249  0.32597  0.82845  1.0000
  C   C507      1.0  0.55526  0.25508  0.75282  1.0000
  S   S213      1.0  0.48426  0.29788  0.07118  1.0000
  Fe  Fe109     1.0  0.65457  0.41391  0.13696  1.0000
  C   C508      1.0  0.62291  0.23681  0.88635  1.0000
  C   C509      1.0  0.66204  0.35849  0.19482  1.0000
  S   S214      1.0  0.43455  0.24924  0.07501  1.0000
  C   C510      1.0  0.53022  0.34561  0.19652  1.0000
  H   H827      1.0  0.61492  0.40283  0.77926  1.0000
  C   C511      1.0  0.38227  0.29429  0.97743  1.0000
  Fe  Fe110     1.0  0.61711  0.42101  0.06480  1.0000
  C   C512      1.0  0.64980  0.33485  0.13386  1.0000
  H   H828      1.0  0.59350  0.36630  0.83440  1.0000
  C   C513      1.0  0.66336  0.31607  0.23104  1.0000
  C   C514      1.0  0.42318  0.37320  0.93978  1.0000
  C   C515      1.0  0.51169  0.22805  0.85050  1.0000
  S   S215      1.0  0.45459  0.32787  0.94209  1.0000
  S   S216      1.0  0.65524  0.33264  0.97482  1.0000
  C   C516      1.0  0.53798  0.37109  0.05784  1.0000
  H   H829      1.0  0.56154  0.21576  0.90188  1.0000
  H   H830      1.0  0.48946  0.29493  0.86978  1.0000
  H   H831      1.0  0.55668  0.19626  0.07919  1.0000
  H   H832      1.0  0.37654  0.33045  0.17582  1.0000
  C   C517      1.0  0.65317  0.35671  0.14257  1.0000
  C   C518      1.0  0.65514  0.31469  0.17771  1.0000
  H   H833      1.0  0.41694  0.37003  0.98906  1.0000
  H   H834      1.0  0.70173  0.18710  0.83010  1.0000
  H   H835      1.0  0.64919  0.37234  0.10841  1.0000
  H   H836      1.0  0.61253  0.36111  0.95594  1.0000
  S   S217      1.0  0.67203  0.28586  0.01667  1.0000
  H   H837      1.0  0.39649  0.41791  0.23603  1.0000
  S   S218      1.0  0.51524  0.27688  0.82478  1.0000
  H   H838      1.0  0.59354  0.36927  0.98986  1.0000
  S   S219      1.0  0.39488  0.23204  0.82754  1.0000
  C   C519      1.0  0.40810  0.21716  0.80329  1.0000
  Fe  Fe111     1.0  0.40154  0.43020  0.01104  1.0000
  H   H839      1.0  0.45368  0.40550  0.81512  1.0000
  H   H840      1.0  0.40693  0.28774  0.03442  1.0000
  C   C520      1.0  0.51627  0.25405  0.04808  1.0000
  C   C521      1.0  0.54744  0.29938  0.95457  1.0000
  C   C522      1.0  0.55363  0.36669  0.15269  1.0000
  H   H841      1.0  0.61202  0.30356  0.81709  1.0000
  Fe  Fe112     1.0  0.46417  0.28575  0.17086  1.0000
  C   C523      1.0  0.55761  0.37906  0.08327  1.0000
  H   H842      1.0  0.53991  0.30402  0.12495  1.0000
  C   C524      1.0  0.63480  0.22447  0.81249  1.0000
  H   H843      1.0  0.59775  0.29025  0.76755  1.0000
  H   H844      1.0  0.56864  0.37276  0.17263  1.0000
  Fe  Fe113     1.0  0.63858  0.26126  0.99788  1.0000
  H   H845      1.0  0.54080  0.38098  0.00424  1.0000
  H   H846      1.0  0.62094  0.41977  0.91121  1.0000
  H   H847      1.0  0.59723  0.31943  0.76378  1.0000
  H   H848      1.0  0.57238  0.22404  0.99328  1.0000
  H   H849      1.0  0.44080  0.37361  0.93641  1.0000
  Fe  Fe114     1.0  0.67684  0.32330  0.92263  1.0000
  S   S220      1.0  0.48655  0.23092  0.10246  1.0000
  C   C525      1.0  0.62402  0.23754  0.82575  1.0000
  S   S221      1.0  0.38645  0.42400  0.10831  1.0000
  H   H850      1.0  0.64084  0.41235  0.87839  1.0000
  N   N51       1.0  0.52745  0.26804  0.22458  1.0000
  H   H851      1.0  0.65030  0.19873  0.95641  1.0000
  S   S222      1.0  0.63198  0.22141  0.00903  1.0000
  C   C526      1.0  0.52599  0.25720  0.81459  1.0000
  H   H852      1.0  0.50706  0.19018  0.86032  1.0000
  C   C527      1.0  0.42902  0.27103  0.89259  1.0000
  H   H853      1.0  0.44175  0.37779  0.23730  1.0000
  C   C528      1.0  0.52490  0.19478  0.00597  1.0000
  H   H854      1.0  0.51692  0.18963  0.05647  1.0000
  S   S223      1.0  0.65423  0.42871  0.02978  1.0000
  H   H855      1.0  0.69813  0.31000  0.76159  1.0000
  H   H856      1.0  0.56674  0.18682  0.93833  1.0000
  S   S224      1.0  0.54858  0.20769  0.76181  1.0000
  S   S225      1.0  0.70386  0.20632  0.22334  1.0000
  C   C529      1.0  0.56485  0.42436  0.23341  1.0000
  C   C530      1.0  0.55290  0.19300  0.93955  1.0000
  H   H857      1.0  0.70866  0.41836  0.24568  1.0000
  C   C531      1.0  0.55154  0.21584  0.40253  1.0000
  H   H858      1.0  0.49610  0.22881  0.25226  1.0000
  H   H859      1.0  0.41579  0.31218  0.40152  1.0000
  S   S226      1.0  0.61072  0.40478  0.65635  1.0000
  Fe  Fe115     1.0  0.59378  0.23280  0.54304  1.0000
  H   H860      1.0  0.39200  0.27176  0.70292  1.0000
  C   C532      1.0  0.52384  0.26164  0.43839  1.0000
  C   C533      1.0  0.66708  0.41718  0.53724  1.0000
  H   H861      1.0  0.62033  0.35625  0.46360  1.0000
  H   H862      1.0  0.63376  0.19465  0.57897  1.0000
  Fe  Fe116     1.0  0.42724  0.21397  0.45692  1.0000
  H   H863      1.0  0.66337  0.32951  0.67873  1.0000
  H   H864      1.0  0.65684  0.24155  0.27060  1.0000
  S   S227      1.0  0.43593  0.28741  0.51230  1.0000
  S   S228      1.0  0.60599  0.27739  0.46560  1.0000
  H   H865      1.0  0.42200  0.38495  0.41291  1.0000
  H   H866      1.0  0.44843  0.35542  0.62175  1.0000
  C   C534      1.0  0.52054  0.27836  0.60577  1.0000
  H   H867      1.0  0.64836  0.25563  0.49158  1.0000
  H   H868      1.0  0.47405  0.21606  0.73085  1.0000
  H   H869      1.0  0.57352  0.41134  0.25163  1.0000
  C   C535      1.0  0.64622  0.35361  0.71739  1.0000
  C   C536      1.0  0.39140  0.28023  0.65003  1.0000
  C   C537      1.0  0.51738  0.23363  0.46836  1.0000
  H   H870      1.0  0.65856  0.28596  0.59875  1.0000
  H   H871      1.0  0.63551  0.29779  0.70613  1.0000
  C   C538      1.0  0.57250  0.19680  0.47743  1.0000
  C   C539      1.0  0.40892  0.37988  0.45402  1.0000
  C   C540      1.0  0.48026  0.22354  0.43565  1.0000
  C   C541      1.0  0.67190  0.30590  0.59069  1.0000
  C   C542      1.0  0.50891  0.27078  0.40514  1.0000
  H   H872      1.0  0.43397  0.22581  0.66080  1.0000
  H   H873      1.0  0.51411  0.29256  0.38035  1.0000
  C   C543      1.0  0.51662  0.33672  0.48557  1.0000
  C   C544      1.0  0.50890  0.31921  0.46017  1.0000
  H   H874      1.0  0.52187  0.31639  0.43836  1.0000
  H   H875      1.0  0.52909  0.22661  0.49268  1.0000
  C   C545      1.0  0.50613  0.40477  0.52062  1.0000
  H   H876      1.0  0.42181  0.30314  0.31516  1.0000
  H   H877      1.0  0.61609  0.35001  0.64133  1.0000
  C   C546      1.0  0.41581  0.39556  0.48447  1.0000
  C   C547      1.0  0.64756  0.21034  0.58804  1.0000
  S   S229      1.0  0.64641  0.32831  0.51579  1.0000
  C   C548      1.0  0.65683  0.41259  0.48937  1.0000
  H   H878      1.0  0.43444  0.34582  0.39031  1.0000
  H   H879      1.0  0.47158  0.34710  0.35899  1.0000
  H   H880      1.0  0.50676  0.23012  0.32092  1.0000
  S   S230      1.0  0.38753  0.19029  0.46985  1.0000
  N   N52       1.0  0.44415  0.34230  0.30774  1.0000
  C   C549      1.0  0.39883  0.38869  0.53792  1.0000
  S   S231      1.0  0.47451  0.40060  0.37712  1.0000
  S   S232      1.0  0.56541  0.34254  0.65236  1.0000
  S   S233      1.0  0.55612  0.22189  0.58316  1.0000
  Fe  Fe117     1.0  0.57271  0.37999  0.65672  1.0000
  C   C550      1.0  0.47904  0.39424  0.45543  1.0000
  S   S234      1.0  0.37988  0.35601  0.25407  1.0000
  C   C551      1.0  0.69104  0.36940  0.36389  1.0000
  C   C552      1.0  0.56800  0.21855  0.44005  1.0000
  C   C553      1.0  0.51063  0.23162  0.63849  1.0000
  S   S235      1.0  0.55528  0.39457  0.57638  1.0000
  H   H881      1.0  0.47713  0.34147  0.29253  1.0000
  C   C554      1.0  0.65830  0.24792  0.47414  1.0000
  C   C555      1.0  0.45968  0.37460  0.51440  1.0000
  H   H882      1.0  0.60072  0.39978  0.54488  1.0000
  S   S236      1.0  0.37604  0.33793  0.44005  1.0000
  H   H883      1.0  0.59978  0.32645  0.38368  1.0000
  C   C556      1.0  0.38975  0.40867  0.29071  1.0000
  Fe  Fe118     1.0  0.39041  0.23211  0.41419  1.0000
  C   C557      1.0  0.66983  0.32952  0.55272  1.0000
  C   C558      1.0  0.67963  0.22231  0.50278  1.0000
  C   C559      1.0  0.61505  0.34831  0.35887  1.0000
  H   H884      1.0  0.63305  0.40371  0.28259  1.0000
  S   S237      1.0  0.43069  0.25610  0.39389  1.0000
  H   H885      1.0  0.55658  0.42652  0.37385  1.0000
  C   C560      1.0  0.45560  0.37242  0.25674  1.0000
  N   N53       1.0  0.62113  0.20516  0.32253  1.0000
  H   H886      1.0  0.40923  0.28731  0.61884  1.0000
  H   H887      1.0  0.53394  0.27976  0.63497  1.0000
  H   H888      1.0  0.69336  0.29004  0.64614  1.0000
  H   H889      1.0  0.59779  0.19284  0.26620  1.0000
  H   H890      1.0  0.68346  0.37477  0.39518  1.0000
  H   H891      1.0  0.42194  0.25040  0.69946  1.0000
  C   C561      1.0  0.46284  0.33591  0.33335  1.0000
  C   C562      1.0  0.61025  0.22027  0.33177  1.0000
  H   H892      1.0  0.68524  0.37348  0.51398  1.0000
  H   H893      1.0  0.61973  0.35682  0.30402  1.0000
  S   S238      1.0  0.40662  0.40642  0.58009  1.0000
  C   C563      1.0  0.62910  0.40863  0.59182  1.0000
  H   H894      1.0  0.59036  0.20960  0.33853  1.0000
  Fe  Fe119     1.0  0.61625  0.28617  0.54546  1.0000
  H   H895      1.0  0.69316  0.24327  0.58099  1.0000
  Fe  Fe120     1.0  0.57069  0.23456  0.65420  1.0000
  C   C564      1.0  0.49989  0.34048  0.51331  1.0000
  C   C565      1.0  0.56679  0.42885  0.33021  1.0000
  S   S239      1.0  0.54997  0.28577  0.44294  1.0000
  C   C566      1.0  0.48412  0.30417  0.46637  1.0000
  C   C567      1.0  0.49563  0.21457  0.46678  1.0000
  H   H896      1.0  0.51718  0.42480  0.41360  1.0000
  H   H897      1.0  0.39171  0.24086  0.63318  1.0000
  H   H898      1.0  0.47799  0.28995  0.44868  1.0000
  H   H899      1.0  0.49595  0.20949  0.66073  1.0000
  H   H900      1.0  0.43430  0.41249  0.46759  1.0000
  H   H901      1.0  0.58948  0.33147  0.47662  1.0000
  S   S240      1.0  0.59414  0.20174  0.52143  1.0000
  S   S241      1.0  0.54676  0.35269  0.48710  1.0000
  H   H902      1.0  0.57764  0.23783  0.43855  1.0000
  H   H903      1.0  0.61456  0.32067  0.64135  1.0000
  H   H904      1.0  0.67708  0.26203  0.56084  1.0000
  S   S242      1.0  0.49233  0.37967  0.65648  1.0000
  C   C568      1.0  0.48708  0.25172  0.40419  1.0000
  H   H905      1.0  0.63099  0.34769  0.37579  1.0000
  C   C569      1.0  0.64744  0.21970  0.31479  1.0000
  H   H906      1.0  0.52050  0.23913  0.58746  1.0000
  H   H907      1.0  0.62484  0.40802  0.34824  1.0000
  C   C570      1.0  0.58639  0.36416  0.35547  1.0000
  H   H908      1.0  0.52410  0.41653  0.52266  1.0000
  H   H909      1.0  0.50032  0.24129  0.73447  1.0000
  H   H910      1.0  0.46228  0.32770  0.54361  1.0000
  H   H911      1.0  0.51735  0.38764  0.30371  1.0000
  S   S243      1.0  0.69954  0.18482  0.38108  1.0000
  Fe  Fe121     1.0  0.38273  0.19237  0.56155  1.0000
  H   H912      1.0  0.38981  0.29912  0.63360  1.0000
  N   N54       1.0  0.55096  0.42200  0.28948  1.0000
  C   C571      1.0  0.68555  0.25348  0.54180  1.0000
  H   H913      1.0  0.38740  0.38738  0.31674  1.0000
  H   H914      1.0  0.64283  0.35294  0.60394  1.0000
  H   H915      1.0  0.48088  0.42717  0.65516  1.0000
  H   H916      1.0  0.61326  0.22197  0.37610  1.0000
  H   H917      1.0  0.69376  0.23881  0.45379  1.0000
  C   C572      1.0  0.65325  0.41550  0.58820  1.0000
  C   C573      1.0  0.42590  0.33502  0.36366  1.0000
  C   C574      1.0  0.48677  0.38538  0.57951  1.0000
  C   C575      1.0  0.53021  0.39319  0.33195  1.0000
  S   S244      1.0  0.42220  0.21314  0.55287  1.0000
  H   H918      1.0  0.66627  0.20545  0.49638  1.0000
  C   C576      1.0  0.70616  0.35739  0.57127  1.0000
  Fe  Fe122     1.0  0.54520  0.35508  0.57935  1.0000
  C   C577      1.0  0.41966  0.23028  0.73561  1.0000
  H   H919      1.0  0.47504  0.26045  0.59282  1.0000
  S   S245      1.0  0.51022  0.32935  0.66045  1.0000
  S   S246      1.0  0.60773  0.24247  0.61941  1.0000
  C   C578      1.0  0.62887  0.39446  0.33758  1.0000
  H   H920      1.0  0.41947  0.33179  0.25263  1.0000
  S   S247      1.0  0.53942  0.35700  0.74214  1.0000
  H   H921      1.0  0.47042  0.42365  0.55827  1.0000
  C   C579      1.0  0.48762  0.23870  0.70410  1.0000
  H   H922      1.0  0.45469  0.31320  0.37053  1.0000
  H   H923      1.0  0.62549  0.40443  0.45343  1.0000
  H   H924      1.0  0.57014  0.34304  0.38838  1.0000
  C   C580      1.0  0.46725  0.30678  0.49795  1.0000
  C   C581      1.0  0.50220  0.40951  0.45871  1.0000
  C   C582      1.0  0.42669  0.21646  0.71378  1.0000
  H   H925      1.0  0.49046  0.19283  0.49127  1.0000
  H   H926      1.0  0.57248  0.26548  0.71680  1.0000
  Fe  Fe123     1.0  0.52120  0.36825  0.66139  1.0000
  H   H927      1.0  0.44174  0.36266  0.51223  1.0000
  Fe  Fe124     1.0  0.56899  0.26691  0.51010  1.0000
  N   N55       1.0  0.60851  0.36525  0.37470  1.0000
  N   N56       1.0  0.50062  0.24924  0.63561  1.0000
  H   H928      1.0  0.68857  0.21314  0.53905  1.0000
  N   N57       1.0  0.63149  0.32918  0.71195  1.0000
  H   H929      1.0  0.64539  0.23357  0.46035  1.0000
  C   C583      1.0  0.46346  0.37049  0.57634  1.0000
  H   H930      1.0  0.53647  0.37779  0.35146  1.0000
  C   C584      1.0  0.68693  0.35524  0.54305  1.0000
  H   H931      1.0  0.59673  0.36468  0.46205  1.0000
  H   H932      1.0  0.46900  0.22646  0.61373  1.0000
  H   H933      1.0  0.66329  0.36923  0.67516  1.0000
  C   C585      1.0  0.43232  0.32596  0.27709  1.0000
  H   H934      1.0  0.52336  0.23159  0.66970  1.0000
  H   H935      1.0  0.63813  0.21787  0.60790  1.0000
  H   H936      1.0  0.41236  0.34120  0.34555  1.0000
  H   H937      1.0  0.67962  0.36763  0.32981  1.0000
  C   C586      1.0  0.64515  0.31480  0.71613  1.0000
  H   H938      1.0  0.68876  0.34845  0.39814  1.0000
  Fe  Fe125     1.0  0.42216  0.25310  0.49130  1.0000
  S   S248      1.0  0.38198  0.23198  0.50727  1.0000
  H   H939      1.0  0.54142  0.27319  0.30210  1.0000
  H   H940      1.0  0.47805  0.24994  0.70372  1.0000
  S   S249      1.0  0.45205  0.19987  0.43783  1.0000
  H   H941      1.0  0.47569  0.25894  0.37808  1.0000
  C   C587      1.0  0.69148  0.30820  0.61773  1.0000
  C   C588      1.0  0.47524  0.32535  0.52006  1.0000
  Fe  Fe126     1.0  0.53121  0.32016  0.73372  1.0000
  C   C589      1.0  0.62596  0.33859  0.64690  1.0000
  H   H942      1.0  0.64576  0.39574  0.35095  1.0000
  H   H943      1.0  0.61820  0.24187  0.28775  1.0000
  H   H944      1.0  0.53049  0.28741  0.55335  1.0000
  S   S250      1.0  0.57997  0.27871  0.58489  1.0000
  H   H945      1.0  0.70108  0.27129  0.49664  1.0000
  H   H946      1.0  0.54860  0.23305  0.37286  1.0000
  C   C590      1.0  0.61909  0.40434  0.54347  1.0000
  S   S251      1.0  0.52109  0.19058  0.34804  1.0000
  S   S252      1.0  0.67371  0.41568  0.42361  1.0000
  H   H947      1.0  0.51347  0.29191  0.60453  1.0000
  H   H948      1.0  0.66115  0.41913  0.62514  1.0000
  H   H949      1.0  0.51965  0.39041  0.37591  1.0000
  C   C591      1.0  0.48371  0.24827  0.59416  1.0000
  H   H950      1.0  0.58789  0.36901  0.30347  1.0000
  H   H951      1.0  0.65426  0.19924  0.62823  1.0000
  H   H952      1.0  0.50591  0.35504  0.52989  1.0000
  N   N58       1.0  0.66778  0.23354  0.52660  1.0000
  C   C592      1.0  0.63300  0.40657  0.49209  1.0000
  C   C593      1.0  0.60367  0.35395  0.44747  1.0000
  H   H953      1.0  0.49319  0.25699  0.54160  1.0000
  H   H954      1.0  0.67352  0.33910  0.28024  1.0000
  H   H955      1.0  0.67319  0.26612  0.42768  1.0000
  C   C594      1.0  0.53935  0.19130  0.40215  1.0000
  H   H956      1.0  0.58257  0.37903  0.36017  1.0000
  H   H957      1.0  0.65619  0.20884  0.30726  1.0000
  H   H958      1.0  0.52515  0.29100  0.26692  1.0000
  H   H959      1.0  0.38859  0.27960  0.53823  1.0000
  H   H960      1.0  0.68559  0.42181  0.53527  1.0000
  C   C595      1.0  0.50423  0.24260  0.27225  1.0000
  H   H961      1.0  0.65095  0.22063  0.35980  1.0000
  C   C596      1.0  0.38523  0.35735  0.47770  1.0000
  H   H962      1.0  0.66737  0.30043  0.26523  1.0000
  H   H963      1.0  0.46471  0.38526  0.27841  1.0000
  S   S253      1.0  0.63484  0.22257  0.74091  1.0000
  H   H964      1.0  0.55955  0.29275  0.74187  1.0000
  H   H965      1.0  0.63600  0.36429  0.71672  1.0000
  H   H966      1.0  0.49067  0.24783  0.28349  1.0000
  H   H967      1.0  0.40424  0.42115  0.30564  1.0000
  H   H968      1.0  0.57444  0.41483  0.35059  1.0000
  H   H969      1.0  0.54921  0.24876  0.25462  1.0000
  C   C597      1.0  0.61742  0.20439  0.26166  1.0000
  C   C598      1.0  0.70855  0.33396  0.60799  1.0000
  H   H970      1.0  0.62609  0.19399  0.25187  1.0000
  C   C599      1.0  0.53788  0.28500  0.25460  1.0000
  H   H971      1.0  0.52731  0.33539  0.25021  1.0000
  H   H972      1.0  0.69567  0.68081  0.04380  1.0000
  H   H973      1.0  0.65140  0.67982  0.94443  1.0000
  H   H974      1.0  0.48836  0.44868  0.06659  1.0000
  Fe  Fe127     1.0  0.48799  0.49388  0.18832  1.0000
  H   H975      1.0  0.40960  0.60359  0.10521  1.0000
  C   C600      1.0  0.43549  0.64114  0.90906  1.0000
  C   C601      1.0  0.56491  0.56585  0.82307  1.0000
  H   H976      1.0  0.56310  0.66018  0.92202  1.0000
  Fe  Fe128     1.0  0.53242  0.50223  0.23711  1.0000
  H   H977      1.0  0.50072  0.60200  0.18206  1.0000
  C   C602      1.0  0.45034  0.50930  0.11786  1.0000
  Fe  Fe129     1.0  0.62024  0.63172  0.89900  1.0000
  H   H978      1.0  0.50506  0.47677  0.91241  1.0000
  Fe  Fe130     1.0  0.39425  0.55984  0.93088  1.0000
  C   C603      1.0  0.46019  0.64960  0.89689  1.0000
  S   S254      1.0  0.69572  0.51232  0.92909  1.0000
  C   C604      1.0  0.70607  0.53503  0.05166  1.0000
  C   C605      1.0  0.48379  0.46457  0.03301  1.0000
  C   C606      1.0  0.40426  0.52233  0.76144  1.0000
  H   H979      1.0  0.70258  0.49455  0.17240  1.0000
  C   C607      1.0  0.51725  0.48461  0.93945  1.0000
  Fe  Fe131     1.0  0.52142  0.68050  0.99134  1.0000
  C   C608      1.0  0.70351  0.51323  0.16927  1.0000
  H   H980      1.0  0.41826  0.54616  0.21952  1.0000
  C   C609      1.0  0.53483  0.58626  0.76438  1.0000
  H   H981      1.0  0.49216  0.55331  0.23415  1.0000
  H   H982      1.0  0.46079  0.56572  0.78941  1.0000
  C   C610      1.0  0.47455  0.66363  0.92552  1.0000
  S   S255      1.0  0.67095  0.45660  0.12065  1.0000
  Fe  Fe132     1.0  0.66753  0.47071  0.01663  1.0000
  S   S256      1.0  0.65834  0.64273  0.89858  1.0000
  C   C611      1.0  0.63651  0.53278  0.07514  1.0000
  H   H983      1.0  0.44969  0.63462  0.10851  1.0000
  S   S257      1.0  0.62506  0.45779  0.22260  1.0000
  S   S258      1.0  0.43713  0.46666  0.93450  1.0000
  H   H984      1.0  0.53098  0.61200  0.90676  1.0000
  H   H985      1.0  0.53986  0.52212  0.97420  1.0000
  C   C612      1.0  0.62846  0.50416  0.11415  1.0000
  H   H986      1.0  0.47309  0.60736  0.95735  1.0000
  H   H987      1.0  0.64719  0.62487  0.11119  1.0000
  Fe  Fe133     1.0  0.63292  0.44684  0.14947  1.0000
  H   H988      1.0  0.48753  0.50424  0.90756  1.0000
  C   C613      1.0  0.49731  0.61673  0.84457  1.0000
  C   C614      1.0  0.41439  0.51129  0.09473  1.0000
  H   H989      1.0  0.39910  0.58289  0.19531  1.0000
  S   S259      1.0  0.50368  0.66791  0.92251  1.0000
  C   C615      1.0  0.65172  0.53863  0.16294  1.0000
  H   H990      1.0  0.67414  0.66463  0.12181  1.0000
  C   C616      1.0  0.41503  0.49325  0.94541  1.0000
  H   H991      1.0  0.46516  0.59922  0.09015  1.0000
  H   H992      1.0  0.46657  0.57198  0.01043  1.0000
  C   C617      1.0  0.43191  0.56617  0.21364  1.0000
  H   H993      1.0  0.40267  0.51242  0.06275  1.0000
  C   C618      1.0  0.43995  0.66326  0.97257  1.0000
  H   H994      1.0  0.69792  0.64442  0.95250  1.0000
  S   S260      1.0  0.57232  0.52002  0.21753  1.0000
  H   H995      1.0  0.44218  0.44255  0.84831  1.0000
  S   S261      1.0  0.62386  0.63002  0.80640  1.0000
  H   H996      1.0  0.57220  0.63975  0.16773  1.0000
  H   H997      1.0  0.51460  0.53194  0.90255  1.0000
  H   H998      1.0  0.46785  0.64419  0.86765  1.0000
  C   C619      1.0  0.48957  0.56991  0.91910  1.0000
  C   C620      1.0  0.63226  0.49279  0.17720  1.0000
  Fe  Fe134     1.0  0.38077  0.58863  0.98800  1.0000
  H   H999      1.0  0.63053  0.65114  0.12586  1.0000
  C   C621      1.0  0.44483  0.50836  0.17724  1.0000
  H   H1000     1.0  0.68456  0.50863  0.18183  1.0000
  C   C622      1.0  0.65286  0.63983  0.05600  1.0000
  H   H1001     1.0  0.54194  0.67308  0.83609  1.0000
  H   H1002     1.0  0.66871  0.64020  0.03395  1.0000
  S   S262      1.0  0.49741  0.63251  0.24336  1.0000
  H   H1003     1.0  0.54572  0.63584  0.20986  1.0000
  H   H1004     1.0  0.49980  0.63630  0.83956  1.0000
  H   H1005     1.0  0.39738  0.51347  0.95764  1.0000
  H   H1006     1.0  0.47268  0.55975  0.90760  1.0000
  H   H1007     1.0  0.70469  0.62435  0.89076  1.0000
  S   S263      1.0  0.64955  0.59223  0.87597  1.0000
  C   C623      1.0  0.47088  0.58872  0.95762  1.0000
  S   S264      1.0  0.47550  0.50721  0.09708  1.0000
  C   C624      1.0  0.57085  0.66699  0.87104  1.0000
  H   H1008     1.0  0.46654  0.52506  0.82280  1.0000
  H   H1009     1.0  0.52872  0.48766  0.04558  1.0000
  C   C625      1.0  0.56331  0.58605  0.83036  1.0000
  C   C626      1.0  0.41502  0.47001  0.75705  1.0000
  H   H1010     1.0  0.52217  0.46867  0.97057  1.0000
  H   H1011     1.0  0.53433  0.50361  0.90131  1.0000
  C   C627      1.0  0.41236  0.51620  0.92809  1.0000
  H   H1012     1.0  0.43666  0.57356  0.09366  1.0000
  H   H1013     1.0  0.50477  0.57448  0.88305  1.0000
  H   H1014     1.0  0.66847  0.57227  0.80240  1.0000
  H   H1015     1.0  0.43956  0.51192  0.03011  1.0000
  C   C628      1.0  0.60241  0.67663  0.78810  1.0000
  S   S265      1.0  0.42407  0.57039  0.85153  1.0000
  C   C629      1.0  0.49853  0.51106  0.93788  1.0000
  S   S266      1.0  0.53488  0.65564  0.06774  1.0000
  C   C630      1.0  0.55887  0.67423  0.82258  1.0000
  H   H1016     1.0  0.41652  0.54348  0.75235  1.0000
  H   H1017     1.0  0.54530  0.60583  0.21682  1.0000
  H   H1018     1.0  0.48817  0.55436  0.97016  1.0000
  S   S267      1.0  0.63054  0.46407  0.04417  1.0000
  S   S268      1.0  0.58393  0.55341  0.85918  1.0000
  S   S269      1.0  0.40642  0.57240  0.00387  1.0000
  H   H1019     1.0  0.51400  0.62265  0.81074  1.0000
  H   H1020     1.0  0.40752  0.46942  0.79992  1.0000
  C   C631      1.0  0.45136  0.52255  0.85218  1.0000
  Fe  Fe135     1.0  0.51924  0.66431  0.13546  1.0000
  C   C632      1.0  0.46471  0.67178  0.96018  1.0000
  H   H1021     1.0  0.47032  0.45536  0.01032  1.0000
  H   H1022     1.0  0.66084  0.55198  0.18175  1.0000
  C   C633      1.0  0.43529  0.51112  0.07614  1.0000
  C   C634      1.0  0.55112  0.55552  0.78723  1.0000
  S   S270      1.0  0.51301  0.52630  0.20801  1.0000
  H   H1023     1.0  0.51517  0.50773  0.04329  1.0000
  H   H1024     1.0  0.70453  0.51679  0.05114  1.0000
  H   H1025     1.0  0.53047  0.43758  0.22963  1.0000
  C   C635      1.0  0.44808  0.54550  0.83328  1.0000
  N   N59       1.0  0.49297  0.59550  0.91486  1.0000
  S   S271      1.0  0.39354  0.62978  0.97919  1.0000
  H   H1026     1.0  0.39782  0.56661  0.14886  1.0000
  C   C636      1.0  0.63704  0.66605  0.07068  1.0000
  C   C637      1.0  0.64330  0.50990  0.20236  1.0000
  C   C638      1.0  0.51399  0.60643  0.93853  1.0000
  H   H1027     1.0  0.43882  0.61432  0.19859  1.0000
  C   C639      1.0  0.40898  0.58569  0.15041  1.0000
  C   C640      1.0  0.55678  0.62573  0.21459  1.0000
  H   H1028     1.0  0.63374  0.54150  0.02612  1.0000
  H   H1029     1.0  0.51143  0.59078  0.99109  1.0000
  S   S272      1.0  0.66116  0.58634  0.04739  1.0000
  C   C641      1.0  0.53574  0.56535  0.75897  1.0000
  H   H1030     1.0  0.59499  0.61914  0.23447  1.0000
  H   H1031     1.0  0.42424  0.62931  0.88898  1.0000
  N   N60       1.0  0.50566  0.49069  0.98074  1.0000
  H   H1032     1.0  0.47446  0.46837  0.06489  1.0000
  H   H1033     1.0  0.55713  0.46383  0.23146  1.0000
  H   H1034     1.0  0.61935  0.67781  0.77455  1.0000
  C   C642      1.0  0.43466  0.49633  0.90836  1.0000
  H   H1035     1.0  0.44576  0.60999  0.04603  1.0000
  H   H1036     1.0  0.40720  0.50712  0.80440  1.0000
  H   H1037     1.0  0.68734  0.53149  0.06218  1.0000
  H   H1038     1.0  0.55233  0.53993  0.78127  1.0000
  C   C643      1.0  0.42516  0.64687  0.94943  1.0000
  H   H1039     1.0  0.57319  0.59339  0.85996  1.0000
  H   H1040     1.0  0.51684  0.62553  0.93704  1.0000
  Fe  Fe136     1.0  0.61165  0.58482  0.87799  1.0000
  C   C644      1.0  0.44587  0.59343  0.09294  1.0000
  C   C645      1.0  0.52307  0.50249  0.01247  1.0000
  C   C646      1.0  0.59218  0.66728  0.85432  1.0000
  Fe  Fe137     1.0  0.66096  0.63744  0.81169  1.0000
  H   H1041     1.0  0.57957  0.44633  0.19779  1.0000
  S   S273      1.0  0.60540  0.65519  0.91717  1.0000
  H   H1042     1.0  0.38218  0.53431  0.83220  1.0000
  S   S274      1.0  0.50970  0.47260  0.20716  1.0000
  S   S275      1.0  0.38204  0.50879  0.17900  1.0000
  N   N61       1.0  0.43363  0.59033  0.15280  1.0000
  H   H1043     1.0  0.59691  0.66199  0.22269  1.0000
  C   C647      1.0  0.40825  0.50891  0.15574  1.0000
  H   H1044     1.0  0.45485  0.58122  0.93957  1.0000
  H   H1045     1.0  0.62182  0.65900  0.04960  1.0000
  C   C648      1.0  0.42342  0.50733  0.19721  1.0000
  H   H1046     1.0  0.44959  0.56683  0.21219  1.0000
  S   S276      1.0  0.60549  0.58596  0.97077  1.0000
  H   H1047     1.0  0.40190  0.47316  0.98805  1.0000
  H   H1048     1.0  0.61915  0.49090  0.09554  1.0000
  C   C649      1.0  0.49462  0.58840  0.23592  1.0000
  H   H1049     1.0  0.54818  0.61296  0.80389  1.0000
  C   C650      1.0  0.54871  0.59667  0.79987  1.0000
  H   H1050     1.0  0.45712  0.50855  0.20764  1.0000
  Fe  Fe138     1.0  0.64436  0.59704  0.96317  1.0000
  C   C651      1.0  0.44776  0.61594  0.15419  1.0000
  C   C652      1.0  0.42866  0.54233  0.87213  1.0000
  H   H1051     1.0  0.69239  0.56675  0.78313  1.0000
  H   H1052     1.0  0.63767  0.63100  0.03683  1.0000
  H   H1053     1.0  0.43210  0.66822  0.00272  1.0000
  C   C653      1.0  0.64859  0.55012  0.09893  1.0000
  H   H1054     1.0  0.45213  0.49456  0.75165  1.0000
  H   H1055     1.0  0.48193  0.60888  0.82475  1.0000
  H   H1056     1.0  0.48733  0.51370  0.96833  1.0000
  N   N62       1.0  0.65877  0.66797  0.03986  1.0000
  H   H1057     1.0  0.46631  0.61981  0.15722  1.0000
  C   C654      1.0  0.68113  0.57617  0.76065  1.0000
  H   H1058     1.0  0.70147  0.56089  0.11062  1.0000
  N   N63       1.0  0.37862  0.51517  0.77464  1.0000
  H   H1059     1.0  0.69930  0.61845  0.78210  1.0000
  H   H1060     1.0  0.41875  0.50550  0.24440  1.0000
  C   C655      1.0  0.67887  0.67875  0.06661  1.0000
  H   H1061     1.0  0.37597  0.44623  0.21745  1.0000
  H   H1062     1.0  0.62989  0.43380  0.82285  1.0000
  C   C656      1.0  0.59820  0.65184  0.51621  1.0000
  H   H1063     1.0  0.59706  0.55414  0.36619  1.0000
  S   S277      1.0  0.51658  0.59982  0.72769  1.0000
  H   H1064     1.0  0.45426  0.63436  0.41809  1.0000
  C   C657      1.0  0.49877  0.49112  0.51782  1.0000
  Fe  Fe139     1.0  0.63967  0.59639  0.48900  1.0000
  C   C658      1.0  0.59045  0.61861  0.63285  1.0000
  Fe  Fe140     1.0  0.49080  0.54701  0.60995  1.0000
  H   H1065     1.0  0.53100  0.47508  0.55169  1.0000
  H   H1066     1.0  0.43144  0.51647  0.36403  1.0000
  C   C659      1.0  0.40233  0.46146  0.42457  1.0000
  C   C660      1.0  0.68989  0.63059  0.51085  1.0000
  H   H1067     1.0  0.48117  0.45477  0.47698  1.0000
  H   H1068     1.0  0.69971  0.58872  0.31199  1.0000
  H   H1069     1.0  0.47171  0.53894  0.42953  1.0000
  C   C661      1.0  0.41510  0.47859  0.49790  1.0000
  H   H1070     1.0  0.61214  0.64776  0.50136  1.0000
  H   H1071     1.0  0.65851  0.52907  0.35208  1.0000
  H   H1072     1.0  0.51341  0.44044  0.56821  1.0000
  C   C662      1.0  0.48989  0.56082  0.26547  1.0000
  H   H1073     1.0  0.43431  0.48572  0.47682  1.0000
  H   H1074     1.0  0.70225  0.59966  0.63048  1.0000
  H   H1075     1.0  0.52455  0.55668  0.73325  1.0000
  C   C663      1.0  0.37611  0.53686  0.71753  1.0000
  C   C664      1.0  0.64355  0.66481  0.26373  1.0000
  Fe  Fe141     1.0  0.67013  0.58039  0.43347  1.0000
  H   H1076     1.0  0.44205  0.46935  0.60844  1.0000
  H   H1077     1.0  0.57087  0.65869  0.26522  1.0000
  C   C665      1.0  0.56772  0.48921  0.35078  1.0000
  H   H1078     1.0  0.46741  0.44853  0.63986  1.0000
  H   H1079     1.0  0.66839  0.61568  0.72135  1.0000
  S   S278      1.0  0.64544  0.56933  0.37416  1.0000
  C   C666      1.0  0.48186  0.54298  0.33538  1.0000
  H   H1080     1.0  0.47328  0.64591  0.46393  1.0000
  C   C667      1.0  0.58933  0.53605  0.36186  1.0000
  H   H1081     1.0  0.41030  0.52263  0.71605  1.0000
  H   H1082     1.0  0.40200  0.50989  0.35284  1.0000
  H   H1083     1.0  0.40710  0.45700  0.54219  1.0000
  H   H1084     1.0  0.56255  0.46524  0.45716  1.0000
  S   S279      1.0  0.64398  0.62061  0.53870  1.0000
  C   C668      1.0  0.51619  0.46187  0.53886  1.0000
  C   C669      1.0  0.39962  0.45556  0.73083  1.0000
  Fe  Fe142     1.0  0.48660  0.44603  0.31376  1.0000
  Fe  Fe143     1.0  0.64274  0.60706  0.34847  1.0000
  H   H1085     1.0  0.58099  0.67366  0.56754  1.0000
  H   H1086     1.0  0.65996  0.46954  0.49365  1.0000
  S   S280      1.0  0.70276  0.57584  0.44672  1.0000
  H   H1087     1.0  0.51194  0.50359  0.53543  1.0000
  S   S281      1.0  0.54958  0.64200  0.40868  1.0000
  H   H1088     1.0  0.45787  0.44585  0.54154  1.0000
  C   C670      1.0  0.61636  0.46515  0.48447  1.0000
  C   C671      1.0  0.47802  0.55259  0.37542  1.0000
  C   C672      1.0  0.64057  0.50944  0.38074  1.0000
  H   H1089     1.0  0.62661  0.51536  0.38302  1.0000
  S   S282      1.0  0.39215  0.56412  0.33568  1.0000
  S   S283      1.0  0.67091  0.62049  0.39728  1.0000
  C   C673      1.0  0.48443  0.67546  0.29504  1.0000
  S   S284      1.0  0.69489  0.67044  0.72705  1.0000
  N   N64       1.0  0.49362  0.46197  0.55377  1.0000
  C   C674      1.0  0.45005  0.48402  0.67607  1.0000
  C   C675      1.0  0.40111  0.56544  0.40429  1.0000
  H   H1090     1.0  0.60327  0.67363  0.47753  1.0000
  Fe  Fe144     1.0  0.46554  0.58107  0.57556  1.0000
  C   C676      1.0  0.58786  0.53938  0.29932  1.0000
  S   S285      1.0  0.49879  0.61895  0.56005  1.0000
  H   H1091     1.0  0.41521  0.49218  0.51603  1.0000
  S   S286      1.0  0.48579  0.57372  0.51397  1.0000
  C   C677      1.0  0.58052  0.50938  0.41868  1.0000
  C   C678      1.0  0.67557  0.64165  0.51605  1.0000
  H   H1092     1.0  0.59455  0.56002  0.25558  1.0000
  C   C679      1.0  0.57944  0.60663  0.28018  1.0000
  N   N65       1.0  0.49097  0.66731  0.35864  1.0000
  S   S287      1.0  0.51033  0.47480  0.34452  1.0000
  H   H1093     1.0  0.63191  0.51037  0.49242  1.0000
  C   C680      1.0  0.56091  0.68050  0.44648  1.0000
  H   H1094     1.0  0.63633  0.49917  0.35147  1.0000
  C   C681      1.0  0.48457  0.44908  0.62678  1.0000
  H   H1095     1.0  0.58706  0.60352  0.32350  1.0000
  S   S288      1.0  0.61130  0.58484  0.43809  1.0000
  S   S289      1.0  0.42847  0.57607  0.57197  1.0000
  H   H1096     1.0  0.50656  0.50171  0.46287  1.0000
  H   H1097     1.0  0.48003  0.58733  0.37736  1.0000
  H   H1098     1.0  0.69168  0.64073  0.64302  1.0000
  S   S290      1.0  0.64046  0.55665  0.52831  1.0000
  S   S291      1.0  0.64299  0.63924  0.25067  1.0000
  C   C682      1.0  0.54445  0.60290  0.33516  1.0000
  H   H1099     1.0  0.65560  0.47201  0.41633  1.0000
  C   C683      1.0  0.56586  0.67526  0.39742  1.0000
  H   H1100     1.0  0.68140  0.60888  0.52589  1.0000
  Fe  Fe145     1.0  0.51936  0.60955  0.50494  1.0000
  N   N66       1.0  0.59638  0.64747  0.58401  1.0000
  S   S292      1.0  0.46233  0.46423  0.29265  1.0000
  C   C684      1.0  0.65926  0.48331  0.44326  1.0000
  C   C685      1.0  0.47501  0.44585  0.53166  1.0000
  H   H1101     1.0  0.55039  0.59887  0.38135  1.0000
  C   C686      1.0  0.56957  0.48590  0.41325  1.0000
  C   C687      1.0  0.49115  0.59809  0.27625  1.0000
  Fe  Fe146     1.0  0.50397  0.58934  0.65135  1.0000
  C   C688      1.0  0.57705  0.51598  0.29377  1.0000
  H   H1102     1.0  0.66912  0.60731  0.65827  1.0000
  H   H1103     1.0  0.66380  0.52464  0.46022  1.0000
  C   C689      1.0  0.68070  0.61797  0.68184  1.0000
  S   S293      1.0  0.52637  0.58206  0.59505  1.0000
  S   S294      1.0  0.47558  0.50830  0.37612  1.0000
  H   H1104     1.0  0.56799  0.58573  0.28704  1.0000
  H   H1105     1.0  0.60186  0.47016  0.48834  1.0000
  H   H1106     1.0  0.67568  0.67821  0.50194  1.0000
  H   H1107     1.0  0.61902  0.66462  0.63479  1.0000
  H   H1108     1.0  0.61540  0.45099  0.53662  1.0000
  N   N67       1.0  0.40152  0.47940  0.44783  1.0000
  N   N68       1.0  0.69637  0.60636  0.70972  1.0000
  C   C690      1.0  0.37603  0.46908  0.47883  1.0000
  C   C691      1.0  0.44024  0.48407  0.72997  1.0000
  H   H1109     1.0  0.45303  0.58725  0.44881  1.0000
  H   H1110     1.0  0.41302  0.52277  0.40618  1.0000
  C   C692      1.0  0.41774  0.57068  0.50903  1.0000
  C   C693      1.0  0.41249  0.50843  0.39013  1.0000
  C   C694      1.0  0.64191  0.66055  0.32795  1.0000
  C   C695      1.0  0.46926  0.65313  0.41476  1.0000
  C   C696      1.0  0.50001  0.64810  0.36934  1.0000
  C   C697      1.0  0.64592  0.50496  0.48623  1.0000
  H   H1111     1.0  0.61179  0.45336  0.45873  1.0000
  C   C698      1.0  0.57708  0.65203  0.60285  1.0000
  C   C699      1.0  0.58109  0.64780  0.26842  1.0000
  H   H1112     1.0  0.49796  0.46104  0.64498  1.0000
  N   N69       1.0  0.64055  0.49072  0.44863  1.0000
  H   H1113     1.0  0.58821  0.64500  0.31254  1.0000
  C   C700      1.0  0.39292  0.55954  0.51358  1.0000
  H   H1114     1.0  0.57288  0.60302  0.63405  1.0000
  H   H1115     1.0  0.53211  0.58235  0.34134  1.0000
  S   S295      1.0  0.46884  0.55248  0.67237  1.0000
  S   S296      1.0  0.48142  0.50388  0.63795  1.0000
  H   H1116     1.0  0.48201  0.49208  0.52563  1.0000
  Fe  Fe147     1.0  0.61545  0.54776  0.46723  1.0000
  S   S297      1.0  0.58483  0.50595  0.49497  1.0000
  H   H1117     1.0  0.54688  0.66383  0.49305  1.0000
  C   C701      1.0  0.48264  0.58000  0.34591  1.0000
  H   H1118     1.0  0.63946  0.64144  0.36913  1.0000
  H   H1119     1.0  0.47009  0.65685  0.29612  1.0000
  H   H1120     1.0  0.39241  0.46181  0.38629  1.0000
  H   H1121     1.0  0.58907  0.61463  0.68445  1.0000
  H   H1122     1.0  0.58233  0.45075  0.29994  1.0000
  H   H1123     1.0  0.64635  0.49150  0.53741  1.0000
  H   H1124     1.0  0.55912  0.63744  0.60291  1.0000
  C   C702      1.0  0.42585  0.57653  0.39982  1.0000
  H   H1125     1.0  0.58065  0.63760  0.51370  1.0000
  H   H1126     1.0  0.43874  0.58366  0.35527  1.0000
  H   H1127     1.0  0.51679  0.65831  0.32895  1.0000
  H   H1128     1.0  0.70735  0.67812  0.28473  1.0000
  H   H1129     1.0  0.39756  0.44349  0.65832  1.0000
  C   C703      1.0  0.40943  0.45497  0.67801  1.0000
  C   C704      1.0  0.43461  0.46928  0.65040  1.0000
  H   H1130     1.0  0.60456  0.61433  0.62032  1.0000
  H   H1131     1.0  0.55881  0.47109  0.34674  1.0000
  H   H1132     1.0  0.52281  0.46996  0.48478  1.0000
  H   H1133     1.0  0.42139  0.46828  0.40222  1.0000
  C   C705      1.0  0.43402  0.57861  0.45264  1.0000
  H   H1134     1.0  0.48639  0.62947  0.36962  1.0000
  H   H1135     1.0  0.50436  0.64069  0.41773  1.0000
  H   H1136     1.0  0.67769  0.50227  0.41577  1.0000
  C   C706      1.0  0.61984  0.66731  0.58436  1.0000
  H   H1137     1.0  0.57492  0.64852  0.65418  1.0000
  H   H1138     1.0  0.38812  0.55796  0.70903  1.0000
  N   N70       1.0  0.56544  0.62075  0.27461  1.0000
  C   C707      1.0  0.68667  0.66954  0.49818  1.0000
  Fe  Fe148     1.0  0.48850  0.49593  0.31313  1.0000
  H   H1139     1.0  0.46221  0.66723  0.40893  1.0000
  H   H1140     1.0  0.63466  0.66406  0.57118  1.0000
  H   H1141     1.0  0.53358  0.61304  0.33281  1.0000
  H   H1142     1.0  0.39384  0.43932  0.46684  1.0000
  C   C708      1.0  0.64451  0.68152  0.33879  1.0000
  H   H1143     1.0  0.38115  0.53788  0.67041  1.0000
  C   C709      1.0  0.38456  0.55645  0.46176  1.0000
  H   H1144     1.0  0.38552  0.44986  0.28495  1.0000
  H   H1145     1.0  0.53063  0.43991  0.30266  1.0000
  H   H1146     1.0  0.38021  0.55367  0.55663  1.0000
  H   H1147     1.0  0.64453  0.67852  0.38795  1.0000
  C   C710      1.0  0.54191  0.44170  0.26206  1.0000
  H   H1148     1.0  0.64631  0.50119  0.25095  1.0000
  H   H1149     1.0  0.42636  0.56564  0.25958  1.0000
  H   H1150     1.0  0.66988  0.56450  0.73856  1.0000
  H   H1151     1.0  0.67424  0.91601  0.83050  1.0000
  N   N71       1.0  0.60603  0.79933  0.12434  1.0000
  C   C711      1.0  0.54464  0.72799  0.76974  1.0000
  C   C712      1.0  0.53720  0.92722  0.08465  1.0000
  S   S298      1.0  0.54425  0.76786  0.98637  1.0000
  C   C713      1.0  0.53743  0.77219  0.05133  1.0000
  H   H1152     1.0  0.64515  0.77637  0.85570  1.0000
  H   H1153     1.0  0.52114  0.72863  0.12783  1.0000
  H   H1154     1.0  0.59780  0.75051  0.98835  1.0000
  S   S299      1.0  0.67313  0.82440  0.97340  1.0000
  H   H1155     1.0  0.66504  0.83342  0.23166  1.0000
  C   C714      1.0  0.65561  0.79268  0.97811  1.0000
  C   C715      1.0  0.65268  0.86315  0.19197  1.0000
  N   N72       1.0  0.54008  0.75111  0.75310  1.0000
  H   H1156     1.0  0.64160  0.83499  0.09104  1.0000
  H   H1157     1.0  0.51354  0.75730  0.79119  1.0000
  C   C716      1.0  0.62235  0.75346  0.75350  1.0000
  H   H1158     1.0  0.52921  0.71057  0.76916  1.0000
  S   S300      1.0  0.69615  0.77971  0.10650  1.0000
  H   H1159     1.0  0.69163  0.89253  0.76347  1.0000
  H   H1160     1.0  0.67585  0.77566  0.79067  1.0000
  Fe  Fe149     1.0  0.59871  0.87571  0.17513  1.0000
  H   H1161     1.0  0.61280  0.71645  0.88379  1.0000
  H   H1162     1.0  0.55568  0.87575  0.87700  1.0000
  C   C717      1.0  0.64859  0.71068  0.22187  1.0000
  H   H1163     1.0  0.58730  0.79620  0.05155  1.0000
  S   S301      1.0  0.58204  0.89897  0.18543  1.0000
  C   C718      1.0  0.66252  0.91370  0.97405  1.0000
  Fe  Fe150     1.0  0.56813  0.69689  0.03300  1.0000
  H   H1164     1.0  0.69596  0.72532  0.21033  1.0000
  C   C719      1.0  0.54246  0.86890  0.92218  1.0000
  Fe  Fe151     1.0  0.68127  0.77455  0.20196  1.0000
  C   C720      1.0  0.52265  0.75325  0.16968  1.0000
  H   H1165     1.0  0.64725  0.69306  0.16116  1.0000
  H   H1166     1.0  0.50168  0.72345  0.80152  1.0000
  H   H1167     1.0  0.64089  0.68658  0.06176  1.0000
  C   C721      1.0  0.70198  0.90388  0.13150  1.0000
  C   C722      1.0  0.60065  0.81228  0.06021  1.0000
  H   H1168     1.0  0.62883  0.87464  0.01931  1.0000
  N   N73       1.0  0.54205  0.89283  0.91899  1.0000
  C   C723      1.0  0.63921  0.89580  0.97676  1.0000
  C   C724      1.0  0.70065  0.89686  0.90054  1.0000
  C   C725      1.0  0.64975  0.74818  0.00105  1.0000
  H   H1169     1.0  0.60216  0.76496  0.11672  1.0000
  S   S302      1.0  0.60146  0.88153  0.92543  1.0000
  S   S303      1.0  0.63916  0.90354  0.13915  1.0000
  H   H1170     1.0  0.54867  0.91597  0.81212  1.0000
  S   S304      1.0  0.63936  0.90993  0.75088  1.0000
  H   H1171     1.0  0.67063  0.87208  0.84570  1.0000
  C   C726      1.0  0.66479  0.77491  0.98943  1.0000
  N   N74       1.0  0.63781  0.75716  0.79749  1.0000
  H   H1172     1.0  0.51913  0.73157  0.85412  1.0000
  H   H1173     1.0  0.57626  0.79475  0.18292  1.0000
  H   H1174     1.0  0.61402  0.76011  0.85650  1.0000
  Fe  Fe152     1.0  0.60341  0.89153  0.82043  1.0000
  C   C727      1.0  0.53028  0.78009  0.15645  1.0000
  H   H1175     1.0  0.52936  0.87243  0.02597  1.0000
  Fe  Fe153     1.0  0.54919  0.82799  0.20196  1.0000
  S   S305      1.0  0.50367  0.68657  0.06162  1.0000
  C   C728      1.0  0.62436  0.82146  0.13249  1.0000
  C   C729      1.0  0.63308  0.77231  0.82433  1.0000
  C   C730      1.0  0.51762  0.74045  0.80200  1.0000
  C   C731      1.0  0.61646  0.75721  0.98862  1.0000
  C   C732      1.0  0.69373  0.92709  0.80284  1.0000
  H   H1176     1.0  0.58035  0.92102  0.86938  1.0000
  H   H1177     1.0  0.63563  0.71749  0.83517  1.0000
  H   H1178     1.0  0.47682  0.89242  0.16188  1.0000
  C   C733      1.0  0.53504  0.90694  0.85917  1.0000
  H   H1179     1.0  0.67184  0.72165  0.79187  1.0000
  Fe  Fe154     1.0  0.69117  0.81680  0.05536  1.0000
  H   H1180     1.0  0.69768  0.87046  0.83431  1.0000
  C   C734      1.0  0.52430  0.88271  0.98001  1.0000
  H   H1181     1.0  0.57230  0.90291  0.95916  1.0000
  C   C735      1.0  0.64632  0.68971  0.21080  1.0000
  C   C736      1.0  0.69026  0.88482  0.81742  1.0000
  S   S306      1.0  0.60621  0.70498  0.02071  1.0000
  C   C737      1.0  0.67043  0.85525  0.20072  1.0000
  S   S307      1.0  0.67344  0.80923  0.15168  1.0000
  S   S308      1.0  0.55343  0.70404  0.10588  1.0000
  C   C738      1.0  0.69511  0.87569  0.17028  1.0000
  H   H1182     1.0  0.61729  0.82600  0.01672  1.0000
  H   H1183     1.0  0.63365  0.84746  0.21631  1.0000
  C   C739      1.0  0.62538  0.73901  0.00235  1.0000
  H   H1184     1.0  0.58727  0.77197  0.23000  1.0000
  H   H1185     1.0  0.62457  0.79800  0.96576  1.0000
  C   C740      1.0  0.49585  0.90823  0.14372  1.0000
  S   S309      1.0  0.52813  0.78399  0.22497  1.0000
  H   H1186     1.0  0.67014  0.90620  0.01438  1.0000
  C   C741      1.0  0.61540  0.78158  0.12407  1.0000
  C   C742      1.0  0.52645  0.74930  0.11727  1.0000
  C   C743      1.0  0.66617  0.68717  0.96634  1.0000
  H   H1187     1.0  0.54800  0.85808  0.96634  1.0000
  H   H1188     1.0  0.55297  0.81671  0.98659  1.0000
  S   S310      1.0  0.58340  0.85811  0.79842  1.0000
  H   H1189     1.0  0.52350  0.90030  0.97893  1.0000
  S   S311      1.0  0.57775  0.86652  0.10687  1.0000
  H   H1190     1.0  0.64336  0.73135  0.88826  1.0000
  C   C744      1.0  0.62964  0.90506  0.92370  1.0000
  H   H1191     1.0  0.54676  0.82367  0.08006  1.0000
  H   H1192     1.0  0.68112  0.88412  0.92977  1.0000
  S   S312      1.0  0.55631  0.72085  0.94972  1.0000
  N   N75       1.0  0.70357  0.90808  0.82812  1.0000
  C   C745      1.0  0.50352  0.92999  0.15551  1.0000
  H   H1193     1.0  0.68351  0.69971  0.05665  1.0000
  H   H1194     1.0  0.67074  0.70857  0.95272  1.0000
  H   H1195     1.0  0.54719  0.71907  0.82053  1.0000
  H   H1196     1.0  0.51715  0.89233  0.85912  1.0000
  H   H1197     1.0  0.60272  0.74098  0.78148  1.0000
  Fe  Fe155     1.0  0.53941  0.72552  0.02467  1.0000
  H   H1198     1.0  0.65087  0.72998  0.18101  1.0000
  H   H1199     1.0  0.51461  0.73572  0.22067  1.0000
  H   H1200     1.0  0.61946  0.77127  0.17174  1.0000
  S   S313      1.0  0.52921  0.84866  0.21139  1.0000
  C   C746      1.0  0.66363  0.77339  0.75845  1.0000
  H   H1201     1.0  0.62864  0.81234  0.18075  1.0000
  C   C747      1.0  0.58374  0.78198  0.18089  1.0000
  C   C748      1.0  0.63166  0.78416  0.97549  1.0000
  H   H1202     1.0  0.59300  0.82538  0.05893  1.0000
  H   H1203     1.0  0.50572  0.86736  0.98536  1.0000
  C   C749      1.0  0.56073  0.77335  0.75601  1.0000
  H   H1204     1.0  0.68355  0.78182  0.98898  1.0000
  H   H1205     1.0  0.53389  0.92460  0.85651  1.0000
  C   C750      1.0  0.54082  0.80293  0.09040  1.0000
  H   H1206     1.0  0.65696  0.73454  0.01016  1.0000
  H   H1207     1.0  0.56337  0.76554  0.80685  1.0000
  C   C751      1.0  0.54421  0.79895  0.03766  1.0000
  C   C752      1.0  0.68434  0.91170  0.12267  1.0000
  H   H1208     1.0  0.52437  0.85323  0.92582  1.0000
  C   C753      1.0  0.63222  0.72947  0.85353  1.0000
  C   C754      1.0  0.68692  0.72031  0.77542  1.0000
  C   C755      1.0  0.51271  0.90666  0.10904  1.0000
  S   S314      1.0  0.48126  0.93004  0.20017  1.0000
  H   H1209     1.0  0.68246  0.68913  0.94105  1.0000
  H   H1210     1.0  0.61774  0.83520  0.13269  1.0000
  C   C756      1.0  0.56642  0.91282  0.91482  1.0000
  H   H1211     1.0  0.47599  0.68414  0.97859  1.0000
  C   C757      1.0  0.65969  0.89140  0.15244  1.0000
  H   H1212     1.0  0.56944  0.76509  0.17646  1.0000
  C   C758      1.0  0.68312  0.70224  0.75284  1.0000
  H   H1213     1.0  0.56673  0.93113  0.91234  1.0000
  H   H1214     1.0  0.50674  0.88951  0.10108  1.0000
  H   H1215     1.0  0.65873  0.92021  0.22627  1.0000
  H   H1216     1.0  0.63249  0.79412  0.08312  1.0000
  S   S315      1.0  0.55780  0.92406  0.04334  1.0000
  H   H1217     1.0  0.63626  0.79295  0.78344  1.0000
  Fe  Fe156     1.0  0.55967  0.88774  0.12271  1.0000
  C   C759      1.0  0.56868  0.68278  0.75688  1.0000
  H   H1218     1.0  0.66510  0.68974  0.75209  1.0000
  H   H1219     1.0  0.70856  0.88307  0.92094  1.0000
  H   H1220     1.0  0.61492  0.92909  0.05323  1.0000
  C   C760      1.0  0.54182  0.92182  0.67219  1.0000
  S   S316      1.0  0.55320  0.69136  0.69760  1.0000
  C   C761      1.0  0.57445  0.70740  0.43560  1.0000
  H   H1221     1.0  0.46463  0.89508  0.34116  1.0000
  H   H1222     1.0  0.70792  0.75820  0.42824  1.0000
  C   C762      1.0  0.70800  0.80701  0.36124  1.0000
  C   C763      1.0  0.51279  0.89650  0.63137  1.0000
  C   C764      1.0  0.43363  0.92616  0.62287  1.0000
  H   H1223     1.0  0.50460  0.87918  0.62394  1.0000
  H   H1224     1.0  0.67039  0.78381  0.46808  1.0000
  S   S317      1.0  0.63327  0.85375  0.71163  1.0000
  S   S318      1.0  0.54178  0.87581  0.68792  1.0000
  H   H1225     1.0  0.57797  0.78194  0.71955  1.0000
  H   H1226     1.0  0.69165  0.77258  0.49363  1.0000
  S   S319      1.0  0.61387  0.73744  0.54469  1.0000
  H   H1227     1.0  0.62616  0.77400  0.71060  1.0000
  H   H1228     1.0  0.58325  0.89049  0.49657  1.0000
  H   H1229     1.0  0.56110  0.73490  0.73340  1.0000
  C   C765      1.0  0.58445  0.69693  0.33777  1.0000
  N   N76       1.0  0.68675  0.77836  0.39846  1.0000
  C   C766      1.0  0.70220  0.69920  0.73462  1.0000
  Fe  Fe157     1.0  0.57641  0.88938  0.71685  1.0000
  H   H1230     1.0  0.59026  0.85122  0.67352  1.0000
  C   C767      1.0  0.66470  0.91095  0.27099  1.0000
  H   H1231     1.0  0.47746  0.68999  0.28492  1.0000
  H   H1232     1.0  0.64048  0.91906  0.34596  1.0000
  H   H1233     1.0  0.67814  0.73687  0.42688  1.0000
  H   H1234     1.0  0.62174  0.90772  0.29922  1.0000
  H   H1235     1.0  0.48963  0.86365  0.47741  1.0000
  H   H1236     1.0  0.51404  0.90943  0.37233  1.0000
  C   C768      1.0  0.61919  0.84354  0.65922  1.0000
  H   H1237     1.0  0.49843  0.84800  0.44149  1.0000
  C   C769      1.0  0.70669  0.87195  0.41604  1.0000
  C   C770      1.0  0.55982  0.88107  0.37662  1.0000
  Fe  Fe158     1.0  0.57994  0.72966  0.60136  1.0000
  N   N77       1.0  0.48416  0.87335  0.38051  1.0000
  C   C771      1.0  0.59078  0.68466  0.73917  1.0000
  C   C772      1.0  0.59883  0.83146  0.56681  1.0000
  Fe  Fe159     1.0  0.60562  0.76339  0.45381  1.0000
  H   H1238     1.0  0.50828  0.91420  0.29407  1.0000
  H   H1239     1.0  0.66855  0.79466  0.71707  1.0000
  H   H1240     1.0  0.66293  0.86905  0.38490  1.0000
  H   H1241     1.0  0.42686  0.92076  0.58572  1.0000
  S   S320      1.0  0.61017  0.76300  0.35970  1.0000
  C   C773      1.0  0.59288  0.72908  0.37553  1.0000
  H   H1242     1.0  0.55580  0.92114  0.49723  1.0000
  C   C774      1.0  0.46576  0.88067  0.39004  1.0000
  H   H1243     1.0  0.66763  0.76314  0.73515  1.0000
  C   C775      1.0  0.61941  0.82946  0.57949  1.0000
  H   H1244     1.0  0.70847  0.73596  0.29401  1.0000
  C   C776      1.0  0.64868  0.70692  0.28536  1.0000
  H   H1245     1.0  0.63820  0.85588  0.31653  1.0000
  C   C777      1.0  0.67301  0.91773  0.56731  1.0000
  Fe  Fe160     1.0  0.55318  0.85853  0.27328  1.0000
  H   H1246     1.0  0.66239  0.74834  0.49828  1.0000
  H   H1247     1.0  0.61364  0.88479  0.38822  1.0000
  H   H1248     1.0  0.61269  0.74014  0.28168  1.0000
  H   H1249     1.0  0.62796  0.82408  0.55214  1.0000
  H   H1250     1.0  0.68101  0.83137  0.43482  1.0000
  S   S321      1.0  0.57169  0.83570  0.26954  1.0000
  C   C778      1.0  0.62816  0.86550  0.32403  1.0000
  S   S322      1.0  0.65742  0.73445  0.29824  1.0000
  H   H1251     1.0  0.55390  0.77059  0.64668  1.0000
  H   H1252     1.0  0.47004  0.89128  0.41870  1.0000
  C   C779      1.0  0.40463  0.91191  0.48822  1.0000
  S   S323      1.0  0.61043  0.90764  0.64002  1.0000
  Fe  Fe161     1.0  0.61866  0.87854  0.72361  1.0000
  H   H1253     1.0  0.67524  0.90247  0.25963  1.0000
  Fe  Fe162     1.0  0.59360  0.79084  0.51592  1.0000
  H   H1254     1.0  0.57052  0.71139  0.47350  1.0000
  C   C780      1.0  0.50828  0.89898  0.34371  1.0000
  H   H1255     1.0  0.64706  0.88793  0.51783  1.0000
  C   C781      1.0  0.50491  0.91598  0.60954  1.0000
  H   H1256     1.0  0.45985  0.84020  0.36758  1.0000
  N   N78       1.0  0.64377  0.88902  0.33175  1.0000
  C   C782      1.0  0.58082  0.89548  0.44749  1.0000
  H   H1257     1.0  0.66144  0.79178  0.36222  1.0000
  C   C783      1.0  0.47787  0.85974  0.34145  1.0000
  H   H1258     1.0  0.70368  0.82213  0.36291  1.0000
  H   H1259     1.0  0.46689  0.83439  0.47567  1.0000
  N   N79       1.0  0.66883  0.92885  0.50076  1.0000
  C   C784      1.0  0.59359  0.92830  0.32767  1.0000
  H   H1260     1.0  0.44733  0.86182  0.41761  1.0000
  C   C785      1.0  0.65266  0.87878  0.39042  1.0000
  H   H1261     1.0  0.65763  0.91104  0.60687  1.0000
  C   C786      1.0  0.53732  0.76257  0.68473  1.0000
  C   C787      1.0  0.38273  0.91149  0.48170  1.0000
  S   S324      1.0  0.66628  0.79342  0.57943  1.0000
  C   C788      1.0  0.58849  0.83958  0.60025  1.0000
  C   C789      1.0  0.68504  0.82986  0.52691  1.0000
  H   H1262     1.0  0.45180  0.92788  0.62042  1.0000
  H   H1263     1.0  0.55058  0.85428  0.48377  1.0000
  C   C790      1.0  0.59859  0.84545  0.64679  1.0000
  S   S325      1.0  0.59990  0.76626  0.61135  1.0000
  H   H1264     1.0  0.69312  0.91972  0.46372  1.0000
  C   C791      1.0  0.56227  0.87508  0.44034  1.0000
  H   H1265     1.0  0.67509  0.89926  0.58204  1.0000
  H   H1266     1.0  0.70156  0.76413  0.34987  1.0000
  C   C792      1.0  0.62944  0.83519  0.62625  1.0000
  C   C793      1.0  0.48478  0.85402  0.44672  1.0000
  H   H1267     1.0  0.62107  0.87245  0.28031  1.0000
  H   H1268     1.0  0.61206  0.84880  0.36894  1.0000
  H   H1269     1.0  0.57247  0.84093  0.59099  1.0000
  C   C794      1.0  0.69396  0.75854  0.40098  1.0000
  H   H1270     1.0  0.65136  0.75595  0.39033  1.0000
  C   C795      1.0  0.62934  0.90070  0.34190  1.0000
  H   H1271     1.0  0.53412  0.78031  0.66994  1.0000
  H   H1272     1.0  0.52239  0.89427  0.33381  1.0000
  H   H1273     1.0  0.55609  0.92430  0.69593  1.0000
  S   S326      1.0  0.58537  0.82253  0.51174  1.0000
  C   C796      1.0  0.59692  0.92174  0.39085  1.0000
  H   H1274     1.0  0.62566  0.74230  0.73195  1.0000
  H   H1275     1.0  0.42119  0.90834  0.67352  1.0000
  H   H1276     1.0  0.49158  0.85421  0.33290  1.0000
  H   H1277     1.0  0.67396  0.78342  0.31190  1.0000
  H   H1278     1.0  0.52690  0.70346  0.31392  1.0000
  C   C797      1.0  0.64621  0.90706  0.50278  1.0000
  C   C798      1.0  0.67734  0.77043  0.46753  1.0000
  H   H1279     1.0  0.64278  0.91414  0.45322  1.0000
  H   H1280     1.0  0.59851  0.69146  0.68831  1.0000
  H   H1281     1.0  0.58880  0.69296  0.30025  1.0000
  C   C799      1.0  0.53133  0.89949  0.66267  1.0000
  H   H1282     1.0  0.66491  0.89597  0.39724  1.0000
  C   C800      1.0  0.66758  0.77736  0.36439  1.0000
  S   S327      1.0  0.57044  0.75324  0.51068  1.0000
  H   H1283     1.0  0.69260  0.83541  0.60912  1.0000
  C   C801      1.0  0.57487  0.90801  0.32074  1.0000
  H   H1284     1.0  0.50413  0.70755  0.34711  1.0000
  H   H1285     1.0  0.40444  0.89279  0.52218  1.0000
  H   H1286     1.0  0.62500  0.68932  0.54762  1.0000
  H   H1287     1.0  0.63015  0.90124  0.53862  1.0000
  H   H1288     1.0  0.63731  0.86266  0.43712  1.0000
  S   S328      1.0  0.53825  0.85473  0.36714  1.0000
  H   H1289     1.0  0.47716  0.87378  0.29131  1.0000
  Fe  Fe163     1.0  0.63326  0.77659  0.54722  1.0000
  S   S329      1.0  0.62803  0.80315  0.45160  1.0000
  H   H1290     1.0  0.64559  0.83409  0.63507  1.0000
  H   H1291     1.0  0.57198  0.91326  0.27222  1.0000
  C   C802      1.0  0.69655  0.84550  0.55532  1.0000
  H   H1292     1.0  0.52187  0.74635  0.68068  1.0000
  C   C803      1.0  0.68975  0.84326  0.45719  1.0000
  C   C804      1.0  0.59787  0.72374  0.32690  1.0000
  H   H1293     1.0  0.49064  0.91373  0.58521  1.0000
  H   H1294     1.0  0.67738  0.92849  0.27632  1.0000
  C   C805      1.0  0.51019  0.69237  0.35542  1.0000
  H   H1295     1.0  0.50034  0.68588  0.25180  1.0000
  H   H1296     1.0  0.51552  0.68674  0.40276  1.0000
  H   H1297     1.0  0.69173  0.68720  0.32618  1.0000
  H   H1298     1.0  0.55778  0.79107  0.74400  1.0000
  H   H1299     1.0  0.39751  0.93248  0.66092  1.0000
  S   S330      1.0  0.59364  0.92139  0.74536  1.0000
  H   H1300     1.0  0.98832  0.10640  0.07539  1.0000
  C   C806      1.0  0.87703  0.02141  0.07541  1.0000
  S   S331      1.0  0.84933  0.05817  0.17726  1.0000
  H   H1301     1.0  0.87577  0.02616  0.89938  1.0000
  S   S332      1.0  0.89075  0.03513  0.12268  1.0000
  C   C807      1.0  0.72775  0.14398  0.13973  1.0000
  C   C808      1.0  0.83556  0.06564  0.94727  1.0000
  H   H1302     1.0  0.72639  0.15949  0.92609  1.0000
  C   C809      1.0  0.97943  0.08785  0.99051  1.0000
  N   N80       1.0  0.87956  0.01863  0.82066  1.0000
  S   S333      1.0  0.03120  0.09399  0.07750  1.0000
  H   H1303     1.0  0.84816  0.98907  0.81243  1.0000
  C   C810      1.0  0.74720  0.93947  0.20685  1.0000
  H   H1304     1.0  0.00657  0.09797  0.84685  1.0000
  H   H1305     1.0  0.03233  0.14177  0.07034  1.0000
  Fe  Fe164     1.0  0.94257  0.98316  0.78914  1.0000
  H   H1306     1.0  0.87288  0.15932  0.82028  1.0000
  H   H1307     1.0  0.94206  0.03660  0.96876  1.0000
  Fe  Fe165     1.0  0.88325  0.06697  0.11906  1.0000
  H   H1308     1.0  0.94033  0.04157  0.09273  1.0000
  H   H1309     1.0  0.93208  0.07242  0.99787  1.0000
  S   S334      1.0  0.03811  0.11861  0.20715  1.0000
  H   H1310     1.0  0.74090  0.15212  0.87696  1.0000
  H   H1311     1.0  0.88338  0.98405  0.01559  1.0000
  H   H1312     1.0  0.99803  0.11351  0.77287  1.0000
  S   S335      1.0  0.85290  0.94725  0.18282  1.0000
  C   C811      1.0  0.88707  0.99804  0.85892  1.0000
  S   S336      1.0  0.90744  0.09244  0.15636  1.0000
  H   H1313     1.0  0.77844  0.08903  0.02209  1.0000
  N   N81       1.0  0.78573  0.08322  0.23120  1.0000
  Fe  Fe166     1.0  0.72084  0.00768  0.83840  1.0000
  H   H1314     1.0  0.96005  0.08024  0.75373  1.0000
  H   H1315     1.0  0.93814  0.05769  0.13713  1.0000
  S   S337      1.0  0.95624  0.98956  0.86920  1.0000
  H   H1316     1.0  0.71537  0.07760  0.00602  1.0000
  H   H1317     1.0  0.89046  0.16925  0.87100  1.0000
  C   C812      1.0  0.04038  0.13069  0.94501  1.0000
  H   H1318     1.0  0.77167  0.99885  0.18740  1.0000
  C   C813      1.0  0.95704  0.14784  0.19431  1.0000
  C   C814      1.0  0.87554  0.99427  0.02734  1.0000
  C   C815      1.0  0.85163  0.98762  0.02703  1.0000
  C   C816      1.0  0.78405  0.13848  0.75750  1.0000
  C   C817      1.0  0.94303  0.09000  0.00500  1.0000
  Fe  Fe167     1.0  0.85492  0.09682  0.08474  1.0000
  H   H1319     1.0  0.97465  0.17769  0.90487  1.0000
  C   C818      1.0  0.82444  0.06184  0.85399  1.0000
  C   C819      1.0  0.75231  0.01926  0.13647  1.0000
  C   C820      1.0  0.98209  0.16323  0.06977  1.0000
  C   C821      1.0  0.85400  0.01705  0.06928  1.0000
  S   S338      1.0  0.75977  0.03672  0.82090  1.0000
  H   H1320     1.0  0.94611  0.99866  0.97185  1.0000
  H   H1321     1.0  0.96174  0.10909  0.08237  1.0000
  C   C822      1.0  0.77372  0.93559  0.14139  1.0000
  C   C823      1.0  0.88513  0.03770  0.84537  1.0000
  H   H1322     1.0  0.93045  0.15458  0.14595  1.0000
  C   C824      1.0  0.85315  0.00392  0.82970  1.0000
  H   H1323     1.0  0.80970  0.09722  0.83935  1.0000
  C   C825      1.0  0.79584  0.04307  0.11889  1.0000
  S   S339      1.0  0.90834  0.94342  0.82178  1.0000
  C   C826      1.0  0.75446  0.04465  0.08850  1.0000
  C   C827      1.0  0.79771  0.06876  0.07450  1.0000
  H   H1324     1.0  0.88013  0.13209  0.23356  1.0000
  H   H1325     1.0  0.88409  0.98405  0.83975  1.0000
  H   H1326     1.0  0.83161  0.06918  0.98740  1.0000
  H   H1327     1.0  0.73776  0.10591  0.05288  1.0000
  H   H1328     1.0  0.97020  0.07183  0.97762  1.0000
  H   H1329     1.0  0.77098  0.04892  0.21574  1.0000
  C   C828      1.0  0.79453  0.16689  0.82505  1.0000
  H   H1330     1.0  0.79052  0.02401  0.97312  1.0000
  H   H1331     1.0  0.90574  0.01394  0.05803  1.0000
  H   H1332     1.0  0.82435  0.11032  0.20163  1.0000
  H   H1333     1.0  0.98160  0.95109  0.92806  1.0000
  H   H1334     1.0  0.02167  0.03999  0.78746  1.0000
  H   H1335     1.0  0.71026  0.10296  0.15330  1.0000
  H   H1336     1.0  0.79872  0.17779  0.85134  1.0000
  Fe  Fe168     1.0  0.88054  0.93421  0.18902  1.0000
  H   H1337     1.0  0.80315  0.94783  0.21430  1.0000
  C   C829      1.0  0.96004  0.16270  0.07762  1.0000
  H   H1338     1.0  0.99319  0.08378  0.01396  1.0000
  C   C830      1.0  0.95522  0.01777  0.86464  1.0000
  C   C831      1.0  0.72413  0.14313  0.91577  1.0000
  H   H1339     1.0  0.85547  0.16440  0.93497  1.0000
  Fe  Fe169     1.0  0.01965  0.08713  0.17833  1.0000
  H   H1340     1.0  0.72308  0.15353  0.09422  1.0000
  H   H1341     1.0  0.94720  0.14163  0.24256  1.0000
  C   C832      1.0  0.88819  0.01110  0.05176  1.0000
  H   H1342     1.0  0.85834  0.97915  0.24107  1.0000
  H   H1343     1.0  0.98076  0.96212  0.84367  1.0000
  H   H1344     1.0  0.96196  0.00787  0.15895  1.0000
  H   H1345     1.0  0.84362  0.07706  0.82241  1.0000
  S   S340      1.0  0.82550  0.10035  0.03780  1.0000
  C   C833      1.0  0.72038  0.11542  0.17320  1.0000
  H   H1346     1.0  0.85474  0.08186  0.91641  1.0000
  C   C834      1.0  0.92773  0.97178  0.22877  1.0000
  H   H1347     1.0  0.78649  0.09894  0.12768  1.0000
  H   H1348     1.0  0.84019  0.11174  0.84372  1.0000
  H   H1349     1.0  0.73458  0.10530  0.92313  1.0000
  S   S341      1.0  0.87668  0.12518  0.11971  1.0000
  C   C835      1.0  0.94995  0.99578  0.20926  1.0000
  H   H1350     1.0  0.78222  0.12666  0.91422  1.0000
  Fe  Fe170     1.0  0.87399  0.08695  0.20690  1.0000
  C   C836      1.0  0.74003  0.12471  0.00696  1.0000
  S   S342      1.0  0.98230  0.07717  0.21926  1.0000
  C   C837      1.0  0.95123  0.06120  0.86104  1.0000
  H   H1351     1.0  0.73877  0.04514  0.07375  1.0000
  H   H1352     1.0  0.75775  0.13452  0.97090  1.0000
  H   H1353     1.0  0.84674  0.15978  0.06903  1.0000
  H   H1354     1.0  0.87670  0.98461  0.91298  1.0000
  H   H1355     1.0  0.93028  0.09064  0.03647  1.0000
  H   H1356     1.0  0.82174  0.04049  0.87648  1.0000
  H   H1357     1.0  0.81484  0.08458  0.17892  1.0000
  H   H1358     1.0  0.97354  0.02340  0.23819  1.0000
  S   S343      1.0  0.83347  0.95716  0.02773  1.0000
  N   N82       1.0  0.71973  0.11760  0.97770  1.0000
  H   H1359     1.0  0.98901  0.10856  0.94271  1.0000
  C   C838      1.0  0.97827  0.14665  0.18756  1.0000
  H   H1360     1.0  0.81272  0.06393  0.81995  1.0000
  H   H1361     1.0  0.84694  0.01881  0.80072  1.0000
  H   H1362     1.0  0.01953  0.13530  0.79673  1.0000
  H   H1363     1.0  0.84530  0.02476  0.08857  1.0000
  C   C839      1.0  0.72534  0.10287  0.23394  1.0000
  H   H1364     1.0  0.04100  0.11530  0.93693  1.0000
  C   C840      1.0  0.03636  0.12574  0.00993  1.0000
  C   C841      1.0  0.77874  0.12352  0.82733  1.0000
  C   C842      1.0  0.73977  0.15965  0.16774  1.0000
  C   C843      1.0  0.03901  0.17056  0.96580  1.0000
  H   H1365     1.0  0.01809  0.07407  0.80552  1.0000
  Fe  Fe171     1.0  0.90886  0.12884  0.06688  1.0000
  H   H1366     1.0  0.90491  0.04935  0.83905  1.0000
  Fe  Fe172     1.0  0.94836  0.11903  0.76337  1.0000
  C   C844      1.0  0.78814  0.95242  0.21430  1.0000
  C   C845      1.0  0.77704  0.06941  0.05822  1.0000
  C   C846      1.0  0.79340  0.04549  0.94889  1.0000
  H   H1367     1.0  0.76388  0.09837  0.17661  1.0000
  N   N83       1.0  0.96194  0.08650  0.03630  1.0000
  H   H1368     1.0  0.03958  0.16771  0.17773  1.0000
  C   C847      1.0  0.97461  0.10905  0.04950  1.0000
  S   S344      1.0  0.92006  0.96265  0.16929  1.0000
  C   C848      1.0  0.95080  0.05918  0.10021  1.0000
  C   C849      1.0  0.03568  0.14567  0.02027  1.0000
  C   C850      1.0  0.78269  0.10203  0.16885  1.0000
  H   H1369     1.0  0.81179  0.04214  0.12898  1.0000
  H   H1370     1.0  0.00479  0.95619  0.86968  1.0000
  C   C851      1.0  0.95690  0.06241  0.80133  1.0000
  S   S345      1.0  0.94956  0.08840  0.86100  1.0000
  H   H1371     1.0  0.83429  0.04497  0.97171  1.0000
  C   C852      1.0  0.84114  0.99986  0.04533  1.0000
  C   C853      1.0  0.99092  0.15455  0.12524  1.0000
  H   H1372     1.0  0.77965  0.95685  0.09810  1.0000
  H   H1373     1.0  0.82243  0.99400  0.04710  1.0000
  H   H1374     1.0  0.99163  0.16885  0.02195  1.0000
  S   S346      1.0  0.88759  0.10373  0.02436  1.0000
  H   H1375     1.0  0.78845  0.04846  0.98914  1.0000
  C   C854      1.0  0.94722  0.03811  0.92235  1.0000
  S   S347      1.0  0.76254  0.08686  0.87569  1.0000
  C   C855      1.0  0.02729  0.01568  0.75422  1.0000
  H   H1376     1.0  0.87919  0.05308  0.81881  1.0000
  C   C856      1.0  0.94765  0.15530  0.13966  1.0000
  Fe  Fe173     1.0  0.74784  0.06558  0.81915  1.0000
  H   H1377     1.0  0.98409  0.12995  0.00221  1.0000
  C   C857      1.0  0.82116  0.09493  0.87393  1.0000
  C   C858      1.0  0.95905  0.04075  0.80314  1.0000
  H   H1378     1.0  0.84258  0.99160  0.88340  1.0000
  H   H1379     1.0  0.96483  0.05570  0.12356  1.0000
  H   H1380     1.0  0.75257  0.96067  0.16404  1.0000
  C   C859      1.0  0.78521  0.13797  0.86059  1.0000
  C   C860      1.0  0.01355  0.11625  0.79454  1.0000
  H   H1381     1.0  0.95106  0.10967  0.95488  1.0000
  H   H1382     1.0  0.83737  0.15363  0.88629  1.0000
  N   N84       1.0  0.03342  0.11863  0.75390  1.0000
  C   C861      1.0  0.88465  0.17733  0.82507  1.0000
  N   N85       1.0  0.76680  0.93292  0.20585  1.0000
  C   C862      1.0  0.03436  0.03447  0.77604  1.0000
  S   S348      1.0  0.94581  0.16651  0.01409  1.0000
  H   H1383     1.0  0.79530  0.12441  0.15075  1.0000
  H   H1384     1.0  0.74138  0.13985  0.02109  1.0000
  S   S349      1.0  0.72369  0.98890  0.18152  1.0000
  H   H1385     1.0  0.86040  0.15741  0.24163  1.0000
  H   H1386     1.0  0.00735  0.15368  0.11998  1.0000
  N   N86       1.0  0.81863  0.06696  0.90605  1.0000
  H   H1387     1.0  0.79519  0.97448  0.17346  1.0000
  C   C863      1.0  0.94941  0.01656  0.92412  1.0000
  H   H1388     1.0  0.78018  0.04663  0.91955  1.0000
  H   H1389     1.0  0.81551  0.09880  0.91181  1.0000
  C   C864      1.0  0.77316  0.01840  0.15047  1.0000
  C   C865      1.0  0.98502  0.94828  0.88605  1.0000
  C   C866      1.0  0.85031  0.17219  0.88766  1.0000
  H   H1390     1.0  0.90667  0.00849  0.85560  1.0000
  H   H1391     1.0  0.96420  0.04212  0.75690  1.0000
  H   H1392     1.0  0.74024  0.94112  0.79930  1.0000
  S   S350      1.0  0.94102  0.15150  0.75850  1.0000
  C   C867      1.0  0.81075  0.08837  0.21846  1.0000
  C   C868      1.0  0.02470  0.09263  0.75379  1.0000
  C   C869      1.0  0.79775  0.18145  0.75595  1.0000
  C   C870      1.0  0.74537  0.14721  0.22723  1.0000
  S   S351      1.0  0.86144  0.96557  0.75393  1.0000
  S   S352      1.0  0.81486  0.18001  0.00940  1.0000
  C   C871      1.0  0.71793  0.09688  0.96131  1.0000
  C   C872      1.0  0.85725  0.18228  0.03607  1.0000
  H   H1393     1.0  0.84023  0.18238  0.89158  1.0000
  H   H1394     1.0  0.84202  0.93346  0.92015  1.0000
  H   H1395     1.0  0.75468  0.15926  0.24893  1.0000
  H   H1396     1.0  0.87261  0.95313  0.40360  1.0000
  H   H1397     1.0  0.83885  0.99543  0.67424  1.0000
  C   C873      1.0  0.87558  0.97464  0.37908  1.0000
  C   C874      1.0  0.86826  0.97483  0.27922  1.0000
  H   H1398     1.0  0.87199  0.08942  0.54119  1.0000
  N   N87       1.0  0.00594  0.00027  0.52844  1.0000
  C   C875      1.0  0.86208  0.10747  0.66926  1.0000
  H   H1399     1.0  0.94960  0.06773  0.33113  1.0000
  S   S353      1.0  0.75243  0.08666  0.70885  1.0000
  C   C876      1.0  0.84645  0.98071  0.55555  1.0000
  Fe  Fe174     1.0  0.75840  0.94078  0.45363  1.0000
  C   C877      1.0  0.84343  0.98631  0.65018  1.0000
  C   C878      1.0  0.83347  0.07870  0.37515  1.0000
  H   H1400     1.0  0.88771  0.14991  0.37044  1.0000
  Fe  Fe175     1.0  0.91476  0.14044  0.70282  1.0000
  N   N88       1.0  0.92428  0.05549  0.41721  1.0000
  H   H1401     1.0  0.83121  0.93669  0.39395  1.0000
  H   H1402     1.0  0.79350  0.11086  0.26739  1.0000
  C   C879      1.0  0.91970  0.96397  0.34024  1.0000
  C   C880      1.0  0.85853  0.12232  0.69457  1.0000
  Fe  Fe176     1.0  0.96866  0.18049  0.65818  1.0000
  H   H1403     1.0  0.84558  0.07919  0.63495  1.0000
  H   H1404     1.0  0.72491  0.17779  0.70293  1.0000
  H   H1405     1.0  0.88790  0.05091  0.71832  1.0000
  H   H1406     1.0  0.75742  0.16784  0.63119  1.0000
  H   H1407     1.0  0.76700  0.09490  0.40922  1.0000
  Fe  Fe177     1.0  0.94843  0.00427  0.64173  1.0000
  H   H1408     1.0  0.76954  0.05976  0.50834  1.0000
  C   C881      1.0  0.03414  0.10898  0.50350  1.0000
  C   C882      1.0  0.98134  0.17741  0.43210  1.0000
  C   C883      1.0  0.01364  0.09143  0.49373  1.0000
  H   H1409     1.0  0.75864  0.05260  0.58973  1.0000
  S   S354      1.0  0.94192  0.17133  0.60135  1.0000
  S   S355      1.0  0.78623  0.98599  0.40806  1.0000
  H   H1410     1.0  0.93525  0.13423  0.43051  1.0000
  C   C884      1.0  0.86528  0.00766  0.30028  1.0000
  H   H1411     1.0  0.83402  0.13413  0.71800  1.0000
  H   H1412     1.0  0.02406  0.98133  0.59216  1.0000
  H   H1413     1.0  0.02085  0.02262  0.42153  1.0000
  H   H1414     1.0  0.72974  0.16872  0.55888  1.0000
  H   H1415     1.0  0.00966  0.08887  0.73037  1.0000
  C   C885      1.0  0.85361  0.96959  0.68061  1.0000
  C   C886      1.0  0.82230  0.09301  0.37959  1.0000
  S   S356      1.0  0.95109  0.12538  0.54410  1.0000
  N   N89       1.0  0.75522  0.08509  0.50907  1.0000
  H   H1416     1.0  0.74227  0.93876  0.25375  1.0000
  S   S357      1.0  0.78125  0.97269  0.56299  1.0000
  H   H1417     1.0  0.85434  0.01124  0.26478  1.0000
  C   C887      1.0  0.99846  0.05731  0.61297  1.0000
  C   C888      1.0  0.79290  0.16712  0.53906  1.0000
  C   C889      1.0  0.99581  0.06548  0.54867  1.0000
  H   H1418     1.0  0.90237  0.09532  0.53487  1.0000
  H   H1419     1.0  0.01927  0.04419  0.48482  1.0000
  H   H1420     1.0  0.82580  0.05666  0.41204  1.0000
  S   S358      1.0  0.71587  0.06726  0.28108  1.0000
  C   C890      1.0  0.00537  0.97700  0.58931  1.0000
  Fe  Fe178     1.0  0.89794  0.96942  0.73883  1.0000
  C   C891      1.0  0.90375  0.14444  0.47903  1.0000
  H   H1421     1.0  0.90836  0.95123  0.39147  1.0000
  S   S359      1.0  0.73406  0.94040  0.52440  1.0000
  Fe  Fe179     1.0  0.84637  0.17831  0.32582  1.0000
  H   H1422     1.0  0.03120  0.17941  0.28405  1.0000
  H   H1423     1.0  0.03569  0.16485  0.43439  1.0000
  C   C892      1.0  0.92144  0.13623  0.40423  1.0000
  S   S360      1.0  0.91508  0.96586  0.66133  1.0000
  H   H1424     1.0  0.78040  0.12776  0.73108  1.0000
  C   C893      1.0  0.72681  0.00907  0.49192  1.0000
  S   S361      1.0  0.86477  0.17591  0.40622  1.0000
  C   C894      1.0  0.91258  0.95577  0.29444  1.0000
  H   H1425     1.0  0.83226  0.00511  0.56325  1.0000
  Fe  Fe180     1.0  0.94911  0.13714  0.61940  1.0000
  H   H1426     1.0  0.89532  0.98976  0.35334  1.0000
  C   C895      1.0  0.83197  0.12135  0.33136  1.0000
  S   S362      1.0  0.72392  0.02458  0.72913  1.0000
  H   H1427     1.0  0.86021  0.01181  0.33817  1.0000
  S   S363      1.0  0.97067  0.04200  0.53894  1.0000
  H   H1428     1.0  0.74513  0.14997  0.72045  1.0000
  C   C896      1.0  0.93152  0.06504  0.34566  1.0000
  H   H1429     1.0  0.86086  0.95453  0.56252  1.0000
  C   C897      1.0  0.85406  0.09269  0.32180  1.0000
  H   H1430     1.0  0.80611  0.08206  0.42015  1.0000
  C   C898      1.0  0.01911  0.07440  0.62239  1.0000
  C   C899      1.0  0.02053  0.16835  0.43309  1.0000
  H   H1431     1.0  0.73753  0.04103  0.54827  1.0000
  C   C900      1.0  0.83664  0.12219  0.69985  1.0000
  H   H1432     1.0  0.75347  0.11389  0.41528  1.0000
  H   H1433     1.0  0.73982  0.13042  0.68052  1.0000
  Fe  Fe181     1.0  0.76224  0.05599  0.71212  1.0000
  H   H1434     1.0  0.99578  0.12704  0.51784  1.0000
  H   H1435     1.0  0.99598  0.97368  0.63576  1.0000
  H   H1436     1.0  0.73364  0.10064  0.52842  1.0000
  C   C901      1.0  0.01854  0.00394  0.46812  1.0000
  C   C902      1.0  0.90037  0.05265  0.43407  1.0000
  H   H1437     1.0  0.91828  0.04982  0.33454  1.0000
  H   H1438     1.0  0.73661  0.07623  0.60158  1.0000
  H   H1439     1.0  0.74210  0.10928  0.30701  1.0000
  S   S364      1.0  0.79647  0.06820  0.64592  1.0000
  C   C903      1.0  0.76830  0.05379  0.25421  1.0000
  C   C904      1.0  0.95655  0.00456  0.25413  1.0000
  S   S365      1.0  0.75546  0.01983  0.44786  1.0000
  C   C905      1.0  0.73823  0.11892  0.26014  1.0000
  H   H1440     1.0  0.72533  0.04337  0.41123  1.0000
  H   H1441     1.0  0.94029  0.02942  0.44693  1.0000
  H   H1442     1.0  0.88700  0.13774  0.51419  1.0000
  N   N90       1.0  0.86099  0.97894  0.33174  1.0000
  S   S366      1.0  0.81777  0.13906  0.33595  1.0000
  H   H1443     1.0  0.87902  0.10763  0.66484  1.0000
  H   H1444     1.0  0.92979  0.15860  0.36385  1.0000
  C   C906      1.0  0.88073  0.12828  0.41384  1.0000
  Fe  Fe182     1.0  0.80265  0.97089  0.49011  1.0000
  H   H1445     1.0  0.75646  0.13288  0.57156  1.0000
  H   H1446     1.0  0.98471  0.03766  0.65564  1.0000
  H   H1447     1.0  0.73469  0.07776  0.44287  1.0000
  C   C907      1.0  0.76952  0.15430  0.53327  1.0000
  C   C908      1.0  0.84326  0.09156  0.65193  1.0000
  S   S367      1.0  0.73527  0.15016  0.46707  1.0000
  H   H1448     1.0  0.86598  0.94355  0.67487  1.0000
  C   C909      1.0  0.76351  0.16857  0.47618  1.0000
  H   H1449     1.0  0.86346  0.12169  0.44663  1.0000
  H   H1450     1.0  0.97074  0.99088  0.57214  1.0000
  C   C910      1.0  0.78121  0.08867  0.28364  1.0000
  S   S368      1.0  0.87967  0.13831  0.72792  1.0000
  H   H1451     1.0  0.94479  0.09721  0.39796  1.0000
  H   H1452     1.0  0.91098  0.16666  0.43905  1.0000
  S   S369      1.0  0.03279  0.98026  0.72624  1.0000
  C   C911      1.0  0.85947  0.95777  0.64955  1.0000
  H   H1453     1.0  0.90104  0.07297  0.40433  1.0000
  H   H1454     1.0  0.88468  0.02351  0.27142  1.0000
  C   C912      1.0  0.98086  0.99392  0.52727  1.0000
  H   H1455     1.0  0.87072  0.97746  0.41960  1.0000
  H   H1456     1.0  0.02122  0.06750  0.67208  1.0000
  H   H1457     1.0  0.88514  0.08329  0.48625  1.0000
  H   H1458     1.0  0.02665  0.13891  0.65971  1.0000
  C   C913      1.0  0.82099  0.09056  0.65983  1.0000
  C   C914      1.0  0.75244  0.09322  0.44112  1.0000
  C   C915      1.0  0.83980  0.99185  0.58747  1.0000
  S   S370      1.0  0.94860  0.00137  0.37341  1.0000
  C   C916      1.0  0.81790  0.10624  0.68284  1.0000
  H   H1459     1.0  0.77020  0.03911  0.30118  1.0000
  S   S371      1.0  0.91956  0.10528  0.71625  1.0000
  H   H1460     1.0  0.91745  0.14386  0.50689  1.0000
  C   C917      1.0  0.01899  0.02624  0.52904  1.0000
  C   C918      1.0  0.72192  0.17683  0.65765  1.0000
  C   C919      1.0  0.75525  0.05849  0.54007  1.0000
  H   H1461     1.0  0.96079  0.07852  0.41808  1.0000
  H   H1462     1.0  0.93276  0.08555  0.31254  1.0000
  H   H1463     1.0  0.88643  0.03812  0.42245  1.0000
  C   C920      1.0  0.97847  0.15161  0.48064  1.0000
  C   C921      1.0  0.94259  0.07613  0.42974  1.0000
  S   S372      1.0  0.96267  0.98001  0.71671  1.0000
  H   H1464     1.0  0.72319  0.97305  0.58058  1.0000
  H   H1465     1.0  0.81360  0.07441  0.26454  1.0000
  H   H1466     1.0  0.98069  0.01127  0.48232  1.0000
  H   H1467     1.0  0.01028  0.02395  0.57474  1.0000
  H   H1468     1.0  0.80106  0.10613  0.68755  1.0000
  C   C922      1.0  0.73470  0.08136  0.55084  1.0000
  H   H1469     1.0  0.97050  0.97464  0.52605  1.0000
  H   H1470     1.0  0.88801  0.98914  0.25213  1.0000
  S   S373      1.0  0.97860  0.14897  0.66727  1.0000
  S   S374      1.0  0.84222  0.98738  0.47751  1.0000
  H   H1471     1.0  0.91766  0.02052  0.51345  1.0000
  H   H1472     1.0  0.79797  0.15542  0.58119  1.0000
  C   C923      1.0  0.71472  0.98524  0.55653  1.0000
  C   C924      1.0  0.99795  0.14696  0.48037  1.0000
  H   H1473     1.0  0.71700  0.06425  0.55720  1.0000
  H   H1474     1.0  0.79426  0.10873  0.47835  1.0000
  H   H1475     1.0  0.90873  0.01191  0.45178  1.0000
  H   H1476     1.0  0.01171  0.09786  0.44380  1.0000
  H   H1477     1.0  0.78348  0.95062  0.26299  1.0000
  H   H1478     1.0  0.76229  0.08407  0.29639  1.0000
  C   C925      1.0  0.94128  0.98890  0.31943  1.0000
  H   H1479     1.0  0.89370  0.04425  0.48834  1.0000
  N   N91       1.0  0.89881  0.12661  0.45076  1.0000
  C   C926      1.0  0.83491  0.95856  0.36768  1.0000
  H   H1480     1.0  0.78022  0.10321  0.55461  1.0000
  H   H1481     1.0  0.99579  0.95704  0.59066  1.0000
  H   H1482     1.0  0.88886  0.02126  0.72816  1.0000
  C   C927      1.0  0.71468  0.15029  0.60453  1.0000
  S   S375      1.0  0.93039  0.00957  0.71307  1.0000
  H   H1483     1.0  0.91806  0.12408  0.37962  1.0000
  C   C928      1.0  0.85626  0.96367  0.58651  1.0000
  H   H1484     1.0  0.77994  0.12811  0.47566  1.0000
  C   C929      1.0  0.92262  0.02812  0.45913  1.0000
  Fe  Fe183     1.0  0.76286  0.98464  0.48388  1.0000
  H   H1485     1.0  0.00836  0.98549  0.46353  1.0000
  H   H1486     1.0  0.82350  0.96039  0.33277  1.0000
  C   C930      1.0  0.88918  0.09733  0.50575  1.0000
  C   C931      1.0  0.77837  0.10723  0.50428  1.0000
  H   H1487     1.0  0.93779  0.06968  0.48327  1.0000
  H   H1488     1.0  0.87619  0.11447  0.39370  1.0000
  Fe  Fe184     1.0  0.72724  0.17296  0.37240  1.0000
  H   H1489     1.0  0.78385  0.07526  0.33083  1.0000
  S   S376      1.0  0.99743  0.07148  0.35490  1.0000
  H   H1490     1.0  0.82838  0.96161  0.40599  1.0000
  Fe  Fe185     1.0  0.03386  0.08262  0.30384  1.0000
  S   S377      1.0  0.86734  0.07474  0.31390  1.0000
  Fe  Fe186     1.0  0.98205  0.04379  0.31449  1.0000
  H   H1491     1.0  0.96630  0.18112  0.43243  1.0000
  H   H1492     1.0  0.86431  0.95302  0.30065  1.0000
  S   S378      1.0  0.01827  0.05176  0.27167  1.0000
  C   C932      1.0  0.74135  0.14973  0.67485  1.0000
  H   H1493     1.0  0.91291  0.04605  0.74033  1.0000
  N   N92       1.0  0.71901  0.15080  0.66536  1.0000
  C   C933      1.0  0.85294  0.13551  0.27905  1.0000
  H   H1494     1.0  0.03816  0.03206  0.52817  1.0000
  C   C934      1.0  0.79366  0.16747  0.72173  1.0000
  Fe  Fe187     1.0  0.92744  0.94194  0.74344  1.0000
  H   H1495     1.0  0.79713  0.17885  0.66783  1.0000
  H   H1496     1.0  0.89552  0.93700  0.31006  1.0000
  C   C935      1.0  0.86388  0.12111  0.27395  1.0000
  H   H1497     1.0  0.03371  0.15001  0.29864  1.0000
  C   C936      1.0  0.71610  0.02514  0.46149  1.0000
  H   H1498     1.0  0.74921  0.04907  0.26527  1.0000
  H   H1499     1.0  0.03954  0.09352  0.72502  1.0000
  Fe  Fe188     1.0  0.71390  0.05388  0.73540  1.0000
  H   H1500     1.0  0.03691  0.00682  0.46944  1.0000
  C   C937      1.0  0.03692  0.10028  0.56800  1.0000
  H   H1501     1.0  0.71295  0.13123  0.60799  1.0000
  Fe  Fe189     1.0  0.00056  0.10563  0.25634  1.0000
  S   S379      1.0  0.98777  0.13340  0.25855  1.0000
  C   C938      1.0  0.04137  0.14242  0.68440  1.0000
  H   H1502     1.0  0.00941  0.00732  0.74775  1.0000
  H   H1503     1.0  0.73243  0.93256  0.73681  1.0000
  C   C939      1.0  0.89289  0.03496  0.74873  1.0000
  C   C940      1.0  0.90188  0.33266  0.84989  1.0000
  H   H1504     1.0  0.77921  0.26620  0.99633  1.0000
  H   H1505     1.0  0.97221  0.23989  0.01514  1.0000
  C   C941      1.0  0.72789  0.21962  0.91214  1.0000
  C   C942      1.0  0.76073  0.37359  0.84889  1.0000
  C   C943      1.0  0.80431  0.34144  0.18602  1.0000
  Fe  Fe190     1.0  0.80994  0.21269  0.92538  1.0000
  H   H1506     1.0  0.83875  0.40083  0.18637  1.0000
  Fe  Fe191     1.0  0.94498  0.27867  0.85157  1.0000
  C   C944      1.0  0.98716  0.41510  0.83276  1.0000
  S   S380      1.0  0.89928  0.41488  0.16984  1.0000
  S   S381      1.0  0.87504  0.31116  0.78306  1.0000
  S   S382      1.0  0.83719  0.23653  0.82606  1.0000
  H   H1507     1.0  0.93558  0.34055  0.16998  1.0000
  C   C945      1.0  0.97276  0.39252  0.75260  1.0000
  C   C946      1.0  0.73390  0.30893  0.81672  1.0000
  C   C947      1.0  0.84217  0.22105  0.13294  1.0000
  S   S383      1.0  0.96044  0.27005  0.78405  1.0000
  H   H1508     1.0  0.72585  0.26580  0.80878  1.0000
  H   H1509     1.0  0.75071  0.30997  0.96100  1.0000
  H   H1510     1.0  0.03156  0.24572  0.78507  1.0000
  H   H1511     1.0  0.98383  0.37558  0.90369  1.0000
  H   H1512     1.0  0.89477  0.20927  0.87800  1.0000
  C   C948      1.0  0.99253  0.19431  0.86700  1.0000
  C   C949      1.0  0.73626  0.35971  0.88469  1.0000
  C   C950      1.0  0.04053  0.31793  0.01912  1.0000
  C   C951      1.0  0.83460  0.38483  0.17305  1.0000
  H   H1513     1.0  0.79749  0.38618  0.85530  1.0000
  H   H1514     1.0  0.03970  0.43191  0.78392  1.0000
  C   C952      1.0  0.97454  0.37652  0.81577  1.0000
  C   C953      1.0  0.88920  0.34883  0.91234  1.0000
  C   C954      1.0  0.75699  0.28626  0.08353  1.0000
  C   C955      1.0  0.77870  0.37609  0.88250  1.0000
  H   H1515     1.0  0.99637  0.18645  0.83654  1.0000
  H   H1516     1.0  0.87939  0.22723  0.83531  1.0000
  S   S384      1.0  0.99818  0.43005  0.88023  1.0000
  H   H1517     1.0  0.87443  0.33234  0.10766  1.0000
  H   H1518     1.0  0.99464  0.25435  0.83255  1.0000
  H   H1519     1.0  0.76568  0.38192  0.79559  1.0000
  H   H1520     1.0  0.79579  0.39040  0.19138  1.0000
  H   H1521     1.0  0.79596  0.19277  0.13422  1.0000
  H   H1522     1.0  0.97108  0.35088  0.09136  1.0000
  C   C956      1.0  0.77799  0.27223  0.03355  1.0000
  H   H1523     1.0  0.84668  0.37614  0.19049  1.0000
  H   H1524     1.0  0.81617  0.33232  0.20288  1.0000
  H   H1525     1.0  0.85186  0.18395  0.76100  1.0000
  H   H1526     1.0  0.92990  0.23816  0.08520  1.0000
  H   H1527     1.0  0.00734  0.23594  0.88823  1.0000
  H   H1528     1.0  0.73114  0.23642  0.09169  1.0000
  H   H1529     1.0  0.03853  0.19782  0.16214  1.0000
  C   C957      1.0  0.81372  0.23188  0.16583  1.0000
  H   H1530     1.0  0.77382  0.35866  0.19810  1.0000
  S   S385      1.0  0.71333  0.35423  0.84495  1.0000
  C   C958      1.0  0.72426  0.21516  0.85936  1.0000
  S   S386      1.0  0.97924  0.31861  0.81948  1.0000
  C   C959      1.0  0.92985  0.34114  0.05730  1.0000
  H   H1531     1.0  0.92852  0.38958  0.02006  1.0000
  H   H1532     1.0  0.80096  0.23975  0.15100  1.0000
  S   S387      1.0  0.79284  0.36382  0.99872  1.0000
  C   C960      1.0  0.93688  0.35994  0.12874  1.0000
  C   C961      1.0  0.97072  0.36971  0.05329  1.0000
  H   H1533     1.0  0.78511  0.32390  0.21007  1.0000
  S   S388      1.0  0.85474  0.38664  0.01727  1.0000
  H   H1534     1.0  0.92457  0.35335  0.89480  1.0000
  H   H1535     1.0  0.78240  0.32269  0.95404  1.0000
  C   C962      1.0  0.86867  0.29618  0.20026  1.0000
  H   H1536     1.0  0.85419  0.27528  0.06456  1.0000
  C   C963      1.0  0.04049  0.29862  0.08127  1.0000
  H   H1537     1.0  0.96020  0.25713  0.16482  1.0000
  S   S389      1.0  0.92844  0.29917  0.77685  1.0000
  H   H1538     1.0  0.84343  0.31737  0.85799  1.0000
  Fe  Fe192     1.0  0.83843  0.27437  0.81532  1.0000
  C   C964      1.0  0.72992  0.34892  0.95352  1.0000
  H   H1539     1.0  0.98325  0.38750  0.05775  1.0000
  S   S390      1.0  0.02413  0.35772  0.15786  1.0000
  C   C965      1.0  0.89628  0.22545  0.97914  1.0000
  C   C966      1.0  0.87908  0.32259  0.83922  1.0000
  H   H1540     1.0  0.97171  0.23470  0.76345  1.0000
  C   C967      1.0  0.86096  0.32475  0.86712  1.0000
  H   H1541     1.0  0.03454  0.29790  0.12579  1.0000
  N   N93       1.0  0.96459  0.24351  0.09895  1.0000
  H   H1542     1.0  0.86732  0.35492  0.16339  1.0000
  H   H1543     1.0  0.96560  0.21597  0.19579  1.0000
  H   H1544     1.0  0.92875  0.21508  0.16881  1.0000
  N   N94       1.0  0.80874  0.36260  0.20335  1.0000
  H   H1545     1.0  0.80306  0.21032  0.21092  1.0000
  N   N95       1.0  0.82585  0.23229  0.11055  1.0000
  H   H1546     1.0  0.71373  0.25645  0.92514  1.0000
  H   H1547     1.0  0.79498  0.22288  0.07268  1.0000
  H   H1548     1.0  0.97494  0.22028  0.90474  1.0000
  H   H1549     1.0  0.83987  0.39608  0.11742  1.0000
  C   C968      1.0  0.98192  0.38785  0.85566  1.0000
  H   H1550     1.0  0.94906  0.39276  0.95950  1.0000
  H   H1551     1.0  0.85679  0.23434  0.14579  1.0000
  H   H1552     1.0  0.74258  0.34221  0.04071  1.0000
  H   H1553     1.0  0.97001  0.27010  0.99391  1.0000
  C   C969      1.0  0.86984  0.32194  0.16173  1.0000
  H   H1554     1.0  0.85253  0.34096  0.92233  1.0000
  H   H1555     1.0  0.93629  0.34442  0.00792  1.0000
  H   H1556     1.0  0.84980  0.26225  0.00979  1.0000
  H   H1557     1.0  0.74052  0.32440  0.76192  1.0000
  H   H1558     1.0  0.90114  0.19163  0.78097  1.0000
  H   H1559     1.0  0.89150  0.18508  0.04909  1.0000
  H   H1560     1.0  0.79608  0.29002  0.02243  1.0000
  H   H1561     1.0  0.97145  0.20953  0.13187  1.0000
  H   H1562     1.0  0.03801  0.18572  0.97409  1.0000
  Fe  Fe193     1.0  0.93692  0.42226  0.16614  1.0000
  H   H1563     1.0  0.73352  0.32006  0.84194  1.0000
  C   C970      1.0  0.76500  0.30413  0.96469  1.0000
  H   H1564     1.0  0.72015  0.25977  0.04723  1.0000
  H   H1565     1.0  0.91850  0.35744  0.13623  1.0000
  H   H1566     1.0  0.00634  0.19690  0.89464  1.0000
  C   C971      1.0  0.84013  0.26127  0.05191  1.0000
  C   C972      1.0  0.86617  0.33833  0.90284  1.0000
  S   S391      1.0  0.77828  0.20470  0.88376  1.0000
  H   H1567     1.0  0.83213  0.19943  0.17803  1.0000
  C   C973      1.0  0.88474  0.24034  0.94803  1.0000
  H   H1568     1.0  0.77453  0.30380  0.07638  1.0000
  C   C974      1.0  0.96940  0.26590  0.11193  1.0000
  Fe  Fe194     1.0  0.83255  0.39335  0.94570  1.0000
  S   S392      1.0  0.74544  0.19372  0.13523  1.0000
  N   N96       1.0  0.94589  0.36532  0.06219  1.0000
  C   C975      1.0  0.84585  0.19713  0.00266  1.0000
  H   H1569     1.0  0.81583  0.21431  0.05068  1.0000
  H   H1570     1.0  0.82841  0.27030  0.03280  1.0000
  Fe  Fe195     1.0  0.88010  0.39396  0.93446  1.0000
  S   S393      1.0  0.81342  0.25116  0.91775  1.0000
  H   H1571     1.0  0.89522  0.26279  0.91437  1.0000
  C   C976      1.0  0.88842  0.21591  0.83251  1.0000
  C   C977      1.0  0.99235  0.23329  0.86440  1.0000
  C   C978      1.0  0.80731  0.21476  0.09138  1.0000
  H   H1572     1.0  0.90881  0.40708  0.79135  1.0000
  S   S394      1.0  0.85694  0.39801  0.86481  1.0000
  H   H1573     1.0  0.92660  0.39559  0.76666  1.0000
  H   H1574     1.0  0.74315  0.29265  0.08236  1.0000
  S   S395      1.0  0.92793  0.24274  0.95861  1.0000
  N   N97       1.0  0.75885  0.27962  0.03157  1.0000
  H   H1575     1.0  0.97004  0.35534  0.83418  1.0000
  H   H1576     1.0  0.98916  0.27943  0.10218  1.0000
  H   H1577     1.0  0.99433  0.23913  0.13191  1.0000
  C   C979      1.0  0.77209  0.36449  0.95185  1.0000
  H   H1578     1.0  0.96058  0.40986  0.00394  1.0000
  H   H1579     1.0  0.95417  0.20163  0.84101  1.0000
  C   C980      1.0  0.71094  0.27051  0.80144  1.0000
  C   C981      1.0  0.97639  0.25616  0.02758  1.0000
  C   C982      1.0  0.79341  0.37496  0.17744  1.0000
  H   H1580     1.0  0.75176  0.26799  0.13487  1.0000
  H   H1581     1.0  0.87608  0.38356  0.75346  1.0000
  H   H1582     1.0  0.97832  0.37473  0.00284  1.0000
  C   C983      1.0  0.88252  0.19654  0.02468  1.0000
  H   H1583     1.0  0.71124  0.33903  0.98100  1.0000
  C   C984      1.0  0.93808  0.22567  0.11476  1.0000
  C   C985      1.0  0.97133  0.21509  0.79934  1.0000
  H   H1584     1.0  0.73587  0.25097  0.00466  1.0000
  H   H1585     1.0  0.91116  0.33774  0.06193  1.0000
  H   H1586     1.0  0.80792  0.35066  0.13089  1.0000
  S   S396      1.0  0.03505  0.34433  0.01077  1.0000
  H   H1587     1.0  0.96270  0.27964  0.07930  1.0000
  Fe  Fe196     1.0  0.78428  0.24556  0.86661  1.0000
  H   H1588     1.0  0.82710  0.24511  0.18141  1.0000
  H   H1589     1.0  0.97056  0.20424  0.77244  1.0000
  H   H1590     1.0  0.91602  0.33136  0.82766  1.0000
  C   C986      1.0  0.74773  0.35104  0.98712  1.0000
  S   S397      1.0  0.87616  0.28079  0.16321  1.0000
  H   H1591     1.0  0.93374  0.20924  0.10278  1.0000
  H   H1592     1.0  0.74756  0.30233  0.82998  1.0000
  H   H1593     1.0  0.99646  0.26895  0.01462  1.0000
  C   C987      1.0  0.86408  0.20159  0.76663  1.0000
  S   S398      1.0  0.80959  0.27152  0.76253  1.0000
  H   H1594     1.0  0.90477  0.23124  0.78802  1.0000
  C   C988      1.0  0.86570  0.33464  0.19324  1.0000
  N   N98       1.0  0.87184  0.19175  0.82799  1.0000
  C   C989      1.0  0.90673  0.34514  0.88778  1.0000
  H   H1595     1.0  0.85085  0.23801  0.93681  1.0000
  H   H1596     1.0  0.92856  0.32153  0.09741  1.0000
  H   H1597     1.0  0.76706  0.29994  0.92439  1.0000
  H   H1598     1.0  0.94895  0.37765  0.13419  1.0000
  H   H1599     1.0  0.98143  0.43153  0.18466  1.0000
  H   H1600     1.0  0.77403  0.25407  0.08377  1.0000
  C   C990      1.0  0.73540  0.25577  0.04428  1.0000
  S   S399      1.0  0.75365  0.24973  0.89757  1.0000
  H   H1601     1.0  0.79799  0.38582  0.12174  1.0000
  H   H1602     1.0  0.85113  0.22037  0.09301  1.0000
  C   C991      1.0  0.97444  0.22628  0.14153  1.0000
  C   C992      1.0  0.94604  0.39043  0.00933  1.0000
  H   H1603     1.0  0.73702  0.23058  0.80977  1.0000
  C   C993      1.0  0.85957  0.22625  0.96046  1.0000
  N   N99       1.0  0.99281  0.22081  0.82460  1.0000
  S   S400      1.0  0.89772  0.36841  0.95024  1.0000
  Fe  Fe197     1.0  0.73086  0.19233  0.22513  1.0000
  Fe  Fe198     1.0  0.80600  0.23102  0.78355  1.0000
  C   C994      1.0  0.01512  0.24059  0.76739  1.0000
  H   H1604     1.0  0.85401  0.21220  0.76728  1.0000
  H   H1605     1.0  0.98500  0.24484  0.24385  1.0000
  H   H1606     1.0  0.02852  0.40185  0.90685  1.0000
  N   N100      1.0  0.70966  0.28474  0.83582  1.0000
  C   C995      1.0  0.82170  0.43229  0.22230  1.0000
  Fe  Fe199     1.0  0.04077  0.33776  0.23266  1.0000
  H   H1607     1.0  0.71492  0.20243  0.01782  1.0000
  C   C996      1.0  0.71176  0.19936  0.97655  1.0000
  C   C997      1.0  0.98445  0.43070  0.77067  1.0000
  S   S401      1.0  0.88043  0.21116  0.24082  1.0000
  Fe  Fe200     1.0  0.87337  0.24203  0.24763  1.0000
  H   H1608     1.0  0.01931  0.43166  0.20587  1.0000
  H   H1609     1.0  0.71558  0.38286  0.24617  1.0000
  Fe  Fe201     1.0  0.94717  0.29405  0.70642  1.0000
  C   C998      1.0  0.90202  0.35915  0.61324  1.0000
  H   H1610     1.0  0.78849  0.24688  0.48487  1.0000
  H   H1611     1.0  0.02967  0.21408  0.47623  1.0000
  S   S402      1.0  0.85439  0.33592  0.30506  1.0000
  H   H1612     1.0  0.81703  0.23033  0.39359  1.0000
  C   C999      1.0  0.85574  0.41867  0.59058  1.0000
  C   C1000     1.0  0.97522  0.33036  0.35891  1.0000
  H   H1613     1.0  0.99658  0.36369  0.44225  1.0000
  H   H1614     1.0  0.91058  0.38190  0.57563  1.0000
  S   S403      1.0  0.84109  0.35008  0.54970  1.0000
  C   C1001     1.0  0.85346  0.42717  0.30035  1.0000
  H   H1615     1.0  0.83540  0.31465  0.45724  1.0000
  H   H1616     1.0  0.81157  0.33672  0.29917  1.0000
  C   C1002     1.0  0.95594  0.43122  0.39683  1.0000
  H   H1617     1.0  0.01729  0.21539  0.54342  1.0000
  H   H1618     1.0  0.78281  0.33493  0.30116  1.0000
  H   H1619     1.0  0.01559  0.26057  0.73365  1.0000
  H   H1620     1.0  0.74548  0.39952  0.25419  1.0000
  C   C1003     1.0  0.84751  0.37525  0.57048  1.0000
  S   S404      1.0  0.89225  0.39793  0.32650  1.0000
  H   H1621     1.0  0.99317  0.33091  0.46022  1.0000
  C   C1004     1.0  0.95132  0.22536  0.63971  1.0000
  H   H1622     1.0  0.87487  0.30553  0.65094  1.0000
  N   N101      1.0  0.81839  0.26983  0.51130  1.0000
  S   S405      1.0  0.74423  0.25250  0.54290  1.0000
  C   C1005     1.0  0.84018  0.29794  0.47930  1.0000
  C   C1006     1.0  0.85754  0.29496  0.30154  1.0000
  C   C1007     1.0  0.03143  0.26997  0.47106  1.0000
  H   H1623     1.0  0.93528  0.40572  0.65151  1.0000
  C   C1008     1.0  0.82954  0.37167  0.61515  1.0000
  Fe  Fe202     1.0  0.85852  0.20957  0.39891  1.0000
  C   C1009     1.0  0.85944  0.32099  0.26327  1.0000
  H   H1624     1.0  0.88168  0.39130  0.66910  1.0000
  H   H1625     1.0  0.92294  0.43000  0.37619  1.0000
  S   S406      1.0  0.76970  0.30103  0.61559  1.0000
  C   C1010     1.0  0.82848  0.40870  0.32912  1.0000
  H   H1626     1.0  0.79579  0.27972  0.55175  1.0000
  H   H1627     1.0  0.74441  0.29699  0.42296  1.0000
  C   C1011     1.0  0.73963  0.26401  0.33892  1.0000
  H   H1628     1.0  0.80800  0.42703  0.60024  1.0000
  H   H1629     1.0  0.89852  0.30299  0.61557  1.0000
  H   H1630     1.0  0.87995  0.21680  0.72074  1.0000
  H   H1631     1.0  0.02632  0.38746  0.33356  1.0000
  N   N102      1.0  0.04140  0.25548  0.45482  1.0000
  H   H1632     1.0  0.99017  0.39344  0.33660  1.0000
  H   H1633     1.0  0.01269  0.26384  0.46649  1.0000
  Fe  Fe203     1.0  0.72377  0.22387  0.28188  1.0000
  C   C1012     1.0  0.98635  0.34565  0.43606  1.0000
  H   H1634     1.0  0.96038  0.36443  0.36166  1.0000
  C   C1013     1.0  0.97974  0.37432  0.33464  1.0000
  C   C1014     1.0  0.74269  0.23796  0.45016  1.0000
  H   H1635     1.0  0.94076  0.35256  0.61308  1.0000
  H   H1636     1.0  0.83775  0.25167  0.49347  1.0000
  H   H1637     1.0  0.77688  0.39334  0.57826  1.0000
  Fe  Fe204     1.0  0.96395  0.33887  0.73918  1.0000
  C   C1015     1.0  0.87411  0.42167  0.54843  1.0000
  H   H1638     1.0  0.00686  0.27777  0.61195  1.0000
  C   C1016     1.0  0.74356  0.25781  0.46333  1.0000
  S   S407      1.0  0.99365  0.22377  0.63452  1.0000
  H   H1639     1.0  0.03089  0.26553  0.52256  1.0000
  H   H1640     1.0  0.90518  0.34140  0.49850  1.0000
  Fe  Fe205     1.0  0.80406  0.33771  0.53525  1.0000
  H   H1641     1.0  0.85311  0.30187  0.43811  1.0000
  H   H1642     1.0  0.77075  0.40542  0.49861  1.0000
  C   C1017     1.0  0.02358  0.19425  0.38510  1.0000
  H   H1643     1.0  0.81979  0.41543  0.51963  1.0000
  H   H1644     1.0  0.88205  0.35044  0.62958  1.0000
  H   H1645     1.0  0.03218  0.26492  0.36244  1.0000
  H   H1646     1.0  0.78642  0.24338  0.59579  1.0000
  H   H1647     1.0  0.83605  0.24934  0.57268  1.0000
  C   C1018     1.0  0.80367  0.20926  0.43315  1.0000
  H   H1648     1.0  0.81977  0.39044  0.66014  1.0000
  C   C1019     1.0  0.74340  0.28138  0.41335  1.0000
  S   S408      1.0  0.79441  0.32859  0.45529  1.0000
  C   C1020     1.0  0.97760  0.41957  0.73025  1.0000
  C   C1021     1.0  0.95625  0.23547  0.31734  1.0000
  H   H1649     1.0  0.01649  0.23175  0.73685  1.0000
  S   S409      1.0  0.75258  0.21304  0.27596  1.0000
  H   H1650     1.0  0.87938  0.33993  0.53677  1.0000
  C   C1022     1.0  0.96876  0.26179  0.37187  1.0000
  H   H1651     1.0  0.90704  0.37251  0.48781  1.0000
  S   S410      1.0  0.93044  0.27681  0.64457  1.0000
  H   H1652     1.0  0.92370  0.42482  0.59104  1.0000
  H   H1653     1.0  0.74325  0.21999  0.48809  1.0000
  S   S411      1.0  0.80522  0.21647  0.71250  1.0000
  H   H1654     1.0  0.72485  0.36311  0.31327  1.0000
  C   C1023     1.0  0.98754  0.26651  0.61958  1.0000
  S   S412      1.0  0.95118  0.40375  0.38621  1.0000
  H   H1655     1.0  0.94431  0.37876  0.53027  1.0000
  C   C1024     1.0  0.93411  0.35590  0.56808  1.0000
  H   H1656     1.0  0.93188  0.23014  0.39441  1.0000
  N   N103      1.0  0.98910  0.35495  0.36448  1.0000
  H   H1657     1.0  0.90885  0.35672  0.65761  1.0000
  S   S413      1.0  0.93360  0.21122  0.30393  1.0000
  Fe  Fe206     1.0  0.88801  0.37659  0.26994  1.0000
  H   H1658     1.0  0.93908  0.34552  0.54705  1.0000
  C   C1025     1.0  0.80494  0.26792  0.46216  1.0000
  S   S414      1.0  0.98165  0.33475  0.66401  1.0000
  H   H1659     1.0  0.81242  0.26743  0.60506  1.0000
  C   C1026     1.0  0.86224  0.28270  0.27011  1.0000
  C   C1027     1.0  0.72603  0.38371  0.28296  1.0000
  H   H1660     1.0  0.73074  0.37176  0.40493  1.0000
  H   H1661     1.0  0.81213  0.35246  0.64026  1.0000
  C   C1028     1.0  0.93058  0.42244  0.63532  1.0000
  C   C1029     1.0  0.99841  0.27092  0.28472  1.0000
  S   S415      1.0  0.78998  0.36725  0.50514  1.0000
  S   S416      1.0  0.73449  0.26593  0.26446  1.0000
  S   S417      1.0  0.74094  0.31958  0.50365  1.0000
  S   S418      1.0  0.96474  0.37959  0.69997  1.0000
  H   H1662     1.0  0.80993  0.22706  0.56022  1.0000
  H   H1663     1.0  0.73767  0.19563  0.61413  1.0000
  C   C1030     1.0  0.98035  0.24971  0.27905  1.0000
  C   C1031     1.0  0.80263  0.34916  0.27702  1.0000
  H   H1664     1.0  0.00618  0.22269  0.47137  1.0000
  H   H1665     1.0  0.96428  0.26620  0.40834  1.0000
  C   C1032     1.0  0.87008  0.39990  0.53881  1.0000
  H   H1666     1.0  0.88400  0.40274  0.50418  1.0000
  C   C1033     1.0  0.77646  0.41125  0.53596  1.0000
  H   H1667     1.0  0.71079  0.42351  0.31455  1.0000
  C   C1034     1.0  0.01506  0.36937  0.32839  1.0000
  H   H1668     1.0  0.80861  0.36486  0.29175  1.0000
  C   C1035     1.0  0.78029  0.19640  0.42733  1.0000
  H   H1669     1.0  0.75064  0.40847  0.34678  1.0000
  H   H1670     1.0  0.02832  0.36051  0.72289  1.0000
  C   C1036     1.0  0.73121  0.39190  0.37357  1.0000
  S   S419      1.0  0.78151  0.38610  0.32665  1.0000
  H   H1671     1.0  0.90079  0.30998  0.68151  1.0000
  H   H1672     1.0  0.98088  0.38113  0.28119  1.0000
  H   H1673     1.0  0.77560  0.20767  0.38383  1.0000
  S   S420      1.0  0.73397  0.33770  0.63687  1.0000
  H   H1674     1.0  0.01687  0.28232  0.25386  1.0000
  C   C1037     1.0  0.88992  0.38957  0.71080  1.0000
  C   C1038     1.0  0.97349  0.27832  0.62200  1.0000
  Fe  Fe207     1.0  0.93049  0.40644  0.31049  1.0000
  C   C1039     1.0  0.95045  0.24138  0.36407  1.0000
  C   C1040     1.0  0.00386  0.19863  0.38360  1.0000
  C   C1041     1.0  0.89947  0.34982  0.52442  1.0000
  N   N104      1.0  0.91248  0.41583  0.69042  1.0000
  H   H1675     1.0  0.98120  0.31485  0.38352  1.0000
  S   S421      1.0  0.84082  0.20762  0.48638  1.0000
  H   H1676     1.0  0.82166  0.39215  0.38105  1.0000
  H   H1677     1.0  0.91800  0.22614  0.64824  1.0000
  C   C1042     1.0  0.81252  0.41118  0.29034  1.0000
  H   H1678     1.0  0.72414  0.39627  0.40815  1.0000
  C   C1043     1.0  0.97641  0.23978  0.62963  1.0000
  N   N105      1.0  0.71676  0.39079  0.32601  1.0000
  H   H1679     1.0  0.94249  0.20457  0.64874  1.0000
  C   C1044     1.0  0.94838  0.26377  0.63241  1.0000
  H   H1680     1.0  0.86564  0.42521  0.33088  1.0000
  C   C1045     1.0  0.82587  0.24859  0.53543  1.0000
  C   C1046     1.0  0.99263  0.27707  0.33089  1.0000
  Fe  Fe208     1.0  0.77732  0.35502  0.43184  1.0000
  H   H1681     1.0  0.03394  0.36060  0.45734  1.0000
  H   H1682     1.0  0.95542  0.31952  0.38332  1.0000
  H   H1683     1.0  0.01791  0.37757  0.27373  1.0000
  C   C1047     1.0  0.80257  0.26485  0.56845  1.0000
  C   C1048     1.0  0.74133  0.24142  0.38750  1.0000
  H   H1684     1.0  0.85324  0.28461  0.35549  1.0000
  S   S422      1.0  0.92520  0.38181  0.26198  1.0000
  H   H1685     1.0  0.00622  0.21873  0.34696  1.0000
  Fe  Fe209     1.0  0.89862  0.21072  0.32098  1.0000
  S   S423      1.0  0.89434  0.24435  0.32126  1.0000
  Fe  Fe210     1.0  0.75894  0.29383  0.53341  1.0000
  H   H1686     1.0  0.84999  0.30048  0.51598  1.0000
  C   C1049     1.0  0.81023  0.19428  0.48780  1.0000
  H   H1687     1.0  0.79893  0.28355  0.44296  1.0000
  H   H1688     1.0  0.02246  0.35501  0.34777  1.0000
  H   H1689     1.0  0.81633  0.27179  0.41804  1.0000
  C   C1050     1.0  0.89488  0.31448  0.63531  1.0000
  N   N106      1.0  0.90763  0.34484  0.58521  1.0000
  S   S424      1.0  0.01519  0.30443  0.33555  1.0000
  C   C1051     1.0  0.74094  0.28418  0.35157  1.0000
  H   H1690     1.0  0.96697  0.33458  0.46483  1.0000
  Fe  Fe211     1.0  0.75485  0.33000  0.57884  1.0000
  C   C1052     1.0  0.93740  0.23754  0.63986  1.0000
  C   C1053     1.0  0.83386  0.39314  0.62640  1.0000
  H   H1691     1.0  0.89352  0.37210  0.72679  1.0000
  S   S425      1.0  0.83745  0.20900  0.32471  1.0000
  H   H1692     1.0  0.71938  0.37731  0.56358  1.0000
  H   H1693     1.0  0.73965  0.30170  0.31410  1.0000
  H   H1694     1.0  0.76201  0.41344  0.55612  1.0000
  H   H1695     1.0  0.86113  0.26290  0.30025  1.0000
  H   H1696     1.0  0.98207  0.29860  0.61641  1.0000
  C   C1054     1.0  0.02284  0.22556  0.48799  1.0000
  H   H1697     1.0  0.74155  0.22654  0.37689  1.0000
  S   S426      1.0  0.02942  0.31252  0.73702  1.0000
  H   H1698     1.0  0.81502  0.42946  0.43900  1.0000
  H   H1699     1.0  0.97781  0.33634  0.30557  1.0000
  Fe  Fe212     1.0  0.99377  0.31109  0.74723  1.0000
  C   C1055     1.0  0.71871  0.41826  0.28369  1.0000
  C   C1056     1.0  0.92215  0.41254  0.74839  1.0000
  H   H1700     1.0  0.93897  0.43206  0.73539  1.0000
  H   H1701     1.0  0.97577  0.43179  0.68206  1.0000
  H   H1702     1.0  0.71448  0.28364  0.74651  1.0000
  C   C1057     1.0  0.72773  0.49684  0.98461  1.0000
  H   H1703     1.0  0.87163  0.53025  0.16213  1.0000
  S   S427      1.0  0.97308  0.60103  0.85599  1.0000
  Fe  Fe213     1.0  0.87433  0.43308  0.96978  1.0000
  H   H1704     1.0  0.89317  0.65712  0.98845  1.0000
  H   H1705     1.0  0.87898  0.51369  0.12593  1.0000
  H   H1706     1.0  0.84360  0.54829  0.12249  1.0000
  C   C1058     1.0  0.72421  0.51876  0.94104  1.0000
  H   H1707     1.0  0.73525  0.63631  0.84939  1.0000
  H   H1708     1.0  0.74042  0.56336  0.87701  1.0000
  H   H1709     1.0  0.85253  0.55800  0.24336  1.0000
  Fe  Fe214     1.0  0.80802  0.61885  0.00399  1.0000
  H   H1710     1.0  0.91487  0.50116  0.03957  1.0000
  H   H1711     1.0  0.86344  0.51111  0.03456  1.0000
  C   C1059     1.0  0.01060  0.64783  0.07443  1.0000
  C   C1060     1.0  0.03954  0.58899  0.78127  1.0000
  S   S428      1.0  0.00120  0.60026  0.99550  1.0000
  H   H1712     1.0  0.82060  0.62093  0.11358  1.0000
  H   H1713     1.0  0.92365  0.53183  0.10821  1.0000
  H   H1714     1.0  0.98687  0.55745  0.95914  1.0000
  C   C1061     1.0  0.03090  0.43493  0.11388  1.0000
  Fe  Fe215     1.0  0.01741  0.47667  0.81385  1.0000
  H   H1715     1.0  0.89495  0.55803  0.01897  1.0000
  C   C1062     1.0  0.71965  0.56308  0.10081  1.0000
  H   H1716     1.0  0.77026  0.67626  0.84772  1.0000
  H   H1717     1.0  0.95694  0.58715  0.09956  1.0000
  H   H1718     1.0  0.84640  0.56848  0.89790  1.0000
  H   H1719     1.0  0.90312  0.51727  0.21924  1.0000
  C   C1063     1.0  0.73514  0.63573  0.96335  1.0000
  C   C1064     1.0  0.96555  0.50188  0.02641  1.0000
  H   H1720     1.0  0.96152  0.49910  0.98378  1.0000
  N   N107      1.0  0.84693  0.58466  0.79477  1.0000
  N   N108      1.0  0.99152  0.52177  0.01073  1.0000
  H   H1721     1.0  0.87782  0.53278  0.85822  1.0000
  H   H1722     1.0  0.95369  0.65818  0.11531  1.0000
  C   C1065     1.0  0.87898  0.55965  0.03097  1.0000
  H   H1723     1.0  0.74215  0.52504  0.08650  1.0000
  Fe  Fe216     1.0  0.98760  0.62175  0.91293  1.0000
  C   C1066     1.0  0.94028  0.65799  0.08829  1.0000
  H   H1724     1.0  0.00263  0.49118  0.04165  1.0000
  C   C1067     1.0  0.90606  0.65728  0.01670  1.0000
  H   H1725     1.0  0.71141  0.51557  0.20891  1.0000
  H   H1726     1.0  0.88445  0.57372  0.05083  1.0000
  N   N109      1.0  0.73284  0.65584  0.90194  1.0000
  H   H1727     1.0  0.94180  0.51647  0.14149  1.0000
  H   H1728     1.0  0.79661  0.56350  0.23656  1.0000
  C   C1068     1.0  0.75685  0.68124  0.86121  1.0000
  S   S429      1.0  0.94500  0.44752  0.21383  1.0000
  H   H1729     1.0  0.01743  0.56483  0.93989  1.0000
  H   H1730     1.0  0.02617  0.52629  0.98144  1.0000
  H   H1731     1.0  0.77604  0.66856  0.04977  1.0000
  H   H1732     1.0  0.76625  0.64036  0.19918  1.0000
  H   H1733     1.0  0.85529  0.62934  0.16238  1.0000
  N   N110      1.0  0.94167  0.54343  0.17340  1.0000
  H   H1734     1.0  0.87523  0.57014  0.98292  1.0000
  C   C1069     1.0  0.02460  0.64123  0.11697  1.0000
  S   S430      1.0  0.78144  0.62801  0.03522  1.0000
  C   C1070     1.0  0.00406  0.63611  0.03499  1.0000
  H   H1735     1.0  0.00445  0.66161  0.07274  1.0000
  H   H1736     1.0  0.95608  0.55007  0.84046  1.0000
  S   S431      1.0  0.80974  0.58033  0.06912  1.0000
  C   C1071     1.0  0.80916  0.67754  0.91662  1.0000
  H   H1737     1.0  0.85412  0.46533  0.13953  1.0000
  H   H1738     1.0  0.99321  0.64124  0.00231  1.0000
  S   S432      1.0  0.84774  0.64781  0.97814  1.0000
  C   C1072     1.0  0.84926  0.51495  0.04866  1.0000
  C   C1073     1.0  0.90733  0.50831  0.99880  1.0000
  H   H1739     1.0  0.81025  0.63607  0.14695  1.0000
  C   C1074     1.0  0.99819  0.54913  0.95133  1.0000
  C   C1075     1.0  0.77942  0.63628  0.75853  1.0000
  H   H1740     1.0  0.83208  0.54586  0.05603  1.0000
  S   S433      1.0  0.87265  0.60256  0.10538  1.0000
  C   C1076     1.0  0.88607  0.52606  0.89746  1.0000
  C   C1077     1.0  0.02468  0.61026  0.08266  1.0000
  C   C1078     1.0  0.89175  0.48948  0.98232  1.0000
  H   H1741     1.0  0.79007  0.60158  0.16633  1.0000
  S   S434      1.0  0.95609  0.62809  0.92510  1.0000
  H   H1742     1.0  0.99616  0.54781  0.90608  1.0000
  H   H1743     1.0  0.92509  0.55077  0.97573  1.0000
  H   H1744     1.0  0.99079  0.50469  0.11440  1.0000
  H   H1745     1.0  0.91424  0.61414  0.15739  1.0000
  H   H1746     1.0  0.74190  0.64456  0.99496  1.0000
  C   C1079     1.0  0.90176  0.54493  0.91355  1.0000
  C   C1080     1.0  0.90085  0.63293  0.07616  1.0000
  H   H1747     1.0  0.89640  0.65616  0.89020  1.0000
  C   C1081     1.0  0.82838  0.59217  0.80088  1.0000
  S   S435      1.0  0.81716  0.67410  0.17945  1.0000
  H   H1748     1.0  0.81105  0.43963  0.76462  1.0000
  C   C1082     1.0  0.75026  0.50264  0.99748  1.0000
  C   C1083     1.0  0.91290  0.53625  0.96317  1.0000
  H   H1749     1.0  0.74818  0.63010  0.95102  1.0000
  C   C1084     1.0  0.00639  0.51115  0.99682  1.0000
  H   H1750     1.0  0.00274  0.50721  0.95561  1.0000
  H   H1751     1.0  0.75412  0.56204  0.03598  1.0000
  H   H1752     1.0  0.78039  0.63670  0.80388  1.0000
  H   H1753     1.0  0.98231  0.58051  0.77295  1.0000
  H   H1754     1.0  0.82981  0.60900  0.75158  1.0000
  H   H1755     1.0  0.78678  0.60265  0.79129  1.0000
  Fe  Fe217     1.0  0.85096  0.64284  0.89091  1.0000
  H   H1756     1.0  0.73126  0.58256  0.05161  1.0000
  H   H1757     1.0  0.71312  0.47542  0.00805  1.0000
  H   H1758     1.0  0.88590  0.60445  0.76384  1.0000
  C   C1085     1.0  0.76531  0.55211  0.92515  1.0000
  H   H1759     1.0  0.71729  0.61623  0.99464  1.0000
  H   H1760     1.0  0.77970  0.57333  0.90223  1.0000
  C   C1086     1.0  0.94511  0.68247  0.02931  1.0000
  C   C1087     1.0  0.91806  0.63313  0.11184  1.0000
  H   H1761     1.0  0.71351  0.67820  0.87591  1.0000
  Fe  Fe218     1.0  0.81512  0.57992  0.97546  1.0000
  H   H1762     1.0  0.83289  0.49416  0.08403  1.0000
  C   C1088     1.0  0.78312  0.61707  0.75144  1.0000
  H   H1763     1.0  0.93847  0.66815  0.89106  1.0000
  S   S436      1.0  0.89416  0.46840  0.19649  1.0000
  C   C1089     1.0  0.84412  0.56201  0.86087  1.0000
  H   H1764     1.0  0.98577  0.53390  0.07878  1.0000
  H   H1765     1.0  0.81358  0.66593  0.90106  1.0000
  C   C1090     1.0  0.88129  0.49851  0.93131  1.0000
  H   H1766     1.0  0.96581  0.55383  0.23008  1.0000
  H   H1767     1.0  0.84432  0.52538  0.00277  1.0000
  H   H1768     1.0  0.03828  0.43949  0.01778  1.0000
  Fe  Fe219     1.0  0.94334  0.61027  0.86096  1.0000
  H   H1769     1.0  0.72319  0.61287  0.76246  1.0000
  H   H1770     1.0  0.95996  0.48085  0.07000  1.0000
  S   S437      1.0  0.85554  0.60561  0.94618  1.0000
  H   H1771     1.0  0.01563  0.53960  0.05790  1.0000
  H   H1772     1.0  0.92435  0.56772  0.13135  1.0000
  C   C1091     1.0  0.72326  0.64293  0.86267  1.0000
  C   C1092     1.0  0.01099  0.61719  0.03943  1.0000
  H   H1773     1.0  0.00161  0.44207  0.99360  1.0000
  Fe  Fe220     1.0  0.97883  0.66921  0.82719  1.0000
  H   H1774     1.0  0.72272  0.67301  0.95070  1.0000
  H   H1775     1.0  0.87468  0.61722  0.80414  1.0000
  H   H1776     1.0  0.82157  0.51488  0.13683  1.0000
  H   H1777     1.0  0.95605  0.55272  0.07590  1.0000
  S   S438      1.0  0.88547  0.45483  0.02643  1.0000
  C   C1093     1.0  0.92039  0.52100  0.23265  1.0000
  C   C1094     1.0  0.99381  0.43331  0.14821  1.0000
  H   H1778     1.0  0.95379  0.50891  0.03853  1.0000
  H   H1779     1.0  0.81291  0.52590  0.24145  1.0000
  S   S439      1.0  0.90601  0.57868  0.87311  1.0000
  Fe  Fe221     1.0  0.87764  0.44362  0.82958  1.0000
  C   C1095     1.0  0.81545  0.57845  0.23075  1.0000
  C   C1096     1.0  0.74311  0.54638  0.91069  1.0000
  C   C1097     1.0  0.94136  0.56985  0.14524  1.0000
  C   C1098     1.0  0.93494  0.68146  0.84781  1.0000
  C   C1099     1.0  0.02585  0.43767  0.05425  1.0000
  C   C1100     1.0  0.83788  0.53539  0.09963  1.0000
  H   H1780     1.0  0.94244  0.57651  0.18202  1.0000
  C   C1101     1.0  0.01514  0.43327  0.16030  1.0000
  H   H1781     1.0  0.93873  0.51794  0.77189  1.0000
  S   S440      1.0  0.81083  0.61694  0.91192  1.0000
  C   C1102     1.0  0.94081  0.53583  0.12240  1.0000
  C   C1103     1.0  0.76897  0.53035  0.96824  1.0000
  H   H1782     1.0  0.75200  0.54585  0.12371  1.0000
  H   H1783     1.0  0.98044  0.56274  0.14983  1.0000
  C   C1104     1.0  0.96405  0.54690  0.19374  1.0000
  H   H1784     1.0  0.96433  0.52699  0.21811  1.0000
  N   N111      1.0  0.85771  0.53193  0.07936  1.0000
  C   C1105     1.0  0.86467  0.51764  0.13880  1.0000
  H   H1785     1.0  0.85792  0.55606  0.85778  1.0000
  H   H1786     1.0  0.84887  0.49703  0.17707  1.0000
  C   C1106     1.0  0.84688  0.45024  0.19291  1.0000
  N   N112      1.0  0.71797  0.53859  0.10204  1.0000
  Fe  Fe222     1.0  0.84999  0.60901  0.03509  1.0000
  N   N113      1.0  0.81748  0.60475  0.21806  1.0000
  S   S441      1.0  0.90227  0.43982  0.89437  1.0000
  S   S442      1.0  0.79672  0.53794  0.98680  1.0000
  C   C1107     1.0  0.80928  0.61632  0.15872  1.0000
  S   S443      1.0  0.87588  0.68096  0.79137  1.0000
  H   H1787     1.0  0.82758  0.58210  0.18848  1.0000
  C   C1108     1.0  0.77085  0.66197  0.17516  1.0000
  C   C1109     1.0  0.99604  0.52505  0.06822  1.0000
  C   C1110     1.0  0.79386  0.66398  0.98083  1.0000
  H   H1788     1.0  0.82586  0.54300  0.88114  1.0000
  H   H1789     1.0  0.86904  0.48409  0.91898  1.0000
  H   H1790     1.0  0.75301  0.48570  0.03098  1.0000
  S   S444      1.0  0.01123  0.66415  0.82003  1.0000
  H   H1791     1.0  0.98740  0.45124  0.75415  1.0000
  C   C1111     1.0  0.98881  0.43619  0.08839  1.0000
  C   C1112     1.0  0.96720  0.55935  0.78915  1.0000
  S   S445      1.0  0.85061  0.43936  0.90299  1.0000
  H   H1792     1.0  0.80966  0.57392  0.81995  1.0000
  C   C1113     1.0  0.03147  0.62226  0.12142  1.0000
  H   H1793     1.0  0.03393  0.64038  0.78144  1.0000
  H   H1794     1.0  0.73454  0.65299  0.16989  1.0000
  C   C1114     1.0  0.71600  0.66330  0.92090  1.0000
  C   C1115     1.0  0.84301  0.62491  0.20591  1.0000
  C   C1116     1.0  0.91104  0.67456  0.84736  1.0000
  H   H1795     1.0  0.83028  0.59962  0.83600  1.0000
  C   C1117     1.0  0.74264  0.54305  0.08636  1.0000
  S   S446      1.0  0.96228  0.43634  0.07278  1.0000
  H   H1796     1.0  0.71635  0.57910  0.23541  1.0000
  H   H1797     1.0  0.03007  0.59563  0.08613  1.0000
  C   C1118     1.0  0.00511  0.43906  0.04072  1.0000
  S   S447      1.0  0.96322  0.65165  0.76454  1.0000
  H   H1798     1.0  0.92016  0.52305  0.81692  1.0000
  C   C1119     1.0  0.86271  0.44778  0.23220  1.0000
  H   H1799     1.0  0.82512  0.55673  0.76434  1.0000
  S   S448      1.0  0.00409  0.50694  0.78654  1.0000
  Fe  Fe223     1.0  0.03970  0.53510  0.79147  1.0000
  C   C1120     1.0  0.03412  0.62722  0.76425  1.0000
  H   H1800     1.0  0.82479  0.48133  0.77288  1.0000
  C   C1121     1.0  0.75293  0.66909  0.15855  1.0000
  H   H1801     1.0  0.92831  0.46132  0.76760  1.0000
  H   H1802     1.0  0.97546  0.54651  0.79258  1.0000
  H   H1803     1.0  0.80946  0.43419  0.19197  1.0000
  H   H1804     1.0  0.93176  0.57151  0.78567  1.0000
  C   C1122     1.0  0.78781  0.67900  0.00019  1.0000
  H   H1805     1.0  0.71648  0.55365  0.00013  1.0000
  Fe  Fe224     1.0  0.99400  0.64381  0.76394  1.0000
  H   H1806     1.0  0.93572  0.65260  0.22080  1.0000
  C   C1123     1.0  0.93203  0.53226  0.76676  1.0000
  H   H1807     1.0  0.72805  0.56620  0.13902  1.0000
  C   C1124     1.0  0.87147  0.60938  0.76957  1.0000
  H   H1808     1.0  0.84515  0.64517  0.19506  1.0000
  H   H1809     1.0  0.72233  0.65804  0.81460  1.0000
  Fe  Fe225     1.0  0.90632  0.43709  0.22510  1.0000
  S   S449      1.0  0.03380  0.65642  0.16486  1.0000
  H   H1810     1.0  0.91907  0.67637  0.24780  1.0000
  C   C1125     1.0  0.04079  0.60738  0.80062  1.0000
  C   C1126     1.0  0.92813  0.68192  0.99323  1.0000
  H   H1811     1.0  0.00957  0.49179  0.51421  1.0000
  C   C1127     1.0  0.02734  0.62967  0.70655  1.0000
  C   C1128     1.0  0.93769  0.52151  0.63211  1.0000
  H   H1812     1.0  0.94639  0.63647  0.35802  1.0000
  C   C1129     1.0  0.77343  0.65430  0.64836  1.0000
  S   S450      1.0  0.83557  0.59138  0.58145  1.0000
  C   C1130     1.0  0.93922  0.44050  0.38726  1.0000
  C   C1131     1.0  0.72535  0.55393  0.41283  1.0000
  Fe  Fe226     1.0  0.02468  0.52604  0.68079  1.0000
  H   H1813     1.0  0.89141  0.44080  0.52301  1.0000
  H   H1814     1.0  0.83129  0.67230  0.65694  1.0000
  H   H1815     1.0  0.72824  0.54725  0.46193  1.0000
  C   C1132     1.0  0.94363  0.46358  0.39145  1.0000
  S   S451      1.0  0.74067  0.44040  0.43716  1.0000
  C   C1133     1.0  0.84759  0.53668  0.26098  1.0000
  S   S452      1.0  0.92787  0.50663  0.51775  1.0000
  C   C1134     1.0  0.96267  0.53410  0.60369  1.0000
  C   C1135     1.0  0.71873  0.57194  0.28506  1.0000
  H   H1816     1.0  0.01024  0.45213  0.51612  1.0000
  H   H1817     1.0  0.95660  0.57148  0.63942  1.0000
  H   H1818     1.0  0.99001  0.43786  0.41837  1.0000
  H   H1819     1.0  0.03789  0.60488  0.30235  1.0000
  H   H1820     1.0  0.79269  0.45494  0.41275  1.0000
  H   H1821     1.0  0.81982  0.44374  0.68523  1.0000
  H   H1822     1.0  0.03841  0.46289  0.64247  1.0000
  C   C1136     1.0  0.82027  0.56975  0.44394  1.0000
  C   C1137     1.0  0.02088  0.49064  0.54951  1.0000
  H   H1823     1.0  0.97675  0.56022  0.67778  1.0000
  C   C1138     1.0  0.96292  0.49464  0.69492  1.0000
  H   H1824     1.0  0.74503  0.53806  0.38557  1.0000
  H   H1825     1.0  0.79930  0.56793  0.52115  1.0000
  H   H1826     1.0  0.86803  0.49855  0.62849  1.0000
  C   C1139     1.0  0.90727  0.43879  0.66713  1.0000
  Fe  Fe227     1.0  0.74361  0.51082  0.32094  1.0000
  H   H1827     1.0  0.93085  0.47088  0.38300  1.0000
  H   H1828     1.0  0.98749  0.61127  0.36033  1.0000
  C   C1140     1.0  0.94792  0.61078  0.53272  1.0000
  H   H1829     1.0  0.93486  0.65492  0.37572  1.0000
  S   S453      1.0  0.74287  0.54981  0.25421  1.0000
  H   H1830     1.0  0.80329  0.47560  0.63241  1.0000
  H   H1831     1.0  0.84619  0.59165  0.69727  1.0000
  H   H1832     1.0  0.03262  0.44321  0.54520  1.0000
  S   S454      1.0  0.89362  0.47999  0.72315  1.0000
  C   C1141     1.0  0.99999  0.57137  0.41391  1.0000
  H   H1833     1.0  0.86993  0.49272  0.32352  1.0000
  C   C1142     1.0  0.92513  0.49524  0.69132  1.0000
  H   H1834     1.0  0.81325  0.50555  0.63924  1.0000
  H   H1835     1.0  0.92805  0.53208  0.60756  1.0000
  H   H1836     1.0  0.02737  0.59875  0.46766  1.0000
  H   H1837     1.0  0.80824  0.51435  0.42974  1.0000
  S   S455      1.0  0.84000  0.60593  0.40047  1.0000
  H   H1838     1.0  0.95781  0.60082  0.71647  1.0000
  H   H1839     1.0  0.74583  0.61355  0.46902  1.0000
  S   S456      1.0  0.89246  0.55189  0.27716  1.0000
  H   H1840     1.0  0.72582  0.63901  0.47900  1.0000
  H   H1841     1.0  0.88131  0.60000  0.36861  1.0000
  H   H1842     1.0  0.72445  0.63301  0.61599  1.0000
  C   C1143     1.0  0.93858  0.65036  0.33729  1.0000
  H   H1843     1.0  0.90588  0.62256  0.25335  1.0000
  Fe  Fe228     1.0  0.92892  0.54751  0.46044  1.0000
  H   H1844     1.0  0.00749  0.55976  0.45038  1.0000
  H   H1845     1.0  0.73626  0.63333  0.36312  1.0000
  H   H1846     1.0  0.98194  0.59435  0.65258  1.0000
  C   C1144     1.0  0.94285  0.57904  0.73624  1.0000
  C   C1145     1.0  0.80962  0.48368  0.66562  1.0000
  C   C1146     1.0  0.79608  0.67177  0.34431  1.0000
  H   H1847     1.0  0.92022  0.50083  0.25618  1.0000
  Fe  Fe229     1.0  0.90492  0.53304  0.36484  1.0000
  C   C1147     1.0  0.81896  0.49113  0.28148  1.0000
  C   C1148     1.0  0.71104  0.62095  0.74108  1.0000
  S   S457      1.0  0.87967  0.65273  0.46066  1.0000
  S   S458      1.0  0.89779  0.61658  0.62195  1.0000
  H   H1848     1.0  0.90541  0.59591  0.40022  1.0000
  C   C1149     1.0  0.78493  0.52743  0.53341  1.0000
  H   H1849     1.0  0.00852  0.43657  0.60347  1.0000
  H   H1850     1.0  0.75764  0.60631  0.38052  1.0000
  C   C1150     1.0  0.84367  0.57487  0.74779  1.0000
  H   H1851     1.0  0.78259  0.58464  0.28598  1.0000
  C   C1151     1.0  0.91132  0.60617  0.58234  1.0000
  C   C1152     1.0  0.89826  0.61046  0.38002  1.0000
  H   H1852     1.0  0.03191  0.51206  0.54026  1.0000
  H   H1853     1.0  0.85569  0.49274  0.73757  1.0000
  Fe  Fe230     1.0  0.71146  0.44833  0.40028  1.0000
  C   C1153     1.0  0.73131  0.55741  0.30612  1.0000
  N   N114      1.0  0.83144  0.48230  0.68136  1.0000
  C   C1154     1.0  0.70918  0.57719  0.32845  1.0000
  S   S459      1.0  0.89013  0.52780  0.46055  1.0000
  Fe  Fe231     1.0  0.75075  0.47573  0.45342  1.0000
  H   H1854     1.0  0.94770  0.44239  0.61809  1.0000
  H   H1855     1.0  0.89814  0.56309  0.52249  1.0000
  C   C1155     1.0  0.81898  0.43347  0.47993  1.0000
  H   H1856     1.0  0.80362  0.61854  0.26976  1.0000
  Fe  Fe232     1.0  0.87084  0.62514  0.57158  1.0000
  H   H1857     1.0  0.92404  0.45900  0.64949  1.0000
  Fe  Fe233     1.0  0.86011  0.67115  0.48467  1.0000
  S   S460      1.0  0.85912  0.44712  0.59533  1.0000
  S   S461      1.0  0.73375  0.47887  0.29311  1.0000
  C   C1156     1.0  0.71271  0.61043  0.65527  1.0000
  S   S462      1.0  0.00682  0.53751  0.59934  1.0000
  C   C1157     1.0  0.76462  0.63193  0.44671  1.0000
  H   H1858     1.0  0.00176  0.61035  0.29559  1.0000
  H   H1859     1.0  0.89394  0.43493  0.70735  1.0000
  S   S463      1.0  0.76411  0.47770  0.53925  1.0000
  C   C1158     1.0  0.93786  0.48189  0.72294  1.0000
  H   H1860     1.0  0.80705  0.58939  0.32312  1.0000
  C   C1159     1.0  0.90880  0.57845  0.53450  1.0000
  C   C1160     1.0  0.93410  0.59099  0.51685  1.0000
  H   H1861     1.0  0.76501  0.64655  0.46152  1.0000
  C   C1161     1.0  0.97539  0.52079  0.63512  1.0000
  H   H1862     1.0  0.93118  0.58004  0.70197  1.0000
  H   H1863     1.0  0.72485  0.60198  0.67463  1.0000
  C   C1162     1.0  0.93651  0.61802  0.56642  1.0000
  H   H1864     1.0  0.97251  0.48396  0.71897  1.0000
  H   H1865     1.0  0.99836  0.47961  0.42255  1.0000
  C   C1163     1.0  0.02829  0.61310  0.68348  1.0000
  H   H1866     1.0  0.83052  0.46077  0.31953  1.0000
  H   H1867     1.0  0.92028  0.52652  0.27105  1.0000
  S   S464      1.0  0.97190  0.50784  0.40475  1.0000
  H   H1868     1.0  0.02351  0.61531  0.63818  1.0000
  H   H1869     1.0  0.82045  0.56831  0.27680  1.0000
  H   H1870     1.0  0.78599  0.46464  0.46803  1.0000
  C   C1164     1.0  0.96760  0.57214  0.67503  1.0000
  S   S465      1.0  0.01298  0.64904  0.67323  1.0000
  H   H1871     1.0  0.75983  0.66354  0.28885  1.0000
  H   H1872     1.0  0.82471  0.46358  0.53617  1.0000
  H   H1873     1.0  0.03187  0.63265  0.40723  1.0000
  H   H1874     1.0  0.77652  0.62400  0.47047  1.0000
  H   H1875     1.0  0.81040  0.66761  0.36395  1.0000
  C   C1165     1.0  0.00514  0.61637  0.33352  1.0000
  C   C1166     1.0  0.77790  0.63564  0.64049  1.0000
  S   S466      1.0  0.77583  0.50849  0.34986  1.0000
  C   C1167     1.0  0.72627  0.67567  0.46486  1.0000
  H   H1876     1.0  0.87789  0.57731  0.57851  1.0000
  Fe  Fe234     1.0  0.76386  0.47367  0.33129  1.0000
  C   C1168     1.0  0.79899  0.46028  0.45018  1.0000
  C   C1169     1.0  0.02128  0.45175  0.55188  1.0000
  H   H1877     1.0  0.79303  0.44713  0.57733  1.0000
  C   C1170     1.0  0.03989  0.61028  0.34159  1.0000
  C   C1171     1.0  0.90623  0.65621  0.29468  1.0000
  C   C1172     1.0  0.89740  0.58647  0.56616  1.0000
  H   H1878     1.0  0.97222  0.55442  0.55794  1.0000
  H   H1879     1.0  0.92049  0.53228  0.73220  1.0000
  H   H1880     1.0  0.99728  0.56464  0.37722  1.0000
  C   C1173     1.0  0.73467  0.54851  0.36989  1.0000
  H   H1881     1.0  0.78940  0.62254  0.37349  1.0000
  H   H1882     1.0  0.94728  0.63337  0.57857  1.0000
  H   H1883     1.0  0.96752  0.62058  0.51883  1.0000
  C   C1174     1.0  0.71265  0.56828  0.39216  1.0000
  Fe  Fe235     1.0  0.84291  0.62063  0.47185  1.0000
  H   H1884     1.0  0.89313  0.61339  0.42044  1.0000
  H   H1885     1.0  0.87432  0.62689  0.71946  1.0000
  S   S467      1.0  0.85415  0.64595  0.59513  1.0000
  C   C1175     1.0  0.77475  0.62670  0.35635  1.0000
  S   S468      1.0  0.71908  0.48061  0.42593  1.0000
  H   H1886     1.0  0.00195  0.60409  0.45993  1.0000
  C   C1176     1.0  0.97693  0.44480  0.41165  1.0000
  Fe  Fe236     1.0  0.94005  0.51331  0.41821  1.0000
  C   C1177     1.0  0.83513  0.48182  0.30420  1.0000
  C   C1178     1.0  0.80682  0.44407  0.55732  1.0000
  C   C1179     1.0  0.03365  0.59213  0.72205  1.0000
  C   C1180     1.0  0.83927  0.49355  0.72481  1.0000
  C   C1181     1.0  0.80158  0.55614  0.50204  1.0000
  N   N115      1.0  0.03647  0.47985  0.54093  1.0000
  C   C1182     1.0  0.82575  0.45294  0.71648  1.0000
  Fe  Fe237     1.0  0.89022  0.48734  0.50979  1.0000
  S   S469      1.0  0.77162  0.68004  0.71501  1.0000
  H   H1887     1.0  0.01715  0.63949  0.30575  1.0000
  S   S470      1.0  0.82374  0.64107  0.48768  1.0000
  H   H1888     1.0  0.83748  0.56491  0.37422  1.0000
  H   H1889     1.0  0.90233  0.66119  0.33199  1.0000
  Fe  Fe238     1.0  0.81933  0.61434  0.59679  1.0000
  S   S471      1.0  0.94973  0.58365  0.47304  1.0000
  H   H1890     1.0  0.84612  0.49099  0.58491  1.0000
  C   C1183     1.0  0.80622  0.52591  0.44985  1.0000
  C   C1184     1.0  0.86379  0.52752  0.28350  1.0000
  S   S472      1.0  0.78771  0.59288  0.68480  1.0000
  N   N116      1.0  0.91635  0.63742  0.31981  1.0000
  C   C1185     1.0  0.85740  0.49988  0.30648  1.0000
  C   C1186     1.0  0.82282  0.55453  0.41854  1.0000
  S   S473      1.0  0.79038  0.46848  0.28274  1.0000
  H   H1891     1.0  0.81695  0.47994  0.42413  1.0000
  H   H1892     1.0  0.89972  0.44167  0.62413  1.0000
  H   H1893     1.0  0.83740  0.45223  0.45974  1.0000
  H   H1894     1.0  0.85600  0.52136  0.59046  1.0000
  C   C1187     1.0  0.77483  0.65514  0.70668  1.0000
  H   H1895     1.0  0.75159  0.66618  0.35793  1.0000
  N   N117      1.0  0.01614  0.60194  0.38003  1.0000
  H   H1896     1.0  0.00847  0.47728  0.60133  1.0000
  N   N118      1.0  0.95241  0.56070  0.74179  1.0000
  S   S474      1.0  0.90215  0.49124  0.41326  1.0000
  N   N119      1.0  0.80032  0.43721  0.50594  1.0000
  H   H1897     1.0  0.98179  0.56446  0.44245  1.0000
  C   C1188     1.0  0.78687  0.51247  0.50626  1.0000
  C   C1189     1.0  0.96501  0.47778  0.40381  1.0000
  S   S475      1.0  0.94373  0.55553  0.36097  1.0000
  C   C1190     1.0  0.78264  0.61691  0.69228  1.0000
  H   H1898     1.0  0.77717  0.63533  0.59499  1.0000
  C   C1191     1.0  0.98164  0.46836  0.41405  1.0000
  C   C1192     1.0  0.71509  0.64766  0.48422  1.0000
  C   C1193     1.0  0.75423  0.65250  0.34449  1.0000
  H   H1899     1.0  0.76990  0.51717  0.57674  1.0000
  N   N120      1.0  0.77241  0.64571  0.37299  1.0000
  H   H1900     1.0  0.88888  0.64661  0.28372  1.0000
  H   H1901     1.0  0.76882  0.66794  0.60940  1.0000
  C   C1194     1.0  0.01955  0.60976  0.43087  1.0000
  H   H1902     1.0  0.85719  0.56871  0.74244  1.0000
  H   H1903     1.0  0.84393  0.51576  0.69968  1.0000
  H   H1904     1.0  0.77899  0.63550  0.30156  1.0000
  C   C1195     1.0  0.85125  0.49910  0.61850  1.0000
  H   H1905     1.0  0.95289  0.67045  0.29264  1.0000
  H   H1906     1.0  0.93021  0.61872  0.28411  1.0000
  C   C1196     1.0  0.80198  0.59905  0.27692  1.0000
  H   H1907     1.0  0.03252  0.57793  0.70698  1.0000
  H   H1908     1.0  0.72262  0.64385  0.70410  1.0000
  H   H1909     1.0  0.73800  0.43522  0.25645  1.0000
  C   C1197     1.0  0.92230  0.63260  0.26725  1.0000
  H   H1910     1.0  0.79421  0.47106  0.71188  1.0000
  H   H1911     1.0  0.84198  0.45129  0.72811  1.0000
  C   C1198     1.0  0.82511  0.51845  0.26058  1.0000
  S   S476      1.0  0.03573  0.49411  0.70762  1.0000
  H   H1912     1.0  0.84947  0.61682  0.25048  1.0000
  H   H1913     1.0  0.84939  0.78079  0.21120  1.0000
  Fe  Fe239     1.0  0.02820  0.69305  0.12788  1.0000
  Fe  Fe240     1.0  0.87744  0.77326  0.10014  1.0000
  H   H1914     1.0  0.88899  0.87255  0.23616  1.0000
  C   C1199     1.0  0.96637  0.79009  0.02539  1.0000
  H   H1915     1.0  0.90871  0.81756  0.97310  1.0000
  C   C1200     1.0  0.88585  0.83357  0.98263  1.0000
  S   S477      1.0  0.98358  0.71135  0.79246  1.0000
  S   S478      1.0  0.97156  0.71476  0.99727  1.0000
  Fe  Fe241     1.0  0.89367  0.73492  0.19853  1.0000
  H   H1916     1.0  0.86423  0.80785  0.22835  1.0000
  H   H1917     1.0  0.93218  0.70058  0.94663  1.0000
  H   H1918     1.0  0.76099  0.74962  0.18049  1.0000
  S   S479      1.0  0.00880  0.86411  0.00823  1.0000
  H   H1919     1.0  0.74879  0.71371  0.20742  1.0000
  C   C1201     1.0  0.98576  0.83075  0.18536  1.0000
  H   H1920     1.0  0.72533  0.74876  0.14975  1.0000
  S   S480      1.0  0.92719  0.90302  0.76412  1.0000
  H   H1921     1.0  0.84669  0.84969  0.76255  1.0000
  H   H1922     1.0  0.97938  0.82512  0.14811  1.0000
  C   C1202     1.0  0.90847  0.88927  0.21398  1.0000
  C   C1203     1.0  0.82283  0.81692  0.14848  1.0000
  H   H1923     1.0  0.83121  0.86116  0.00014  1.0000
  H   H1924     1.0  0.99952  0.88838  0.22260  1.0000
  H   H1925     1.0  0.89617  0.70569  0.90036  1.0000
  H   H1926     1.0  0.00338  0.80359  0.91352  1.0000
  S   S481      1.0  0.01802  0.75627  0.06014  1.0000
  C   C1204     1.0  0.85978  0.78630  0.24412  1.0000
  C   C1205     1.0  0.89119  0.87433  0.88091  1.0000
  S   S482      1.0  0.91359  0.77694  0.10398  1.0000
  H   H1927     1.0  0.91680  0.88711  0.17628  1.0000
  H   H1928     1.0  0.87316  0.82313  0.84907  1.0000
  H   H1929     1.0  0.00004  0.77671  0.77502  1.0000
  H   H1930     1.0  0.73044  0.92430  0.20395  1.0000
  Fe  Fe242     1.0  0.90497  0.75309  0.05231  1.0000
  S   S483      1.0  0.88779  0.71106  0.14778  1.0000
  C   C1206     1.0  0.71359  0.72739  0.19442  1.0000
  H   H1931     1.0  0.93749  0.73658  0.17730  1.0000
  C   C1207     1.0  0.98204  0.84632  0.93409  1.0000
  N   N121      1.0  0.82021  0.89111  0.94539  1.0000
  H   H1932     1.0  0.79199  0.71905  0.97036  1.0000
  S   S484      1.0  0.72849  0.84715  0.04724  1.0000
  H   H1933     1.0  0.95663  0.90938  0.19830  1.0000
  C   C1208     1.0  0.95806  0.79766  0.96873  1.0000
  H   H1934     1.0  0.94780  0.93135  0.20843  1.0000
  H   H1935     1.0  0.03310  0.83540  0.80076  1.0000
  H   H1936     1.0  0.86753  0.71306  0.83367  1.0000
  Fe  Fe243     1.0  0.84394  0.87847  0.21072  1.0000
  H   H1937     1.0  0.96012  0.76830  0.06106  1.0000
  C   C1209     1.0  0.80999  0.89879  0.88829  1.0000
  C   C1210     1.0  0.72924  0.73327  0.75949  1.0000
  H   H1938     1.0  0.04071  0.80877  0.82075  1.0000
  Fe  Fe244     1.0  0.75589  0.74304  0.99195  1.0000
  Fe  Fe245     1.0  0.01586  0.72712  0.16537  1.0000
  H   H1939     1.0  0.97682  0.73802  0.16301  1.0000
  S   S485      1.0  0.71757  0.80118  0.20542  1.0000
  Fe  Fe246     1.0  0.74428  0.76275  0.85869  1.0000
  H   H1940     1.0  0.86653  0.79736  0.82719  1.0000
  C   C1211     1.0  0.94489  0.73111  0.21924  1.0000
  C   C1212     1.0  0.94664  0.91061  0.23510  1.0000
  H   H1941     1.0  0.70994  0.71252  0.17769  1.0000
  C   C1213     1.0  0.01339  0.89951  0.23943  1.0000
  C   C1214     1.0  0.81761  0.70587  0.87094  1.0000
  S   S486      1.0  0.71246  0.75476  0.81714  1.0000
  H   H1942     1.0  0.98846  0.80460  0.08113  1.0000
  S   S487      1.0  0.03385  0.90972  0.81114  1.0000
  S   S488      1.0  0.86985  0.75208  0.04253  1.0000
  H   H1943     1.0  0.92397  0.78104  0.77133  1.0000
  S   S489      1.0  0.99277  0.68814  0.16502  1.0000
  Fe  Fe247     1.0  0.99785  0.71743  0.05739  1.0000
  H   H1944     1.0  0.98978  0.81340  0.75280  1.0000
  H   H1945     1.0  0.83925  0.81656  0.13852  1.0000
  H   H1946     1.0  0.00567  0.84580  0.16328  1.0000
  H   H1947     1.0  0.87104  0.74730  0.78744  1.0000
  H   H1948     1.0  0.97905  0.76984  0.93574  1.0000
  H   H1949     1.0  0.82800  0.71582  0.81993  1.0000
  S   S490      1.0  0.75286  0.72937  0.91869  1.0000
  C   C1215     1.0  0.75914  0.69714  0.12437  1.0000
  H   H1950     1.0  0.79643  0.83448  0.23339  1.0000
  C   C1216     1.0  0.96710  0.73190  0.21120  1.0000
  C   C1217     1.0  0.90619  0.69122  0.79141  1.0000
  H   H1951     1.0  0.90011  0.78483  0.79956  1.0000
  C   C1218     1.0  0.97539  0.91657  0.84731  1.0000
  H   H1952     1.0  0.93022  0.85444  0.85300  1.0000
  H   H1953     1.0  0.86514  0.85365  0.97568  1.0000
  C   C1219     1.0  0.98224  0.81059  0.03698  1.0000
  H   H1954     1.0  0.72094  0.91969  0.10663  1.0000
  S   S491      1.0  0.78327  0.79490  0.80106  1.0000
  C   C1220     1.0  0.94423  0.90951  0.92579  1.0000
  H   H1955     1.0  0.97141  0.93006  0.80331  1.0000
  H   H1956     1.0  0.87711  0.78678  0.23330  1.0000
  H   H1957     1.0  0.88544  0.88921  0.85471  1.0000
  H   H1958     1.0  0.95919  0.83162  0.87970  1.0000
  H   H1959     1.0  0.86479  0.74419  0.89749  1.0000
  S   S492      1.0  0.71795  0.86697  0.17969  1.0000
  S   S493      1.0  0.87168  0.80930  0.06868  1.0000
  H   H1960     1.0  0.99482  0.92322  0.83095  1.0000
  H   H1961     1.0  0.91763  0.73348  0.90918  1.0000
  S   S494      1.0  0.03144  0.71938  0.02023  1.0000
  H   H1962     1.0  0.78753  0.73949  0.08554  1.0000
  H   H1963     1.0  0.94688  0.77979  0.23971  1.0000
  S   S495      1.0  0.93456  0.77154  0.96248  1.0000
  H   H1964     1.0  0.90909  0.90966  0.18656  1.0000
  Fe  Fe248     1.0  0.85327  0.71229  0.14335  1.0000
  Fe  Fe249     1.0  0.73215  0.80925  0.10568  1.0000
  H   H1965     1.0  0.93996  0.91263  0.96654  1.0000
  H   H1966     1.0  0.75826  0.92047  0.13459  1.0000
  S   S496      1.0  0.84380  0.84149  0.21794  1.0000
  S   S497      1.0  0.85806  0.73344  0.20023  1.0000
  C   C1221     1.0  0.72961  0.92362  0.79170  1.0000
  C   C1222     1.0  0.98995  0.83872  0.99158  1.0000
  C   C1223     1.0  0.82360  0.86765  0.95733  1.0000
  C   C1224     1.0  0.90375  0.83334  0.94747  1.0000
  H   H1967     1.0  0.00760  0.76075  0.85107  1.0000
  C   C1225     1.0  0.87937  0.85385  0.94902  1.0000
  H   H1968     1.0  0.82198  0.90462  0.84204  1.0000
  H   H1969     1.0  0.85692  0.92204  0.88455  1.0000
  C   C1226     1.0  0.02838  0.81644  0.79906  1.0000
  H   H1970     1.0  0.73746  0.90968  0.80875  1.0000
  H   H1971     1.0  0.78529  0.86458  0.01878  1.0000
  C   C1227     1.0  0.80067  0.71077  0.12752  1.0000
  C   C1228     1.0  0.82016  0.82714  0.18817  1.0000
  S   S498      1.0  0.76359  0.80453  0.08236  1.0000
  H   H1972     1.0  0.86300  0.71088  0.94008  1.0000
  C   C1229     1.0  0.78541  0.86391  0.80219  1.0000
  H   H1973     1.0  0.81900  0.72691  0.11612  1.0000
  H   H1974     1.0  0.83608  0.87324  0.91239  1.0000
  H   H1975     1.0  0.88500  0.73886  0.94715  1.0000
  C   C1230     1.0  0.80341  0.88268  0.00600  1.0000
  S   S499      1.0  0.79582  0.77452  0.94455  1.0000
  C   C1231     1.0  0.99670  0.77059  0.82851  1.0000
  H   H1976     1.0  0.96573  0.87879  0.97674  1.0000
  C   C1232     1.0  0.78159  0.82082  0.16800  1.0000
  C   C1233     1.0  0.79912  0.82803  0.19992  1.0000
  S   S500      1.0  0.81330  0.88757  0.20530  1.0000
  C   C1234     1.0  0.91589  0.85418  0.87949  1.0000
  H   H1977     1.0  0.76418  0.69200  0.88840  1.0000
  C   C1235     1.0  0.88096  0.73580  0.80728  1.0000
  Fe  Fe250     1.0  0.03709  0.90172  0.91273  1.0000
  C   C1236     1.0  0.80485  0.80878  0.11814  1.0000
  C   C1237     1.0  0.97634  0.90112  0.96164  1.0000
  H   H1978     1.0  0.93878  0.92136  0.88306  1.0000
  C   C1238     1.0  0.96612  0.82580  0.92256  1.0000
  N   N122      1.0  0.00262  0.79476  0.83522  1.0000
  H   H1979     1.0  0.00938  0.77612  0.92998  1.0000
  C   C1239     1.0  0.87585  0.73384  0.91191  1.0000
  H   H1980     1.0  0.87649  0.86829  0.76751  1.0000
  H   H1981     1.0  0.75593  0.69649  0.81340  1.0000
  H   H1982     1.0  0.80725  0.80161  0.08581  1.0000
  Fe  Fe251     1.0  0.71095  0.83653  0.14805  1.0000
  H   H1983     1.0  0.80609  0.84904  0.96875  1.0000
  H   H1984     1.0  0.72578  0.84554  0.82782  1.0000
  C   C1240     1.0  0.90800  0.72877  0.87415  1.0000
  H   H1985     1.0  0.76629  0.82344  0.17373  1.0000
  H   H1986     1.0  0.93257  0.88696  0.94419  1.0000
  H   H1987     1.0  0.98664  0.78501  0.20622  1.0000
  C   C1241     1.0  0.79675  0.70751  0.95514  1.0000
  S   S501      1.0  0.80421  0.85094  0.83806  1.0000
  H   H1988     1.0  0.80065  0.90001  0.99901  1.0000
  C   C1242     1.0  0.99843  0.78575  0.90670  1.0000
  H   H1989     1.0  0.85205  0.91013  0.97213  1.0000
  H   H1990     1.0  0.96749  0.79056  0.83384  1.0000
  C   C1243     1.0  0.78289  0.71790  0.10990  1.0000
  H   H1991     1.0  0.81044  0.87635  0.05022  1.0000
  C   C1244     1.0  0.81121  0.72076  0.89005  1.0000
  C   C1245     1.0  0.78453  0.81147  0.12652  1.0000
  C   C1246     1.0  0.86335  0.81446  0.81980  1.0000
  H   H1992     1.0  0.97693  0.84189  0.19040  1.0000
  N   N123      1.0  0.97025  0.91886  0.90524  1.0000
  Fe  Fe252     1.0  0.79197  0.76253  0.86808  1.0000
  H   H1993     1.0  0.98731  0.86786  0.90008  1.0000
  S   S502      1.0  0.73761  0.70672  0.09791  1.0000
  H   H1994     1.0  0.99587  0.90770  0.94786  1.0000
  H   H1995     1.0  0.97258  0.90219  0.00638  1.0000
  C   C1247     1.0  0.91029  0.77351  0.81654  1.0000
  H   H1996     1.0  0.97729  0.75392  0.85498  1.0000
  H   H1997     1.0  0.79196  0.88097  0.89895  1.0000
  H   H1998     1.0  0.75281  0.82887  0.88135  1.0000
  H   H1999     1.0  0.80769  0.91687  0.87638  1.0000
  N   N124      1.0  0.89377  0.74297  0.85252  1.0000
  H   H2000     1.0  0.92026  0.77982  0.84885  1.0000
  H   H2001     1.0  0.92192  0.73539  0.83070  1.0000
  H   H2002     1.0  0.74702  0.74498  0.76289  1.0000
  Fe  Fe253     1.0  0.78405  0.80469  0.88127  1.0000
  C   C1248     1.0  0.91009  0.87519  0.84671  1.0000
  C   C1249     1.0  0.74516  0.85788  0.80352  1.0000
  H   H2003     1.0  0.96428  0.89477  0.85940  1.0000
  C   C1250     1.0  0.76040  0.84824  0.83344  1.0000
  C   C1251     1.0  0.03771  0.91605  0.20055  1.0000
  H   H2004     1.0  0.99108  0.82469  0.81091  1.0000
  H   H2005     1.0  0.84361  0.80476  0.84246  1.0000
  C   C1252     1.0  0.98703  0.80638  0.80682  1.0000
  S   S503      1.0  0.81886  0.75485  0.83027  1.0000
  S   S504      1.0  0.87010  0.91969  0.11817  1.0000
  C   C1253     1.0  0.84388  0.91529  0.92994  1.0000
  C   C1254     1.0  0.95422  0.70553  0.79286  1.0000
  H   H2006     1.0  0.89386  0.74128  0.76334  1.0000
  C   C1255     1.0  0.99283  0.79211  0.24125  1.0000
  S   S505      1.0  0.74430  0.77416  0.93564  1.0000
  C   C1256     1.0  0.74960  0.72783  0.22429  1.0000
  H   H2007     1.0  0.04046  0.70220  0.88772  1.0000
  H   H2008     1.0  0.02711  0.71812  0.82749  1.0000
  H   H2009     1.0  0.02990  0.72325  0.89584  1.0000
  H   H2010     1.0  0.78884  0.93138  0.13856  1.0000
  Fe  Fe254     1.0  0.84056  0.92970  0.11826  1.0000
  C   C1257     1.0  0.70974  0.73518  0.78073  1.0000
  H   H2011     1.0  0.01282  0.80655  0.22025  1.0000
  C   C1258     1.0  0.03923  0.72141  0.85920  1.0000
  H   H2012     1.0  0.73816  0.76225  0.23533  1.0000
  H   H2013     1.0  0.70959  0.91390  0.91076  1.0000
  C   C1259     1.0  0.79478  0.68290  0.15893  1.0000
  C   C1260     1.0  0.94959  0.72288  0.73740  1.0000
  H   H2014     1.0  0.89219  0.72660  0.63324  1.0000
  C   C1261     1.0  0.84897  0.78546  0.57695  1.0000
  C   C1262     1.0  0.78279  0.86533  0.39861  1.0000
  H   H2015     1.0  0.95655  0.91020  0.27344  1.0000
  H   H2016     1.0  0.02024  0.90934  0.36983  1.0000
  S   S506      1.0  0.73514  0.89343  0.70291  1.0000
  H   H2017     1.0  0.74126  0.88873  0.25902  1.0000
  H   H2018     1.0  0.77381  0.81399  0.63106  1.0000
  C   C1263     1.0  0.88578  0.82399  0.48774  1.0000
  H   H2019     1.0  0.83031  0.72229  0.38791  1.0000
  H   H2020     1.0  0.91054  0.77268  0.40064  1.0000
  H   H2021     1.0  0.82143  0.69600  0.60769  1.0000
  C   C1264     1.0  0.91631  0.75828  0.43104  1.0000
  S   S507      1.0  0.77725  0.92560  0.52862  1.0000
  C   C1265     1.0  0.01853  0.75705  0.53025  1.0000
  C   C1266     1.0  0.94189  0.71621  0.33574  1.0000
  C   C1267     1.0  0.77998  0.89919  0.71112  1.0000
  H   H2022     1.0  0.03822  0.77218  0.51655  1.0000
  C   C1268     1.0  0.84024  0.73798  0.33373  1.0000
  H   H2023     1.0  0.86330  0.83960  0.65679  1.0000
  H   H2024     1.0  0.03331  0.77741  0.61549  1.0000
  H   H2025     1.0  0.93212  0.71007  0.38397  1.0000
  S   S508      1.0  0.97660  0.87620  0.34800  1.0000
  H   H2026     1.0  0.02320  0.70131  0.55713  1.0000
  C   C1269     1.0  0.96426  0.71746  0.32748  1.0000
  C   C1270     1.0  0.00711  0.89704  0.30052  1.0000
  C   C1271     1.0  0.02686  0.72319  0.52907  1.0000
  Fe  Fe255     1.0  0.77314  0.71267  0.61561  1.0000
  C   C1272     1.0  0.86167  0.78573  0.62454  1.0000
  N   N125      1.0  0.98013  0.80567  0.25046  1.0000
  C   C1273     1.0  0.86012  0.77426  0.35742  1.0000
  H   H2027     1.0  0.84384  0.69361  0.56730  1.0000
  C   C1274     1.0  0.72911  0.80665  0.62809  1.0000
  H   H2028     1.0  0.77230  0.85041  0.53477  1.0000
  H   H2029     1.0  0.89529  0.83840  0.43525  1.0000
  H   H2030     1.0  0.81464  0.90203  0.71764  1.0000
  S   S509      1.0  0.75789  0.69696  0.43023  1.0000
  C   C1275     1.0  0.74241  0.82535  0.46470  1.0000
  H   H2031     1.0  0.82901  0.73121  0.30386  1.0000
  N   N126      1.0  0.74906  0.82847  0.63405  1.0000
  S   S510      1.0  0.96159  0.79398  0.64022  1.0000
  H   H2032     1.0  0.73499  0.73577  0.31751  1.0000
  H   H2033     1.0  0.88976  0.87239  0.34144  1.0000
  S   S511      1.0  0.79932  0.72541  0.52541  1.0000
  C   C1276     1.0  0.02510  0.91127  0.32255  1.0000
  H   H2034     1.0  0.96451  0.74115  0.69401  1.0000
  H   H2035     1.0  0.98224  0.68646  0.61436  1.0000
  H   H2036     1.0  0.71661  0.78822  0.67795  1.0000
  C   C1277     1.0  0.71352  0.87411  0.51429  1.0000
  H   H2037     1.0  0.92888  0.85796  0.34147  1.0000
  H   H2038     1.0  0.94726  0.78915  0.43713  1.0000
  Fe  Fe256     1.0  0.82783  0.90459  0.26966  1.0000
  H   H2039     1.0  0.01014  0.80025  0.61740  1.0000
  C   C1278     1.0  0.98683  0.70867  0.58676  1.0000
  Fe  Fe257     1.0  0.75467  0.92842  0.59636  1.0000
  C   C1279     1.0  0.93076  0.72084  0.51267  1.0000
  H   H2040     1.0  0.75493  0.79821  0.71257  1.0000
  H   H2041     1.0  0.77762  0.87127  0.57069  1.0000
  H   H2042     1.0  0.87214  0.68983  0.66790  1.0000
  H   H2043     1.0  0.73610  0.79873  0.60320  1.0000
  C   C1280     1.0  0.71002  0.69215  0.30369  1.0000
  C   C1281     1.0  0.86634  0.85833  0.74092  1.0000
  S   S512      1.0  0.85638  0.89233  0.28196  1.0000
  H   H2044     1.0  0.71806  0.81442  0.59875  1.0000
  Fe  Fe258     1.0  0.93965  0.81440  0.59920  1.0000
  H   H2045     1.0  0.74032  0.71327  0.72095  1.0000
  S   S513      1.0  0.78394  0.75667  0.58336  1.0000
  C   C1282     1.0  0.71207  0.68655  0.47272  1.0000
  H   H2046     1.0  0.72683  0.84294  0.65648  1.0000
  H   H2047     1.0  0.82614  0.78607  0.32094  1.0000
  H   H2048     1.0  0.75106  0.86822  0.41564  1.0000
  C   C1283     1.0  0.90289  0.73019  0.45089  1.0000
  C   C1284     1.0  0.86114  0.80432  0.50829  1.0000
  S   S514      1.0  0.96397  0.75750  0.53940  1.0000
  C   C1285     1.0  0.02878  0.80899  0.61845  1.0000
  N   N127      1.0  0.84573  0.76616  0.31564  1.0000
  Fe  Fe259     1.0  0.75532  0.75185  0.53000  1.0000
  S   S515      1.0  0.02455  0.85103  0.61736  1.0000
  C   C1286     1.0  0.98819  0.81379  0.29921  1.0000
  C   C1287     1.0  0.93236  0.72336  0.28143  1.0000
  H   H2049     1.0  0.83008  0.76990  0.59336  1.0000
  Fe  Fe260     1.0  0.76881  0.72165  0.47943  1.0000
  C   C1288     1.0  0.79195  0.84741  0.41307  1.0000
  C   C1289     1.0  0.77647  0.81856  0.45388  1.0000
  H   H2050     1.0  0.75360  0.85098  0.68371  1.0000
  C   C1290     1.0  0.92551  0.71564  0.73650  1.0000
  S   S516      1.0  0.87443  0.71702  0.43741  1.0000
  C   C1291     1.0  0.75807  0.85437  0.42524  1.0000
  Fe  Fe261     1.0  0.80802  0.76889  0.48977  1.0000
  H   H2051     1.0  0.97897  0.82411  0.30744  1.0000
  N   N128      1.0  0.85681  0.71560  0.61822  1.0000
  C   C1292     1.0  0.89844  0.82434  0.53501  1.0000
  H   H2052     1.0  0.79478  0.68638  0.35652  1.0000
  S   S517      1.0  0.99861  0.83417  0.48655  1.0000
  H   H2053     1.0  0.98404  0.79522  0.34901  1.0000
  C   C1293     1.0  0.83751  0.69339  0.61220  1.0000
  C   C1294     1.0  0.90898  0.88978  0.31583  1.0000
  H   H2054     1.0  0.94341  0.79512  0.28478  1.0000
  H   H2055     1.0  0.91762  0.83944  0.51847  1.0000
  S   S518      1.0  0.97142  0.85816  0.54061  1.0000
  S   S519      1.0  0.84706  0.80302  0.44606  1.0000
  C   C1295     1.0  0.03992  0.83326  0.62070  1.0000
  C   C1296     1.0  0.76318  0.85414  0.56718  1.0000
  H   H2056     1.0  0.97174  0.71223  0.36943  1.0000
  S   S520      1.0  0.90402  0.80203  0.65931  1.0000
  H   H2057     1.0  0.81110  0.85579  0.39364  1.0000
  H   H2058     1.0  0.00988  0.72510  0.66414  1.0000
  H   H2059     1.0  0.78763  0.91892  0.66381  1.0000
  H   H2060     1.0  0.71440  0.81458  0.30749  1.0000
  H   H2061     1.0  0.92197  0.72867  0.69284  1.0000
  H   H2062     1.0  0.75420  0.90181  0.31071  1.0000
  H   H2063     1.0  0.84983  0.75980  0.41159  1.0000
  S   S521      1.0  0.74171  0.92249  0.39269  1.0000
  H   H2064     1.0  0.83166  0.71834  0.67363  1.0000
  H   H2065     1.0  0.02185  0.72701  0.48175  1.0000
  C   C1297     1.0  0.91087  0.71185  0.48897  1.0000
  S   S522      1.0  0.90531  0.72365  0.29165  1.0000
  H   H2066     1.0  0.81064  0.74911  0.37880  1.0000
  H   H2067     1.0  0.90142  0.83255  0.72195  1.0000
  C   C1298     1.0  0.94294  0.74833  0.49733  1.0000
  Fe  Fe262     1.0  0.97336  0.85062  0.45660  1.0000
  H   H2068     1.0  0.97599  0.71112  0.61893  1.0000
  S   S523      1.0  0.80275  0.90118  0.34572  1.0000
  H   H2069     1.0  0.86491  0.79567  0.34419  1.0000
  H   H2070     1.0  0.87722  0.77379  0.35116  1.0000
  C   C1299     1.0  0.93668  0.76744  0.45317  1.0000
  C   C1300     1.0  0.87766  0.71107  0.62532  1.0000
  C   C1301     1.0  0.02040  0.72253  0.63162  1.0000
  C   C1302     1.0  0.86473  0.74311  0.55739  1.0000
  H   H2071     1.0  0.78386  0.80497  0.46641  1.0000
  H   H2072     1.0  0.01719  0.70089  0.66146  1.0000
  S   S524      1.0  0.73241  0.77109  0.52554  1.0000
  H   H2073     1.0  0.87189  0.87516  0.68745  1.0000
  N   N129      1.0  0.01315  0.72785  0.56943  1.0000
  H   H2074     1.0  0.94871  0.76636  0.32408  1.0000
  Fe  Fe263     1.0  0.99354  0.83731  0.57639  1.0000
  C   C1303     1.0  0.75162  0.80740  0.47835  1.0000
  H   H2075     1.0  0.85718  0.73748  0.32406  1.0000
  S   S525      1.0  0.74200  0.70645  0.57179  1.0000
  H   H2076     1.0  0.98052  0.71282  0.54114  1.0000
  S   S526      1.0  0.78000  0.76656  0.43381  1.0000
  H   H2077     1.0  0.72277  0.88585  0.53669  1.0000
  C   C1304     1.0  0.88658  0.80470  0.60323  1.0000
  C   C1305     1.0  0.76527  0.81821  0.66360  1.0000
  C   C1306     1.0  0.84734  0.71476  0.67776  1.0000
  H   H2078     1.0  0.72352  0.80795  0.38225  1.0000
  H   H2079     1.0  0.87923  0.76039  0.56049  1.0000
  H   H2080     1.0  0.78004  0.83357  0.67152  1.0000
  C   C1307     1.0  0.72673  0.73976  0.27532  1.0000
  C   C1308     1.0  0.82277  0.76602  0.32722  1.0000
  H   H2081     1.0  0.86158  0.73099  0.68441  1.0000
  Fe  Fe264     1.0  0.96516  0.79228  0.54735  1.0000
  H   H2082     1.0  0.91844  0.88929  0.35507  1.0000
  H   H2083     1.0  0.87210  0.74445  0.51173  1.0000
  H   H2084     1.0  0.90092  0.69033  0.50346  1.0000
  H   H2085     1.0  0.93576  0.70605  0.54604  1.0000
  H   H2086     1.0  0.00833  0.76113  0.55929  1.0000
  C   C1309     1.0  0.85756  0.82385  0.71135  1.0000
  H   H2087     1.0  0.71861  0.68673  0.34451  1.0000
  H   H2088     1.0  0.86049  0.80681  0.71665  1.0000
  H   H2089     1.0  0.00810  0.82864  0.28171  1.0000
  S   S527      1.0  0.93999  0.80836  0.51290  1.0000
  H   H2090     1.0  0.01308  0.76176  0.48329  1.0000
  H   H2091     1.0  0.90418  0.86579  0.66639  1.0000
  H   H2092     1.0  0.85241  0.77047  0.67743  1.0000
  H   H2093     1.0  0.92992  0.85825  0.26497  1.0000
  H   H2094     1.0  0.84938  0.74706  0.54973  1.0000
  H   H2095     1.0  0.90111  0.84260  0.32301  1.0000
  C   C1310     1.0  0.75812  0.90401  0.26136  1.0000
  C   C1311     1.0  0.79527  0.88969  0.74166  1.0000
  C   C1312     1.0  0.73897  0.83483  0.67761  1.0000
  H   H2096     1.0  0.84098  0.69412  0.72438  1.0000
  H   H2097     1.0  0.75142  0.86182  0.54112  1.0000
  C   C1313     1.0  0.75487  0.88311  0.74180  1.0000
  C   C1314     1.0  0.71899  0.88726  0.44455  1.0000
  H   H2098     1.0  0.81256  0.76285  0.29166  1.0000
  H   H2099     1.0  0.72324  0.81683  0.48470  1.0000
  H   H2100     1.0  0.71064  0.88209  0.36214  1.0000
  H   H2101     1.0  0.98942  0.77341  0.28957  1.0000
  H   H2102     1.0  0.90890  0.90973  0.29139  1.0000
  H   H2103     1.0  0.04003  0.73720  0.62051  1.0000
  N   N130      1.0  0.72501  0.72181  0.24939  1.0000
  H   H2104     1.0  0.83767  0.81455  0.73086  1.0000
  S   S528      1.0  0.00527  0.72783  0.25582  1.0000
  H   H2105     1.0  0.72061  0.70828  0.45759  1.0000
  C   C1315     1.0  0.97699  0.72556  0.26506  1.0000
  H   H2106     1.0  0.75915  0.72511  0.26373  1.0000
  H   H2107     1.0  0.72837  0.81596  0.72882  1.0000
  C   C1316     1.0  0.92021  0.86035  0.30027  1.0000
  H   H2108     1.0  0.88581  0.71287  0.58011  1.0000
  C   C1317     1.0  0.89740  0.84846  0.71981  1.0000
  H   H2109     1.0  0.77190  0.89775  0.26013  1.0000
  C   C1318     1.0  0.95366  0.78594  0.27585  1.0000
  C   C1319     1.0  0.72551  0.71550  0.73543  1.0000
  N   N131      1.0  0.92111  0.88750  0.26624  1.0000
  H   H2110     1.0  0.03249  0.82324  0.74554  1.0000
  H   H2111     1.0  0.90824  0.85698  0.74787  1.0000
  C   C1320     1.0  0.04191  0.79613  0.61683  1.0000
  N   N132      1.0  0.87116  0.83630  0.74796  1.0000
  H   H2112     1.0  0.80237  0.68256  0.28867  1.0000
