data_image0
_chemical_formula_structural       FeS2FeS2FeSFeS3FeS2FeS2FeSFeS3FeS2FeS2FeSFeS3FeS2FeS2FeSFeS3FeS2FeS2FeSFeS3FeS2FeS2FeSFeS3FeS2FeS2FeSFeS3FeS2FeS2FeSFeS3C6H4C6H4C6H4C6H4C6H4C6H4C6H4C6H4C6H4C6H4C6H4C6H4C6H4C6H4C6H4C6H4NC4H12NC4H12NC4H12NC4H12NC4H12NC4H12NC4H12NC4H12NC4H12NC4H12NC4H12NC4H12NC4H12NC4H12NC4H12NC4H12
_chemical_formula_sum              "Fe32 S64 C160 H256 N16"
_cell_length_a       26.77538725615409
_cell_length_b       23.176923028989624
_cell_length_c       26.181660276449495
_cell_angle_alpha    90.06436798808681
_cell_angle_beta     90.02870446000259
_cell_angle_gamma    90.6948815113495

_space_group_name_H-M_alt    "P 1"
_space_group_IT_number       1

loop_
  _space_group_symop_operation_xyz
  'x, y, z'

loop_
  _atom_site_type_symbol
  _atom_site_label
  _atom_site_symmetry_multiplicity
  _atom_site_fract_x
  _atom_site_fract_y
  _atom_site_fract_z
  _atom_site_occupancy
  Fe  Fe1       1.0  0.9867175422625006  0.6750544588810523  0.9196182859597025  1.0000
  S   S1        1.0  0.9316957611365871  0.7428957615779934  0.9408359405353712  1.0000
  S   S2        1.0  0.06874218528761378  0.6896307325191625  0.9291894241496764  1.0000
  Fe  Fe2       1.0  0.9076015784475345  0.5912038582522567  0.8831261261308088  1.0000
  S   S3        1.0  0.8446500068229338  0.6505764570395536  0.9015155374071344  1.0000
  S   S4        1.0  0.8988815961370721  0.4994288101021047  0.8572557558592131  1.0000
  Fe  Fe3       1.0  0.8942400538759953  0.7189689026181463  0.867262361193232  1.0000
  S   S5        1.0  0.8658585653830569  0.7907191989983268  0.8184699870542966  1.0000
  Fe  Fe4       1.0  0.8871908194647327  0.6696162204642828  0.9732381611576894  1.0000
  S   S6        1.0  0.8440586141884284  0.6818430156667947  0.04559500544080386  1.0000
  S   S7        1.0  0.9539049201299951  0.6582333522590378  0.8424548808457057  1.0000
  S   S8        1.0  0.9455273819324997  0.603097837368825  0.9584874808983495  1.0000
  Fe  Fe5       1.0  0.06807043060454333  0.9332538510981182  0.19525484285473457  1.0000
  S   S9        1.0  0.13763574104917708  0.9871924115523478  0.20251935021256695  1.0000
  S   S10       1.0  0.9930517982834993  0.9746687826346935  0.2021090979747866  1.0000
  Fe  Fe6       1.0  0.1245642801122958  0.8236173672806739  0.17441887208268375  1.0000
  S   S11       1.0  0.1994863395845715  0.8665989601997642  0.1790758691721241  1.0000
  S   S12       1.0  0.11211549290849875  0.7288084223963481  0.16349637822390092  1.0000
  Fe  Fe7       1.0  0.16752595647140034  0.912673789166038  0.2468515114805209  1.0000
  S   S13       1.0  0.20642627979297518  0.9204895537428687  0.3223071600400298  1.0000
  Fe  Fe8       1.0  0.1638010302322785  0.9375188064208138  0.13419437145036534  1.0000
  S   S14       1.0  0.2027063138386261  0.9779936596158063  0.06705293955861258  1.0000
  S   S15       1.0  0.09555760090874782  0.8630444498531323  0.2462618490759708  1.0000
  S   S16       1.0  0.09117514866219233  0.8898686117278561  0.1228350684968442  1.0000
  Fe  Fe9       1.0  0.3830412670324274  0.20931587337447422  0.05718072123976459  1.0000
  S   S17       1.0  0.45784102866365006  0.18733205093988148  0.08946066860938218  1.0000
  S   S18       1.0  0.31832849786344813  0.2108745260017928  0.11118996668804071  1.0000
  Fe  Fe10      1.0  0.4235056183959282  0.2267716324348208  0.9501957670633749  1.0000
  S   S19       1.0  0.5021092005256756  0.20742886972771823  0.9734415931536977  1.0000
  S   S20       1.0  0.4069132515837869  0.24423729579948406  0.867714118465047  1.0000
  Fe  Fe11      1.0  0.46683989531648723  0.13503423596520325  0.018135593041618492  1.0000
  S   S21       1.0  0.49976009294007206  0.04622100643872762  0.020029740991438283  1.0000
  Fe  Fe12      1.0  0.48526391810528585  0.26163691229650743  0.042067720682714915  1.0000
  S   S22       1.0  0.5295895398574737  0.33621209266604124  0.07318605565619274  1.0000
  S   S23       1.0  0.38929907271149544  0.15050392470458873  0.9897036231205367  1.0000
  S   S24       1.0  0.4094928263351453  0.28752794816519045  0.014949241522846712  1.0000
  Fe  Fe13      1.0  0.8312813807713767  0.45450450636449097  0.2352335509091041  1.0000
  S   S25       1.0  0.7628077048856559  0.44167562614784944  0.18749258409751243  1.0000
  S   S26       1.0  0.9018118782662745  0.483786999475931  0.19701711173657194  1.0000
  Fe  Fe14      1.0  0.7792359998359635  0.421246704323498  0.3330087400008255  1.0000
  S   S27       1.0  0.7054586391016071  0.4055975832915721  0.29498697017178543  1.0000
  S   S28       1.0  0.7916262520769362  0.4080022585481706  0.416677899104934  1.0000
  Fe  Fe15      1.0  0.7505597281466345  0.3620722693778175  0.23436330304772798  1.0000
  S   S29       1.0  0.724661768085302  0.27946349929220754  0.19769012074223322  1.0000
  Fe  Fe16      1.0  0.7235709128893917  0.48650302783987803  0.25131525317727  1.0000
  S   S30       1.0  0.6705547594115553  0.5580044273530791  0.23375529651064333  1.0000
  S   S31       1.0  0.8232653247165421  0.37017089040995754  0.27629030469509885  1.0000
  S   S32       1.0  0.79338975632177  0.5066319179575444  0.29548741842493  1.0000
  Fe  Fe17      1.0  0.33594271406380716  0.6031979926901366  0.3948984115618321  1.0000
  S   S33       1.0  0.40161785012116263  0.546317692411057  0.40892231983641625  1.0000
  S   S34       1.0  0.2585633040479657  0.5873663838127532  0.42595033162411994  1.0000
  Fe  Fe18      1.0  0.3974278115856139  0.6906347279706898  0.33558963003315434  1.0000
  S   S35       1.0  0.468529039230868  0.641412948161262  0.3446234764859488  1.0000
  S   S36       1.0  0.396579382254146  0.7701942074581715  0.28685597470613156  1.0000
  Fe  Fe19      1.0  0.4206232898731235  0.5639500202327148  0.3271272399916328  1.0000
  S   S37       1.0  0.4473162238514542  0.4909175551071273  0.2784018361024286  1.0000
  Fe  Fe20      1.0  0.4433307539577589  0.6282797473620803  0.4250348626178807  1.0000
  S   S38       1.0  0.4969696738595973  0.6279301855611932  0.4907521399128891  1.0000
  S   S39       1.0  0.3513160005217348  0.6139442020817097  0.3112753697552463  1.0000
  S   S40       1.0  0.3760590520002969  0.6845576000164586  0.41821901356465674  1.0000
  Fe  Fe21      1.0  0.5997298012791846  0.8263798936862963  0.7456323717817092  1.0000
  S   S41       1.0  0.5195583748408249  0.8187177122537244  0.7212450447536664  1.0000
  S   S42       1.0  0.6397994426588075  0.7455195189906464  0.7667022705722618  1.0000
  Fe  Fe22      1.0  0.603471990160984  0.9557851832966183  0.7313309001408052  1.0000
  S   S43       1.0  0.524084118328838  0.9586076040576911  0.7061033331258513  1.0000
  S   S44       1.0  0.6427660044085114  0.0414297006451938  0.7293048241562275  1.0000
  Fe  Fe23      1.0  0.509692333348749  0.8970856604612436  0.7702981783958516  1.0000
  S   S45       1.0  0.4419922954605991  0.9128815320876117  0.8186540159590512  1.0000
  Fe  Fe24      1.0  0.5424880500467417  0.8808607215979267  0.6598197714935351  1.0000
  S   S46       1.0  0.5199101708979847  0.88070075888192  0.5774865114854509  1.0000
  S   S47       1.0  0.588418341930645  0.900381121659324  0.7997227258015925  1.0000
  S   S48       1.0  0.6236079442611174  0.8822976453642436  0.6800161378923109  1.0000
  Fe  Fe25      1.0  0.8147365613066091  0.09799026968372715  0.4805579258112342  1.0000
  S   S49       1.0  0.8762517225507251  0.08248737952776275  0.42446847085086586  1.0000
  S   S50       1.0  0.7459572840741395  0.14457051878033522  0.45573912273065625  1.0000
  Fe  Fe26      1.0  0.8645978708126252  0.03074287840538381  0.5639729956973984  1.0000
  S   S51       1.0  0.9308867268583294  0.009080141350554571  0.5160546037374112  1.0000
  S   S52       1.0  0.8572107971295867  0.9931562491793907  0.6419446127936211  1.0000
  Fe  Fe27      1.0  0.9266695194992646  0.10091996758219612  0.4906429891822128  1.0000
  S   S53       1.0  0.9957527088770062  0.15366521686596424  0.4772476793412584  1.0000
  Fe  Fe28      1.0  0.8747657998859479  0.9920685932689033  0.4545088921359658  1.0000
  S   S54       1.0  0.8846033587188258  0.9119957873906327  0.40807584491741616  1.0000
  S   S55       1.0  0.8654307449985165  0.12492500158708997  0.544834214364064  1.0000
  S   S56       1.0  0.8084074046398294  0.005444314665347338  0.504632284669531  1.0000
  Fe  Fe29      1.0  0.13453317031674475  0.28693646540627005  0.6862612484490224  1.0000
  S   S57       1.0  0.21450315246579332  0.3077167420213691  0.7026784897982296  1.0000
  S   S58       1.0  0.10308963337928743  0.19708329983677617  0.6877909543462902  1.0000
  Fe  Fe30      1.0  0.10479806986572664  0.4120830746015589  0.681316774565045  1.0000
  S   S59       1.0  0.1824423209928824  0.44541435733915474  0.6970054585349376  1.0000
  S   S60       1.0  0.04077659670613553  0.4715705319872788  0.6670072154198736  1.0000
  Fe  Fe31      1.0  0.2058257059135787  0.3759286016134657  0.6425639038506263  1.0000
  S   S61       1.0  0.267800959782913  0.3848633292806462  0.5855423816238959  1.0000
  Fe  Fe32      1.0  0.18469647854306415  0.37505735721002503  0.7555288772839731  1.0000
  S   S62       1.0  0.21050123052246342  0.3873460786232547  0.8362887489052477  1.0000
  S   S63       1.0  0.1278602358053888  0.34909241587489487  0.6211678976837861  1.0000
  S   S64       1.0  0.10509800679141063  0.34777273595336344  0.744811137532608  1.0000
  C   C1        1.0  0.0767317843142335  0.1800375099066056  0.6284008524858882  1.0000
  C   C2        1.0  0.09546967023686803  0.20543205201087741  0.5837975926851048  1.0000
  C   C3        1.0  0.07133660062098768  0.19589328155857766  0.5369770720647757  1.0000
  C   C4        1.0  0.028401587118471072  0.16104629476056687  0.5348125658036432  1.0000
  C   C5        1.0  0.010241535339829522  0.1346506893258368  0.5792173021023543  1.0000
  C   C6        1.0  0.03459912986075352  0.1438751354880654  0.6259590328865313  1.0000
  H   H1        1.0  0.12881909723117335  0.23210781487841028  0.5852870606360538  1.0000
  H   H2        1.0  0.08558981414001865  0.21617748474919884  0.502649982039673  1.0000
  H   H3        1.0  0.9769624578214323  0.10784956307904303  0.5778750762127579  1.0000
  H   H4        1.0  0.019904268638608835  0.12435598567643757  0.6604438681937043  1.0000
  C   C7        1.0  0.7034229715108333  0.030051341381307495  0.7071901550897168  1.0000
  C   C8        1.0  0.7286739991066247  0.9801775595043601  0.721373069033532  1.0000
  C   C9        1.0  0.776560454389675  0.9697851734461623  0.7022600193765964  1.0000
  C   C10       1.0  0.7984229211556483  0.008196131738528178  0.6674409059979777  1.0000
  C   C11       1.0  0.7728134165270485  0.05768855594819167  0.6525298205040252  1.0000
  C   C12       1.0  0.7256486205901886  0.06919792621787502  0.6732066316449358  1.0000
  H   H5        1.0  0.7115396299065636  0.9500737307565634  0.7477516953991741  1.0000
  H   H6        1.0  0.7962420570097155  0.9315876683381272  0.713948625762504  1.0000
  H   H7        1.0  0.7896926456235919  0.08758643715976389  0.6257905081097184  1.0000
  H   H8        1.0  0.7060541162677917  0.10778390526307957  0.6621454630576343  1.0000
  C   C13       1.0  0.2560215420441493  0.5270489994240328  0.46650202758015774  1.0000
  C   C14       1.0  0.29044459976413434  0.4827521612770426  0.4607395946753631  1.0000
  C   C15       1.0  0.29239704128328164  0.43802508079635105  0.49653568408233534  1.0000
  C   C16       1.0  0.2594187073153336  0.43686834716186923  0.5379118707085019  1.0000
  C   C17       1.0  0.22305086422450549  0.47947107531310845  0.5424220128516318  1.0000
  C   C18       1.0  0.2214825172380375  0.5247304010944677  0.5067162487511456  1.0000
  H   H9        1.0  0.3154200179604482  0.482608691381379  0.42846879027926776  1.0000
  H   H10       1.0  0.319965837157341  0.4045505843843752  0.4924824994423905  1.0000
  H   H11       1.0  0.19729659347299539  0.4785864041165986  0.5742524104096806  1.0000
  H   H12       1.0  0.19445550547656706  0.5587022907646092  0.5111032413703827  1.0000
  C   C19       1.0  0.5055578649498899  0.6982972359361843  0.5138351051616566  1.0000
  C   C20       1.0  0.4889028501486247  0.7452759354819889  0.4853490579253002  1.0000
  C   C21       1.0  0.49396154202112935  0.8013653665120175  0.5048662311052337  1.0000
  C   C22       1.0  0.515368383475117  0.8104874577599105  0.5530063553669515  1.0000
  C   C23       1.0  0.5328130834137983  0.7635605369550754  0.5811644965455962  1.0000
  C   C24       1.0  0.5280934361260047  0.7074408124314492  0.5614559309945554  1.0000
  H   H13       1.0  0.4722961302971926  0.7386305092226629  0.44814368073351196  1.0000
  H   H14       1.0  0.48069572921191533  0.8376318330703619  0.48290313745783847  1.0000
  H   H15       1.0  0.5499927314546428  0.7704801704479044  0.6180865058861282  1.0000
  H   H16       1.0  0.5413967593339224  0.6712324999315294  0.5834312476480998  1.0000
  C   C25       1.0  0.7564004901117974  0.219178306946064  0.4501737175134424  1.0000
  C   C26       1.0  0.7218240008756885  0.2527924677547593  0.4238284342507999  1.0000
  C   C27       1.0  0.7324923299802261  0.31099355281793767  0.4136124353178863  1.0000
  C   C28       1.0  0.7768659548162469  0.3362324790549273  0.4315116726950792  1.0000
  C   C29       1.0  0.8105817150369491  0.30325740788088246  0.45955863244784545  1.0000
  C   C30       1.0  0.8007096492745138  0.24454301090305  0.46824366078545615  1.0000
  H   H17       1.0  0.6874029288763762  0.23347208142158338  0.40996036508648925  1.0000
  H   H18       1.0  0.7061571433606427  0.3364825547476636  0.3922909049726576  1.0000
  H   H19       1.0  0.8450239983804323  0.32276293822594804  0.4730270741503251  1.0000
  H   H20       1.0  0.8277566286911247  0.21890256417584508  0.4881755523731196  1.0000
  C   C31       1.0  0.5076016629352158  0.5076558410992226  0.256887066593208  1.0000
  C   C32       1.0  0.5436858674587788  0.4645917029898427  0.25458696606159037  1.0000
  C   C33       1.0  0.5936609211315055  0.47940453076022105  0.24467182181383668  1.0000
  C   C34       1.0  0.607499834953387  0.5371377722330747  0.2370306807596067  1.0000
  C   C35       1.0  0.5708256654533505  0.5795608939927827  0.23607974072679977  1.0000
  C   C36       1.0  0.5209102323582525  0.5648158665155092  0.2460423833038416  1.0000
  H   H21       1.0  0.5335118540927439  0.4201790003751236  0.26253363550976316  1.0000
  H   H22       1.0  0.6214285669518039  0.4462217449389574  0.24380071798970274  1.0000
  H   H23       1.0  0.5812149032557689  0.6241738203889641  0.2293117579312941  1.0000
  H   H24       1.0  0.49277760303241414  0.59787022466905  0.2457820424911154  1.0000
  C   C37       1.0  0.35469815020215784  0.28839998239261533  0.8602504856566635  1.0000
  C   C38       1.0  0.34241383412411935  0.30896230255367296  0.8116730167948925  1.0000
  C   C39       1.0  0.29895615281249643  0.3411269330423636  0.8045198200610668  1.0000
  C   C40       1.0  0.26763641071218625  0.35273989284012586  0.8458976419243367  1.0000
  C   C41       1.0  0.2804542356981867  0.33331265600635096  0.894706328076517  1.0000
  C   C42       1.0  0.32376440173259236  0.300807345302403  0.9018216999888037  1.0000
  H   H25       1.0  0.3663478053204887  0.2997362936432495  0.7794598016396376  1.0000
  H   H26       1.0  0.2900332900573466  0.3573822437594466  0.767001983314395  1.0000
  H   H27       1.0  0.25626445117672353  0.3420927732314366  0.9268171432620986  1.0000
  H   H28       1.0  0.33243482581016437  0.2842134111556109  0.9392406038189227  1.0000
  C   C43       1.0  0.4815993310088241  0.0043312106521504745  0.9672744380593291  1.0000
  C   C44       1.0  0.43475762483979014  0.011568748019321395  0.9447789446140759  1.0000
  C   C45       1.0  0.42176537054641433  0.9808121097105844  0.9006161183023706  1.0000
  C   C46       1.0  0.4560254102772064  0.9435339835167886  0.8781743012902553  1.0000
  C   C47       1.0  0.5018855484089368  0.9338751954833406  0.902110295355774  1.0000
  C   C48       1.0  0.5145460099555295  0.963988618755382  0.94689102514216  1.0000
  H   H29       1.0  0.40825193721667435  0.040511235094413456  0.9613490874485944  1.0000
  H   H30       1.0  0.38581742228418486  0.987440404744799  0.8827707277809707  1.0000
  H   H31       1.0  0.5275057220121938  0.9031489822963096  0.8862562297031419  1.0000
  H   H32       1.0  0.5504618740017115  0.9573546713841484  0.9647772691426963  1.0000
  C   C49       1.0  0.5825424325134094  0.3183169330033202  0.10872021589686498  1.0000
  C   C50       1.0  0.6071577870293694  0.36184376074981917  0.1362332285860394  1.0000
  C   C51       1.0  0.6502308621179483  0.34940400895875523  0.16413579738569514  1.0000
  C   C52       1.0  0.6693022091760122  0.29355388383959025  0.1642607083514259  1.0000
  C   C53       1.0  0.6444315837650525  0.24963646304004058  0.13715482625286524  1.0000
  C   C54       1.0  0.6007906661793652  0.2619658743664537  0.10950833858449505  1.0000
  H   H33       1.0  0.5929051300986091  0.40536698773057456  0.13602423331522426  1.0000
  H   H34       1.0  0.6685984259838296  0.3833083085131164  0.18544174998123666  1.0000
  H   H35       1.0  0.6589764684526791  0.20630384016110348  0.13726629078930386  1.0000
  H   H36       1.0  0.5817616056790272  0.22819841070129332  0.08826368948248198  1.0000
  C   C55       1.0  0.9603750888449647  0.9551038718255416  0.2573690898989162  1.0000
  C   C56       1.0  0.9256247322497675  0.9931111722985687  0.2780584594480039  1.0000
  C   C57       1.0  0.9014126117609845  0.9794429136443341  0.32397531770596893  1.0000
  C   C58       1.0  0.9115724359128142  0.9275646548604508  0.3488691153924557  1.0000
  C   C59       1.0  0.9448655747204686  0.8885975389239077  0.3271323204152919  1.0000
  C   C60       1.0  0.9694903084955216  0.9025833372116635  0.2815739812758185  1.0000
  H   H37       1.0  0.9180344612155801  0.03341315055058214  0.2589273242807641  1.0000
  H   H38       1.0  0.8742391762987283  0.008413366915953624  0.33967293013051797  1.0000
  H   H39       1.0  0.9523307784067704  0.8481447157771287  0.346125252846276  1.0000
  H   H40       1.0  0.9951220709659717  0.8725058099507423  0.2651058480866081  1.0000
  C   C61       1.0  0.2296689500972933  0.0458147723292075  0.07984218229626094  1.0000
  C   C62       1.0  0.23648812432697  0.0651103819736576  0.13006171657205698  1.0000
  C   C63       1.0  0.2615739828636166  0.11751512806011588  0.1396188461601081  1.0000
  C   C64       1.0  0.28051681684393337  0.1502264168693186  0.09897973780283387  1.0000
  C   C65       1.0  0.27271296579569554  0.13159013649414852  0.04873992909816849  1.0000
  C   C66       1.0  0.24747091520604492  0.07935979831132522  0.0391829122283629  1.0000
  H   H41       1.0  0.22411712167004155  0.03886138781768289  0.16167553668808482  1.0000
  H   H42       1.0  0.2679413288502553  0.13157684098089484  0.17853514940004864  1.0000
  H   H43       1.0  0.2861631028639117  0.15750019513473212  0.01724313674928113  1.0000
  H   H44       1.0  0.24225061732144776  0.06457882080463162  0.00031703707203623033  1.0000
  C   C67       1.0  0.26472353894294653  0.8876747459029457  0.31630771943656216  1.0000
  C   C68       1.0  0.2899194699204701  0.8895336383786586  0.2695856138878516  1.0000
  C   C69       1.0  0.33176366965592446  0.8549697612360659  0.26164243807355997  1.0000
  C   C70       1.0  0.34820226658460074  0.8180978274464686  0.30023558479703527  1.0000
  C   C71       1.0  0.32465133201035973  0.8185363360999692  0.34792371191576804  1.0000
  C   C72       1.0  0.2833554141801251  0.8541178687206751  0.35621950304081557  1.0000
  H   H45       1.0  0.27677203157127944  0.9172021080657389  0.23939791853073028  1.0000
  H   H46       1.0  0.35047692965817734  0.8552350989446683  0.225069782251033  1.0000
  H   H47       1.0  0.33808961226806583  0.7914158446097722  0.3783158752874204  1.0000
  H   H48       1.0  0.26451165495877166  0.8535326730997077  0.392763445157301  1.0000
  C   C73       1.0  0.9338020836423975  0.4891800597619946  0.8014155065788429  1.0000
  C   C74       1.0  0.9399985264953897  0.5342557607202736  0.7664669844496738  1.0000
  C   C75       1.0  0.9718186339732184  0.5278589751203663  0.7244097280337696  1.0000
  C   C76       1.0  0.9978655199738514  0.4765209936477811  0.7174096174033224  1.0000
  C   C77       1.0  0.9898234911603918  0.4304156157764325  0.7510057082665048  1.0000
  C   C78       1.0  0.9577249243578791  0.4366976634073879  0.7929408865631097  1.0000
  H   H49       1.0  0.9198519201287448  0.5739297888595783  0.7715430684239711  1.0000
  H   H50       1.0  0.9770243991420469  0.5631971336594811  0.6978795180629543  1.0000
  H   H51       1.0  0.008089788590939893  0.3898691792740008  0.7448277823973348  1.0000
  H   H52       1.0  0.9523642417803414  0.40139055420566305  0.8194642414849488  1.0000
  C   C79       1.0  0.8884532183822503  0.5443541388720734  0.15993772066478987  1.0000
  C   C80       1.0  0.8416116470217662  0.5702089815275496  0.1632202948588688  1.0000
  C   C81       1.0  0.828854864074279  0.6143918934358662  0.12937955302518533  1.0000
  C   C82       1.0  0.862649644735337  0.6320198032004035  0.09170076123147886  1.0000
  C   C83       1.0  0.9103018307793467  0.6080734028040411  0.08993070988646523  1.0000
  C   C84       1.0  0.9233308201435392  0.5644510763966141  0.12423719691715275  1.0000
  H   H53       1.0  0.8147842039400791  0.5556736653150922  0.1913376037544765  1.0000
  H   H54       1.0  0.792123893738229  0.6332951164082246  0.13136150435360738  1.0000
  H   H55       1.0  0.9372913469138848  0.6231446980030301  0.06234635441851166  1.0000
  H   H56       1.0  0.9598458616570896  0.5450314934114497  0.12210308711250568  1.0000
  C   C85       1.0  0.8044381257996651  0.7776914242786063  0.7986008910705946  1.0000
  C   C86       1.0  0.7856475560566172  0.7212848297390877  0.795731169953988  1.0000
  C   C87       1.0  0.7352443459980145  0.7114759727170805  0.7839701563234851  1.0000
  C   C88       1.0  0.7037339175813739  0.7580556098853981  0.7749117863465115  1.0000
  C   C89       1.0  0.722935999836866  0.8143778180642396  0.7758612715983924  1.0000
  C   C90       1.0  0.7734165651394348  0.8242190766516598  0.7875675868225988  1.0000
  H   H57       1.0  0.8099056091668796  0.6851609871508543  0.8024075505297616  1.0000
  H   H58       1.0  0.7204642766645114  0.6678236401907148  0.7825222828737685  1.0000
  H   H59       1.0  0.6985241833558459  0.8503357821690676  0.7690345080780691  1.0000
  H   H60       1.0  0.7879113345804244  0.867933057377314  0.789894790888797  1.0000
  C   C91       1.0  0.10218039111136082  0.7159493103975334  0.09835096008955735  1.0000
  C   C92       1.0  0.12355347425005109  0.7527809559386788  0.061942816164073385  1.0000
  C   C93       1.0  0.1142051792162708  0.7436681475414101  0.009846351733618919  1.0000
  C   C94       1.0  0.0822101331452878  0.6988777779114337  0.9942228053107791  1.0000
  C   C95       1.0  0.060518998030211435  0.6622525999366822  0.030701582071139155  1.0000
  C   C96       1.0  0.07116344667219554  0.6702100612004867  0.08272496260683604  1.0000
  H   H61       1.0  0.14780290151321065  0.7879946943791322  0.07381153459748435  1.0000
  H   H62       1.0  0.13096313497254883  0.7721101224653967  0.9817410634518783  1.0000
  H   H63       1.0  0.03626986491869122  0.6271695002193238  0.018827040663659922  1.0000
  H   H64       1.0  0.05461555392026418  0.6416259495497779  0.11084214747591048  1.0000
  N   N1        1.0  0.36772262499033004  0.9610875737139154  0.09201509024528831  1.0000
  C   C97       1.0  0.376155641823285  0.02422778396968872  0.09291116404516764  1.0000
  C   C98       1.0  0.3431247052661195  0.9443703019879384  0.043540780601055484  1.0000
  C   C99       1.0  0.33536986496896615  0.9441243888149365  0.13536767530492466  1.0000
  C   C100      1.0  0.4162488426960737  0.9316948167197983  0.09616077486217889  1.0000
  H   H65       1.0  0.39972964530639277  0.03863429293932885  0.06028283529695244  1.0000
  H   H66       1.0  0.3952803788431335  0.0384599289743639  0.12858702803197453  1.0000
  H   H67       1.0  0.34041949331467103  0.04782174720622678  0.09044463960152194  1.0000
  H   H68       1.0  0.3071748161452896  0.9672751593127968  0.03835498398304038  1.0000
  H   H69       1.0  0.3670545302377783  0.9548180913666469  0.010040067075855585  1.0000
  H   H70       1.0  0.3345607732981893  0.8972854958612645  0.04227957785971159  1.0000
  H   H71       1.0  0.2981268733995512  0.9647628899211942  0.13274768743486143  1.0000
  H   H72       1.0  0.3522324790581012  0.9569654551594595  0.17262996763817173  1.0000
  H   H73       1.0  0.32864192121168645  0.8966487673348141  0.13621858442468615  1.0000
  H   H74       1.0  0.4357758119074888  0.9432630902861332  0.13237494361723834  1.0000
  H   H75       1.0  0.4416640774183429  0.9441166198291642  0.06417102250338402  1.0000
  H   H76       1.0  0.41146953419337756  0.8839330569615159  0.09525432709431958  1.0000
  N   N2        1.0  0.512723495925286  0.10797450456517055  0.8153441032608727  1.0000
  C   C101      1.0  0.5365728670412246  0.1610352171391669  0.8357289612469675  1.0000
  C   C102      1.0  0.5411426010334363  0.057165590999265437  0.8322594285872679  1.0000
  C   C103      1.0  0.512191392524002  0.11034779070804523  0.758947396241841  1.0000
  C   C104      1.0  0.46091593507614015  0.10332011245066108  0.83445135921591  1.0000
  H   H77       1.0  0.5144119414554486  0.20002916366814616  0.8262600145460255  1.0000
  H   H78       1.0  0.574926758251734  0.16726268487078721  0.8200857271244296  1.0000
  H   H79       1.0  0.5398401738889153  0.15924915190475053  0.8780335092392628  1.0000
  H   H80       1.0  0.5415616695310016  0.05361863743138806  0.874655883958587  1.0000
  H   H81       1.0  0.5245242200175259  0.01642459053472911  0.8169277638590665  1.0000
  H   H82       1.0  0.5806553478767567  0.059472984460298806  0.8191293981048713  1.0000
  H   H83       1.0  0.5508182276040584  0.11109361402175155  0.7430963650705433  1.0000
  H   H84       1.0  0.4928043534654034  0.14951999476993239  0.7450000091460793  1.0000
  H   H85       1.0  0.4924702579380499  0.07211464829753855  0.7424878336655035  1.0000
  H   H86       1.0  0.4425794992707925  0.06242081220150797  0.8215809261650676  1.0000
  H   H87       1.0  0.4377824042185239  0.13963790946880605  0.820570917354874  1.0000
  H   H88       1.0  0.4597648534193868  0.10431923634649731  0.8769522808734547  1.0000
  N   N3        1.0  0.20431888434585632  0.7011702999692547  0.3053835849529589  1.0000
  C   C105      1.0  0.2275980330163545  0.7112259540027885  0.3558339743957999  1.0000
  C   C106      1.0  0.23351967494156844  0.7316453194340609  0.26554726468993844  1.0000
  C   C107      1.0  0.15278764180113713  0.7232817323039599  0.3059914599474938  1.0000
  C   C108      1.0  0.20321944943433667  0.6386167215899842  0.2942953871728139  1.0000
  H   H89       1.0  0.20761086711815824  0.6870354603882746  0.3864900394193874  1.0000
  H   H90       1.0  0.22699636396331857  0.757574736274971  0.3664376633784212  1.0000
  H   H91       1.0  0.26721061733669726  0.6971556907662231  0.3563918667130108  1.0000
  H   H92       1.0  0.21709674451022365  0.7245734768760529  0.22687944012856012  1.0000
  H   H93       1.0  0.23450153726258827  0.7789937160636469  0.2724779719620609  1.0000
  H   H94       1.0  0.2730037145429416  0.7169656884105753  0.2645853170777669  1.0000
  H   H95       1.0  0.1338094449791345  0.7157061441203225  0.26873701346234596  1.0000
  H   H96       1.0  0.15246006737016216  0.7706133360434269  0.313478200897057  1.0000
  H   H97       1.0  0.12987516718078806  0.7017283896776052  0.3360272917260156  1.0000
  H   H98       1.0  0.18545825783050618  0.6294038662635542  0.2566207495524309  1.0000
  H   H99       1.0  0.1820828606736804  0.6142088482628225  0.32406816916995734  1.0000
  H   H100      1.0  0.24155381729820258  0.6206706741741272  0.2935145162980277  1.0000
  N   N4        1.0  0.9489155368770037  0.7827903724590777  0.1440453299390848  1.0000
  C   C109      1.0  0.9391435156872375  0.8453780201978787  0.14165739171982447  1.0000
  C   C110      1.0  0.9640891411275289  0.7619811509194654  0.09300979755206074  1.0000
  C   C111      1.0  0.903194011323682  0.7517576537690677  0.1606412422047625  1.0000
  C   C112      1.0  0.989378886267358  0.7719347835749616  0.18102067113092318  1.0000
  H   H101      1.0  0.9279713651344256  0.8627427466746616  0.17958779346110795  1.0000
  H   H102      1.0  0.9087428118935083  0.8551041003599266  0.11411339918489194  1.0000
  H   H103      1.0  0.9729532589697523  0.8702141273078476  0.129398220920459  1.0000
  H   H104      1.0  0.9988578034328782  0.7841065791081823  0.07954182788603158  1.0000
  H   H105      1.0  0.9717146216878789  0.7149494188640158  0.09351996500710569  1.0000
  H   H106      1.0  0.9343742522773981  0.7691307355357063  0.06400974916509838  1.0000
  H   H107      1.0  0.9098845065785023  0.7046412480273616  0.16456200127005022  1.0000
  H   H108      1.0  0.8722229390966143  0.7571435575605285  0.1327233928436323  1.0000
  H   H109      1.0  0.8898985690391856  0.7676081046935325  0.19835056099597076  1.0000
  H   H110      1.0  0.9996857983162389  0.7254871383637295  0.18169849803597016  1.0000
  H   H111      1.0  0.9784063742669385  0.7842930694731086  0.22043762081177726  1.0000
  H   H112      1.0  0.0236961239280864  0.7968696372818664  0.17100064741948742  1.0000
  N   N5        1.0  0.8031161083468625  0.17816762235337036  0.2974748635361014  1.0000
  C   C113      1.0  0.8211867050868195  0.19883566790505425  0.24732361223066468  1.0000
  C   C114      1.0  0.8059662041382043  0.11455192408022839  0.29942430808350473  1.0000
  C   C115      1.0  0.7507149447805187  0.19574199491964528  0.3048505971862637  1.0000
  C   C116      1.0  0.834528975211643  0.20347388994512228  0.338397546319386  1.0000
  H   H113      1.0  0.8199138721610902  0.24671455630924255  0.24488726780830278  1.0000
  H   H114      1.0  0.7975152958831186  0.18179389397653245  0.21557101139812707  1.0000
  H   H115      1.0  0.8603606674044042  0.1856889458616926  0.24004005445409785  1.0000
  H   H116      1.0  0.7923603804950003  0.09761385157110779  0.3368379758562177  1.0000
  H   H117      1.0  0.782654812934912  0.09415287994033572  0.2689888147093377  1.0000
  H   H118      1.0  0.8450036701084214  0.09971077576111975  0.2942793396338501  1.0000
  H   H119      1.0  0.73516477435354  0.17837661270147032  0.3411811156536371  1.0000
  H   H120      1.0  0.7262891565557394  0.18004011781730656  0.27318856065487773  1.0000
  H   H121      1.0  0.7473318422812156  0.24361596749859873  0.30596043879798124  1.0000
  H   H122      1.0  0.8233081645981093  0.18657251395343177  0.37642257151637804  1.0000
  H   H123      1.0  0.8311504340034319  0.2513411549658287  0.339922562488668  1.0000
  H   H124      1.0  0.8746584489896743  0.19322802219667468  0.3329905790612109  1.0000
  N   N6        1.0  0.7053862121896164  0.7487019127177846  0.9436369289397212  1.0000
  C   C117      1.0  0.6847052860377019  0.7070028076644375  0.9062031536898423  1.0000
  C   C118      1.0  0.6648535682967308  0.7857416762463668  0.9627031753952309  1.0000
  C   C119      1.0  0.7440350107189897  0.7850272752167582  0.9187431302303636  1.0000
  C   C120      1.0  0.7279208986928525  0.7170732895064854  0.9867258183496285  1.0000
  H   H125      1.0  0.7144664072386033  0.6795452492807921  0.889636572133121  1.0000
  H   H126      1.0  0.6662100154064874  0.7294337214944908  0.8738284376981563  1.0000
  H   H127      1.0  0.6561906436842632  0.6779323102313481  0.9238054748046  1.0000
  H   H128      1.0  0.6348392069769042  0.7597238515491936  0.9814651464954723  1.0000
  H   H129      1.0  0.6790496420680964  0.8177619994341483  0.9910971697272437  1.0000
  H   H130      1.0  0.6472032496006845  0.8102123737967125  0.9309272455772387  1.0000
  H   H131      1.0  0.7283177066544959  0.8093300685112459  0.8859266124157348  1.0000
  H   H132      1.0  0.7752320233174094  0.7585787671320422  0.9037644629196364  1.0000
  H   H133      1.0  0.7605985508938808  0.8170492632551304  0.9457465091924485  1.0000
  H   H134      1.0  0.7449977674019035  0.7470425073345293  0.015269435522393238  1.0000
  H   H135      1.0  0.7581466520036708  0.6881248426249821  0.9734062305115129  1.0000
  H   H136      1.0  0.6997818702075024  0.6898515184224528  0.0070549803020099056  1.0000
  N   N7        1.0  0.9235535437660864  0.8442739404751303  0.6815697010964031  1.0000
  C   C121      1.0  0.9478609414365404  0.790363626514678  0.6978433659044269  1.0000
  C   C122      1.0  0.869732896132263  0.832960232907431  0.6730106260935097  1.0000
  C   C123      1.0  0.9466057444726366  0.8651311574967191  0.6336075815899955  1.0000
  C   C124      1.0  0.9300151425067549  0.8885706266118675  0.7218301460182237  1.0000
  H   H137      1.0  0.9438576779882114  0.7559536289025395  0.6684043546029941  1.0000
  H   H138      1.0  0.9309873848441085  0.7733935930824558  0.7337817138260896  1.0000
  H   H139      1.0  0.988413992373666  0.7973468726798784  0.7052268232505411  1.0000
  H   H140      1.0  0.8503316641083283  0.872390676836137  0.6598071463805697  1.0000
  H   H141      1.0  0.8634149931056537  0.7989311028655083  0.6436542919913707  1.0000
  H   H142      1.0  0.8509205485689816  0.8184968189712941  0.708678917109008  1.0000
  H   H143      1.0  0.9291256604839229  0.9059165439431054  0.6204893120055051  1.0000
  H   H144      1.0  0.9420393463770844  0.8330584217046056  0.602231994509989  1.0000
  H   H145      1.0  0.9872193888362183  0.8741595952599096  0.6385797470306882  1.0000
  H   H146      1.0  0.9701294463885647  0.8981386537629654  0.729390981043182  1.0000
  H   H147      1.0  0.9127598160653719  0.8745936029938749  0.7584585230956074  1.0000
  H   H148      1.0  0.9120280196142243  0.9297858570244704  0.7111011540418622  1.0000
  N   N8        1.0  0.3797098733448969  0.5710577262276847  0.5815035148708291  1.0000
  C   C125      1.0  0.4168757495492262  0.6002097735589886  0.614769389490405  1.0000
  C   C126      1.0  0.36132169720405927  0.6124077629250045  0.5431034156542589  1.0000
  C   C127      1.0  0.3373659288222845  0.5497281348931226  0.6126960647929499  1.0000
  C   C128      1.0  0.4032988376810029  0.5218709866361013  0.5552882592745295  1.0000
  H   H149      1.0  0.43147294040724005  0.5704316347817754  0.644393804909082  1.0000
  H   H150      1.0  0.40058861296083265  0.6380802278873812  0.6346301701959322  1.0000
  H   H151      1.0  0.44944802060220124  0.6164468047940704  0.5922701977225703  1.0000
  H   H152      1.0  0.3340530246647443  0.5916562525059513  0.5164921995895249  1.0000
  H   H153      1.0  0.34246063244387287  0.649638684278658  0.5613381836021019  1.0000
  H   H154      1.0  0.39255101994559427  0.6301311431829737  0.5196862480441266  1.0000
  H   H155      1.0  0.3188650237042925  0.5855014190329222  0.6334621524106615  1.0000
  H   H156      1.0  0.3495811895308456  0.5173843072632829  0.6413846265540536  1.0000
  H   H157      1.0  0.30851360678611345  0.528231556077138  0.588478534148536  1.0000
  H   H158      1.0  0.43559218014407824  0.5362794907588374  0.5315804347154437  1.0000
  H   H159      1.0  0.3764614802443933  0.4993928535552337  0.5294098282841705  1.0000
  H   H160      1.0  0.4170821148317381  0.48939443751283973  0.5830299091703798  1.0000
  N   N9        1.0  0.20850753528825924  0.17496065042789  0.828618200681316  1.0000
  C   C129      1.0  0.19624188886480026  0.13498051143864465  0.8708903489504746  1.0000
  C   C130      1.0  0.18935744598895748  0.1509901896470598  0.7799537503729668  1.0000
  C   C131      1.0  0.26328729333247586  0.18261876927354326  0.825235778157054  1.0000
  C   C132      1.0  0.18515866874944303  0.2313908613454243  0.8383462734469533  1.0000
  H   H161      1.0  0.1551492867103194  0.12819904872945487  0.8745005875476225  1.0000
  H   H162      1.0  0.21017025697763214  0.15194841762139322  0.9081980185627669  1.0000
  H   H163      1.0  0.21335752366464983  0.09195324431141061  0.8648820895845265  1.0000
  H   H164      1.0  0.19799246847132565  0.1801947379682849  0.7472512794137918  1.0000
  H   H165      1.0  0.20595957547359875  0.10834364498020621  0.7711874361974452  1.0000
  H   H166      1.0  0.14800304484529125  0.14512101451143722  0.7808019013660361  1.0000
  H   H167      1.0  0.2738244480230508  0.21354903004151748  0.7944141981994381  1.0000
  H   H168      1.0  0.2822182549735556  0.1411658285469135  0.8170140294098909  1.0000
  H   H169      1.0  0.27911168917096757  0.1997613903072597  0.8615968726861418  1.0000
  H   H170      1.0  0.1941394174386618  0.2627929150176267  0.8075029401741212  1.0000
  H   H171      1.0  0.19857219915225818  0.2508958733200912  0.8748223056001485  1.0000
  H   H172      1.0  0.1437358234647654  0.22753372356049084  0.8403365454327508  1.0000
  N   N10       1.0  0.10049963710590859  0.5271690406076087  0.8519472081794339  1.0000
  C   C133      1.0  0.10436040808105895  0.5360560172471011  0.9077444177422825  1.0000
  C   C134      1.0  0.1496043115406993  0.5387597698995394  0.8280310223618453  1.0000
  C   C135      1.0  0.06306627933707776  0.5667940161589275  0.8305714394454476  1.0000
  C   C136      1.0  0.08491980859150705  0.46698000094814485  0.8413261309958482  1.0000
  H   H173      1.0  0.13135648414378975  0.5057326113118639  0.9252808510284841  1.0000
  H   H174      1.0  0.06757376488781652  0.5296654395086371  0.9268555568262844  1.0000
  H   H175      1.0  0.1174097349024148  0.5806858652565624  0.917005913596754  1.0000
  H   H176      1.0  0.16243650674727883  0.5839257600914991  0.8352249075945819  1.0000
  H   H177      1.0  0.17871143262559852  0.5094268757497061  0.8433120142883788  1.0000
  H   H178      1.0  0.14809067362460215  0.5321634117094509  0.7859250628034111  1.0000
  H   H179      1.0  0.05957480182592367  0.5616722417507538  0.7884093667321689  1.0000
  H   H180      1.0  0.07310669615251597  0.6127097236894374  0.8385999248187246  1.0000
  H   H181      1.0  0.025434915989269724  0.5584449201911046  0.8472841857100741  1.0000
  H   H182      1.0  0.08218132172517878  0.4589952954581901  0.7995062370182634  1.0000
  H   H183      1.0  0.04771963458258677  0.4568784645333738  0.8583042655705777  1.0000
  H   H184      1.0  0.11216644599758219  0.43571190798952886  0.8570511863142728  1.0000
  N   N11       1.0  0.8159596776585776  0.4505276817200351  0.029027771818128212  1.0000
  C   C137      1.0  0.7789483242772366  0.4033514531978981  0.036325627136502225  1.0000
  C   C138      1.0  0.7926667584143778  0.5063456514796999  0.04129889660182595  1.0000
  C   C139      1.0  0.8332295135262373  0.45118379030206934  0.9753505860287717  1.0000
  C   C140      1.0  0.8590806254456413  0.4414264197666713  0.06325086555794424  1.0000
  H   H185      1.0  0.7650767777441366  0.4018380956231388  0.07644768876070462  1.0000
  H   H186      1.0  0.7952759040884444  0.36048698002404533  0.0277203871433771  1.0000
  H   H187      1.0  0.7458097370594663  0.4087534443751799  0.011145285896633439  1.0000
  H   H188      1.0  0.8191978427837316  0.5429518475944486  0.03488330806856976  1.0000
  H   H189      1.0  0.7591656989038876  0.5140430314761353  0.01722867946783535  1.0000
  H   H190      1.0  0.7806318445818697  0.508160596801498  0.08201594425835901  1.0000
  H   H191      1.0  0.8613483665758089  0.48622317965209694  0.9685911639059843  1.0000
  H   H192      1.0  0.8018504261831735  0.4583817016068822  0.9482704641276671  1.0000
  H   H193      1.0  0.8510867518121157  0.4098116664980321  0.9645369528603437  1.0000
  H   H194      1.0  0.8877787052989687  0.47618472698495334  0.05874699497176361  1.0000
  H   H195      1.0  0.8775305169297185  0.3995897601708329  0.055464196383720354  1.0000
  H   H196      1.0  0.8475932107313143  0.44124664899216304  0.10415455826550724  1.0000
  N   N12       1.0  0.0676871541764595  0.032072672608004726  0.37415168549556943  1.0000
  C   C141      1.0  0.11021264124964936  0.996895837824907  0.39133463378936606  1.0000
  C   C142      1.0  0.06183659676092434  0.026067903675636606  0.31825839289960256  1.0000
  C   C143      1.0  0.07740164196087748  0.09328671889097229  0.3871240419435805  1.0000
  C   C144      1.0  0.021451103815519623  0.01212010184075818  0.39986519419009225  1.0000
  H   H197      1.0  0.11562247530025888  0.9999205537068656  0.43340428245189383  1.0000
  H   H198      1.0  0.14579152742231838  0.01114974410386771  0.37289307371283104  1.0000
  H   H199      1.0  0.1046967810754583  0.9505051090245896  0.3814215388267921  1.0000
  H   H200      1.0  0.02939634044834882  0.05087961108883299  0.30383235987036766  1.0000
  H   H201      1.0  0.09566780722047549  0.041848756736121207  0.29765383786985744  1.0000
  H   H202      1.0  0.05570492591475598  0.9802006264099283  0.3070241857634846  1.0000
  H   H203      1.0  0.045615823223816604  0.12101989686320591  0.3756684159359892  1.0000
  H   H204      1.0  0.11162067776016615  0.11014548632764987  0.36785974416823436  1.0000
  H   H205      1.0  0.08268317758819366  0.09924973395238235  0.42903287490538705  1.0000
  H   H206      1.0  0.013108060940941744  0.9658913135401512  0.39141731287078174  1.0000
  H   H207      1.0  0.988550384100645  0.03740977185869787  0.3873271164588014  1.0000
  H   H208      1.0  0.02430342704216248  0.017090892326739215  0.44208578836901385  1.0000
  N   N13       1.0  0.4056211160937879  0.3637963131363142  0.17461931049916402  1.0000
  C   C145      1.0  0.4406644335990524  0.4110249710792682  0.1606951055421173  1.0000
  C   C146      1.0  0.3923023065629906  0.36838243365176465  0.22920902698075896  1.0000
  C   C147      1.0  0.4296535650471106  0.3077922960641146  0.1653066292548464  1.0000
  C   C148      1.0  0.35994186323877664  0.3676821301232689  0.1431328884636509  1.0000
  H   H209      1.0  0.4506717822490468  0.4095007725314532  0.11942356172966329  1.0000
  H   H210      1.0  0.4762597858137311  0.4081212034917315  0.1824525117315725  1.0000
  H   H211      1.0  0.4246438044903738  0.45413877798328595  0.16894424681885378  1.0000
  H   H212      1.0  0.3666340443629547  0.33276512303252404  0.2411217356376243  1.0000
  H   H213      1.0  0.42614586504705654  0.3668525830374225  0.25392024449434736  1.0000
  H   H214      1.0  0.37351024195111243  0.40993578158031013  0.2375510911009382  1.0000
  H   H215      1.0  0.4042512574688869  0.2709167694746644  0.17477775640957827  1.0000
  H   H216      1.0  0.4645940373844458  0.30340707460133165  0.18798545162090696  1.0000
  H   H217      1.0  0.44017429833519744  0.30344612539357646  0.12454127546414195  1.0000
  H   H218      1.0  0.3329502633707342  0.33217483438206674  0.15225426837081169  1.0000
  H   H219      1.0  0.3687404350795562  0.3641851604815068  0.10169984213710137  1.0000
  H   H220      1.0  0.3407500722220872  0.40941989544990814  0.14928364367213076  1.0000
  N   N14       1.0  0.9663312204539589  0.3333914106936191  0.5879466599786481  1.0000
  C   C149      1.0  0.007169334936484306  0.35240025193181096  0.5536561361782115  1.0000
  C   C150      1.0  0.9376724879774703  0.2859273762331254  0.5634663883944144  1.0000
  C   C151      1.0  0.9328582945028576  0.38238869382429913  0.5980415148798213  1.0000
  C   C152      1.0  0.9877658345999311  0.31296245866553324  0.6366362956245525  1.0000
  H   H221      1.0  0.03359620386259898  0.31668464500923327  0.545843066626337  1.0000
  H   H222      1.0  0.029116475279068466  0.3887769456925263  0.5707797049970378  1.0000
  H   H223      1.0  0.9925137785858057  0.3674885083259185  0.5162569511371801  1.0000
  H   H224      1.0  0.9065124132476752  0.2704258993029611  0.5882236603677627  1.0000
  H   H225      1.0  0.9213228014569379  0.2996394658675445  0.5263859012306972  1.0000
  H   H226      1.0  0.9618191864427733  0.24829248092007747  0.5554009345264198  1.0000
  H   H227      1.0  0.9159284854843956  0.3988461673846411  0.5621052895397892  1.0000
  H   H228      1.0  0.953442042697206  0.4190906371912122  0.6162758948112285  1.0000
  H   H229      1.0  0.9018328860032682  0.3698155613915121  0.6241887881162824  1.0000
  H   H230      1.0  0.9581538050813495  0.29850210194417703  0.6637028394529724  1.0000
  H   H231      1.0  0.009968853726923577  0.3476559467134106  0.6557921342916783  1.0000
  H   H232      1.0  0.013161853133244028  0.27595161055781436  0.6304553312257493  1.0000
  N   N15       1.0  0.6195135708172823  0.5609812664770076  0.3984029149471048  1.0000
  C   C153      1.0  0.6193641683378767  0.6169741014812604  0.3714010467772109  1.0000
  C   C154      1.0  0.6595478856804367  0.5244447398935398  0.3774894065246009  1.0000
  C   C155      1.0  0.5706443993665822  0.5316997756526236  0.3912067255340076  1.0000
  C   C156      1.0  0.6283946693271591  0.5709066110921325  0.4534579405877324  1.0000
  H   H233      1.0  0.6136359791606366  0.6109803084116018  0.3296162299186897  1.0000
  H   H234      1.0  0.6554266614564856  0.6406767254774429  0.3763456934271317  1.0000
  H   H235      1.0  0.5889047505314767  0.6451548763054318  0.3856164569142072  1.0000
  H   H236      1.0  0.6615623782304376  0.4822406184248678  0.39763078965271637  1.0000
  H   H237      1.0  0.653277173560953  0.5151265016462406  0.33630127478877114  1.0000
  H   H238      1.0  0.6968782969442213  0.5458244783735998  0.3808017351287186  1.0000
  H   H239      1.0  0.5622954225282931  0.5248807638361519  0.3500000935877589  1.0000
  H   H240      1.0  0.5396656830585264  0.5576360904247107  0.40733362499220244  1.0000
  H   H241      1.0  0.5695538887612583  0.4887259214566871  0.4100551732889988  1.0000
  H   H242      1.0  0.6276257687084348  0.529661150972852  0.47519301764451666  1.0000
  H   H243      1.0  0.599367083856923  0.599286801653701  0.47021669851000497  1.0000
  H   H244      1.0  0.6653333143784943  0.5920842369234176  0.460271903085841  1.0000
  N   N16       1.0  0.6457769648038766  0.996315170924258  0.54686681104033  1.0000
  C   C157      1.0  0.6735003780980854  0.0484987702533306  0.5301556422099118  1.0000
  C   C158      1.0  0.6181741035790004  0.971223803432577  0.5030711942601984  1.0000
  C   C159      1.0  0.6100878853947226  0.011961325179903115  0.5874743038154909  1.0000
  C   C160      1.0  0.6813117525268089  0.953491079224982  0.5667980986401883  1.0000
  H   H245      1.0  0.6960135017818789  0.0676071582658544  0.5618491437668705  1.0000
  H   H246      1.0  0.6479449564161772  0.08249074117597965  0.5160408303241224  1.0000
  H   H247      1.0  0.6997300756689424  0.03864847227742252  0.4984759019721208  1.0000
  H   H248      1.0  0.5968933287763794  0.9316485815973393  0.5144569963911176  1.0000
  H   H249      1.0  0.5906683807514553  0.002139058280447692  0.4873376309546659  1.0000
  H   H250      1.0  0.6439065773869825  0.9589440321659953  0.47162687604526266  1.0000
  H   H251      1.0  0.582063207340421  0.04331125828516269  0.5735870130430368  1.0000
  H   H252      1.0  0.6295287242148586  0.03175326767851194  0.6208057119712935  1.0000
  H   H253      1.0  0.589125423828182  0.973431619398731  0.6015728833217129  1.0000
  H   H254      1.0  0.6617179562069727  0.9128085086037158  0.5780109062112136  1.0000
  H   H255      1.0  0.7015084609668311  0.9701141730656996  0.6011097687896388  1.0000
  H   H256      1.0  0.7098378033189218  0.9421297318780049  0.5377113202712005  1.0000
