data_image0
_chemical_formula_structural       FeS2FeS2FeSFeS3FeS2FeS2FeSFeS3FeS2FeS2FeSFeS3FeS2FeS2FeSFeS3FeS2FeS2FeSFeS3FeS2FeS2FeSFeS3FeS2FeS2FeSFeS3FeS2FeS2FeSFeS3FeS2FeS2FeSFeS3FeS2FeS2FeSFeS3FeS2FeS2FeSFeS3FeS2FeS2FeSFeS3FeS2FeS2FeSFeS3FeS2FeS2FeSFeS3FeS2FeS2FeSFeS3FeS2FeS2FeSFeS3FeS2FeS2FeSFeS3FeS2FeS2FeSFeS3FeS2FeS2FeSFeS3FeS2FeS2FeSFeS3FeS2FeS2FeSFeS3FeS2FeS2FeSFeS3FeS2FeS2FeSFeS3FeS2FeS2FeSFeS3FeS2FeS2FeSFeS3FeS2FeS2FeSFeS3FeS2FeS2FeSFeS3FeS2FeS2FeSFeS3FeS2FeS2FeSFeS3FeS2FeS2FeSFeS3FeS2FeS2FeSFeS3FeS2FeS2FeSFeS3C6H4C6H4C6H4C6H4C6H4C6H4C6H4C6H4C6H4C6H4C6H4C6H4C6H4C6H4C6H4C6H4C6H4C6H4C6H4C6H4C6H4C6H4C6H4C6H4C6H4C6H4C6H4C6H4C6H4C6H4C6H4C6H4C6H4C6H4C6H4C6H4C6H4C6H4C6H4C6H4C6H4C6H4C6H4C6H4C6H4C6H4C6H4C6H4C6H4C6H4C6H4C6H4C6H4C6H4C6H4C6H4C6H4C6H4C6H4C6H4C6H4C6H4C6H4C6H4NC4H12NC4H12NC4H12NC4H12NC4H12NC4H12NC4H12NC4H12NC4H12NC4H12NC4H12NC4H12NC4H12NC4H12NC4H12NC4H12NC4H12NC4H12NC4H12NC4H12NC4H12NC4H12NC4H12NC4H12NC4H12NC4H12NC4H12NC4H12NC4H12NC4H12NC4H12NC4H12NC4H12NC4H12NC4H12NC4H12NC4H12NC4H12NC4H12NC4H12NC4H12NC4H12NC4H12NC4H12NC4H12NC4H12NC4H12NC4H12NC4H12NC4H12NC4H12NC4H12NC4H12NC4H12NC4H12NC4H12NC4H12NC4H12NC4H12NC4H12NC4H12NC4H12NC4H12NC4H12
_chemical_formula_sum              "Fe128 S256 C640 H1024 N64"
_cell_length_a       50.21194920241778
_cell_length_b       51.54044332410325
_cell_length_c       54.358230829915115
_cell_angle_alpha    79.64750027821756
_cell_angle_beta     77.83656902169541
_cell_angle_gamma    74.95600395275171

_space_group_name_H-M_alt    "P 1"
_space_group_IT_number       1

loop_
  _space_group_symop_operation_xyz
  'x, y, z'

loop_
  _atom_site_type_symbol
  _atom_site_label
  _atom_site_symmetry_multiplicity
  _atom_site_fract_x
  _atom_site_fract_y
  _atom_site_fract_z
  _atom_site_occupancy
  Fe  Fe1       1.0  0.6656055342937051  0.9780331810583213  0.22546659255270807  1.0000
  S   S1        1.0  0.6205999357542616  0.9874337903982037  0.24379841640437747  1.0000
  S   S2        1.0  0.6798840589054289  0.9820335163303954  0.18356753960606126  1.0000
  Fe  Fe2       1.0  0.6865044453670693  0.9589027377709373  0.27480378274736644  1.0000
  S   S3        1.0  0.6435039150105  0.9654464040133313  0.29836933040751185  1.0000
  S   S4        1.0  0.7263307495039626  0.9435035451612818  0.29033336810838606  1.0000
  Fe  Fe3       1.0  0.6322564477720579  0.9477974802227059  0.26819354118738203  1.0000
  S   S5        1.0  0.6048746284030234  0.9181101929925816  0.27862985008235563  1.0000
  Fe  Fe4       1.0  0.6352772211560626  0.004383062180448851  0.27225670859346557  1.0000
  S   S6        1.0  0.6102008548652541  0.04327790088321674  0.28620830118488305  1.0000
  S   S7        1.0  0.6762379648091853  0.936865642218829  0.24742943756415745  1.0000
  S   S8        1.0  0.6793471931368487  0.9995039404488134  0.25110212389072833  1.0000
  Fe  Fe5       1.0  0.44342089698549875  0.13928677159973657  0.2724385298615876  1.0000
  S   S9        1.0  0.3970169519087915  0.14678473712186432  0.2840747181990147  1.0000
  S   S10       1.0  0.4604615662289442  0.17351839382016587  0.24915481685191593  1.0000
  Fe  Fe6       1.0  0.4532624777969349  0.08140022197802065  0.29810238562771296  1.0000
  S   S11       1.0  0.40747333205837244  0.08423167797902867  0.3128306337320877  1.0000
  S   S12       1.0  0.4830375347363621  0.0407145176945803  0.3027898195454968  1.0000
  Fe  Fe7       1.0  0.40214811783930543  0.10547060167739733  0.27385448129583995  1.0000
  S   S13       1.0  0.3728196937241042  0.09851267860346237  0.25124687074140717  1.0000
  Fe  Fe8       1.0  0.4071245485753601  0.12518381335033701  0.32170730284589677  1.0000
  S   S14       1.0  0.386223643172822  0.14216880081785  0.35794222810767706  1.0000
  S   S15       1.0  0.44792227552679154  0.09995775694600377  0.25836555334162187  1.0000
  S   S16       1.0  0.45354167317184746  0.12039290578174891  0.31076298714428235  1.0000
  Fe  Fe9       1.0  0.5014706980829396  0.9722237304579414  0.19027102306835017  1.0000
  S   S17       1.0  0.537101961980809  0.9566097787166196  0.1602023707448161  1.0000
  S   S18       1.0  0.4950288166450445  0.9521893249155314  0.23030454171162734  1.0000
  Fe  Fe10      1.0  0.4744385920657109  0.018771276951407234  0.15462498740809907  1.0000
  S   S19       1.0  0.5074606793845277  0.007583169061333717  0.12110607498249791  1.0000
  S   S20       1.0  0.43674846416462004  0.052555481501710855  0.1495832717894933  1.0000
  Fe  Fe11      1.0  0.5041653344039605  0.9648277095331929  0.13581764446857444  1.0000
  S   S21       1.0  0.5036404355514431  0.9377137312764732  0.10786748100278605  1.0000
  Fe  Fe12      1.0  0.5372158075507348  0.0005804992963429623  0.1482743731778324  1.0000
  S   S22       1.0  0.5765120794597177  0.015699102558121545  0.1389232906844621  1.0000
  S   S23       1.0  0.4683093834696272  0.9767152541066959  0.16707635458567596  1.0000
  S   S24       1.0  0.5045825021454379  0.015484839918916027  0.18076007015845727  1.0000
  Fe  Fe13      1.0  0.5792557041864883  0.15303354006524095  0.15116402765931355  1.0000
  S   S25       1.0  0.6024559995548567  0.12295885966764074  0.17889184563486427  1.0000
  S   S26       1.0  0.5431628515923272  0.14172850049107105  0.14076277261176545  1.0000
  Fe  Fe14      1.0  0.6164721081558467  0.19227179792766524  0.1465707020304205  1.0000
  S   S27       1.0  0.6423016134325322  0.16561190668904535  0.17449165823630947  1.0000
  S   S28       1.0  0.6321859394010605  0.22853033874614312  0.12571429611072477  1.0000
  Fe  Fe15      1.0  0.6409906515501528  0.1324685659728285  0.1537401510503089  1.0000
  S   S29       1.0  0.6808971139483023  0.10351563155004977  0.1407387981881368  1.0000
  Fe  Fe16      1.0  0.6013708089137745  0.15903931851476827  0.1968077732637691  1.0000
  S   S30       1.0  0.5907044299395742  0.1536498538669872  0.23911998839739299  1.0000
  S   S31       1.0  0.618018133083137  0.15933433975868022  0.12411772072705543  1.0000
  S   S32       1.0  0.5750468368785622  0.1889016325436047  0.17097293588068055  1.0000
  Fe  Fe17      1.0  0.4747381142192344  0.6711003356970433  0.9794135641650757  1.0000
  S   S33       1.0  0.5088149959811824  0.6632333342132042  0.002415306936907724  1.0000
  S   S34       1.0  0.46929536059384336  0.7020454630151962  0.9452790694987068  1.0000
  Fe  Fe18      1.0  0.446145801415968  0.6285951321109027  0.012290823774381954  1.0000
  S   S35       1.0  0.47796805704740686  0.6160697472528002  0.038201730863012484  1.0000
  S   S36       1.0  0.40751297929516295  0.612524305275206  0.017101707006202505  1.0000
  Fe  Fe19      1.0  0.47411615815245983  0.6608398020298224  0.03595329078205478  1.0000
  S   S37       1.0  0.46524380696857753  0.680403306294055  0.07140446161686209  1.0000
  Fe  Fe20      1.0  0.5094976738424329  0.6194734402294345  0.002613908711103674  1.0000
  S   S38       1.0  0.5476148041448528  0.5873715933161267  0.9913575886972384  1.0000
  S   S39       1.0  0.4399086036846506  0.6730295696189041  0.012743034078077864  1.0000
  S   S40       1.0  0.47805175155292795  0.6277132308651828  0.9767844854167195  1.0000
  Fe  Fe21      1.0  0.3271202882805807  0.8125143269549873  0.939565733204413  1.0000
  S   S41       1.0  0.3214977294596526  0.7784855240620409  0.9703877670032067  1.0000
  S   S42       1.0  0.3584301600644893  0.8356166178526897  0.9419526640812442  1.0000
  Fe  Fe22      1.0  0.28329159641993135  0.8041383636117606  0.9131966375061403  1.0000
  S   S43       1.0  0.2737142874879975  0.7691457389278666  0.9417451582166945  1.0000
  S   S44       1.0  0.26245113570569284  0.8198929593308132  0.8790714204481297  1.0000
  Fe  Fe23      1.0  0.2757006509860708  0.7945733847667735  0.9704753670937291  1.0000
  S   S45       1.0  0.24887367929721918  0.7980234766547608  0.008912037467739688  1.0000
  Fe  Fe24      1.0  0.32025975231953685  0.7560751458539212  0.9392367203981076  1.0000
  S   S46       1.0  0.34275647674308785  0.7123303801972305  0.9414985086045664  1.0000
  S   S47       1.0  0.2812870899371191  0.8308979330587069  0.9421453743342614  1.0000
  S   S48       1.0  0.32998676993393533  0.7888449902727015  0.9079788621245609  1.0000
  Fe  Fe25      1.0  0.39132813955569523  0.8627732170867712  0.1110160055468753  1.0000
  S   S49       1.0  0.39900398731146147  0.8695160809389391  0.06835468305110172  1.0000
  S   S50       1.0  0.39568842153291706  0.8905145351069095  0.13656867821580113  1.0000
  Fe  Fe26      1.0  0.3771450190132867  0.8083773375590054  0.11405037986469767  1.0000
  S   S51       1.0  0.38265757752784635  0.810587576975421  0.07197053425468518  1.0000
  S   S52       1.0  0.3681990485943931  0.7708650856640384  0.1385356965551198  1.0000
  Fe  Fe27      1.0  0.4208178458561083  0.8253870950487705  0.07170870703109421  1.0000
  S   S53       1.0  0.4605784348774341  0.8058005401069206  0.047852080591737546  1.0000
  Fe  Fe28      1.0  0.3601663632301505  0.8540239760428222  0.07298593268830134  1.0000
  S   S54       1.0  0.3250270102113133  0.8713524930904507  0.05129040543529443  1.0000
  S   S55       1.0  0.41693884671006537  0.8201573868107199  0.11395782259023973  1.0000
  S   S56       1.0  0.35068138871969723  0.8504824025644018  0.11543885563688241  1.0000
  Fe  Fe29      1.0  0.2951082198464605  0.6568590111299132  0.12638436099030473  1.0000
  S   S57       1.0  0.2698344515526378  0.6731822515902304  0.16183446484760255  1.0000
  S   S58       1.0  0.3411670015002735  0.640130253372122  0.12492297123819995  1.0000
  Fe  Fe30      1.0  0.246791712075971  0.6768912746090018  0.09749016682213116  1.0000
  S   S59       1.0  0.21760893742643345  0.6949758699411147  0.13026809688463573  1.0000
  S   S60       1.0  0.2322084923344034  0.6824732821845465  0.060239527666244776  1.0000
  Fe  Fe31      1.0  0.2537663696170134  0.7098612375520246  0.13541166841143454  1.0000
  S   S61       1.0  0.24824088865336819  0.7522313710035677  0.14345978840493062  1.0000
  Fe  Fe32      1.0  0.23633862648871348  0.6564906919466235  0.15312413389484103  1.0000
  S   S62       1.0  0.2060844791712809  0.6372591371741976  0.1822172552176109  1.0000
  S   S63       1.0  0.28179219620963425  0.6949687830473625  0.10061535827023656  1.0000
  S   S64       1.0  0.2629635267897466  0.6368437058177735  0.11972071385923379  1.0000
  Fe  Fe33      1.0  0.6600278797561104  0.4706110536949629  0.6799455121436976  1.0000
  S   S65       1.0  0.6810772991465263  0.49662796218071137  0.6946521317441134  1.0000
  S   S66       1.0  0.6589448612768656  0.47771246247301635  0.6382722226367178  1.0000
  Fe  Fe34      1.0  0.6471748517199104  0.43815964619874787  0.7308779964670683  1.0000
  S   S67       1.0  0.6670480808987274  0.4609887758866539  0.7500308228746808  1.0000
  S   S68       1.0  0.6290859963699305  0.4055425248022954  0.7562557571210499  1.0000
  Fe  Fe35      1.0  0.6453062622800355  0.4977583933067142  0.7274006338277422  1.0000
  S   S69       1.0  0.6194011285385839  0.5323527804693485  0.7479122494274624  1.0000
  Fe  Fe36      1.0  0.7009652767266596  0.45757124590071013  0.7159558050233377  1.0000
  S   S70       1.0  0.7445989745053424  0.4464708670275654  0.724082781378242  1.0000
  S   S71       1.0  0.6223000234455751  0.47533011049458346  0.7108230013288659  1.0000
  S   S72       1.0  0.6830479174964194  0.4311031316944926  0.6986285843923923  1.0000
  Fe  Fe37      1.0  0.5347235983271336  0.5590820213921485  0.847099554766409  1.0000
  S   S73       1.0  0.48969486754902175  0.563605643465141  0.865379207187258  1.0000
  S   S74       1.0  0.5559064247489878  0.5934781261141759  0.833411140190898  1.0000
  Fe  Fe38      1.0  0.5466615219750145  0.4975831576837213  0.8542780966876348  1.0000
  S   S75       1.0  0.5025164108413992  0.49688902999630535  0.8726375193233601  1.0000
  S   S76       1.0  0.5794514822411373  0.45884195535741895  0.8565283199361483  1.0000
  Fe  Fe39      1.0  0.49104552230392845  0.531141625632262  0.8422899668548968  1.0000
  S   S77       1.0  0.4575114721385432  0.5341186335303273  0.8200548755781211  1.0000
  Fe  Fe40      1.0  0.5059575546328862  0.5289719503264626  0.8937893201474655  1.0000
  S   S78       1.0  0.48936013261012556  0.5270790160119997  0.9356301277224321  1.0000
  S   S79       1.0  0.5350348006556273  0.529240895769379  0.8217154844150901  1.0000
  S   S80       1.0  0.5509602314655627  0.5273717114902621  0.8774600177615699  1.0000
  Fe  Fe41      1.0  0.4584538227392381  0.5350234128610429  0.6690445118453684  1.0000
  S   S81       1.0  0.444432621837923  0.49972225383082014  0.6939396655038584  1.0000
  S   S82       1.0  0.44015102288011326  0.5785651876898341  0.673969597207036  1.0000
  Fe  Fe42      1.0  0.5067985957481832  0.49985492830271266  0.6384157824442062  1.0000
  S   S83       1.0  0.4980293068142327  0.4611138338684606  0.6607280104481086  1.0000
  S   S84       1.0  0.5411386839319257  0.5019153622480657  0.6050555029523009  1.0000
  Fe  Fe43      1.0  0.4532342249874719  0.4810913863573248  0.6578786142879411  1.0000
  S   S85       1.0  0.4241106077463883  0.45701617710553916  0.6517318394238517  1.0000
  Fe  Fe44      1.0  0.4902037816351278  0.4829291991935145  0.6947292495876841  1.0000
  S   S86       1.0  0.509242023046365  0.4647133675791361  0.7295973338801641  1.0000
  S   S87       1.0  0.46264629325895046  0.518448989054833  0.6328096188714232  1.0000
  S   S88       1.0  0.5035629618812503  0.5196854681268516  0.6725936547542523  1.0000
  Fe  Fe45      1.0  0.592972238084522  0.6616431418477869  0.6854662427520882  1.0000
  S   S89       1.0  0.5844504600703311  0.6772494200605464  0.646302409229999  1.0000
  S   S90       1.0  0.6375804144574245  0.6438600083649453  0.689656747415831  1.0000
  Fe  Fe46      1.0  0.5318860184921629  0.672783353404813  0.7089112011870764  1.0000
  S   S91       1.0  0.5175442634626133  0.6901539429182368  0.6717700099924022  1.0000
  S   S92       1.0  0.499733011286895  0.6663806945795807  0.743387361302805  1.0000
  Fe  Fe47      1.0  0.5499527244786412  0.6552967104067815  0.6568103981613524  1.0000
  S   S93       1.0  0.5436183503725847  0.6308321582802072  0.6294458951617072  1.0000
  Fe  Fe48      1.0  0.5529961506944463  0.7108128609540498  0.664424062483576  1.0000
  S   S94       1.0  0.5516223198303807  0.7515286326829852  0.6413404378456109  1.0000
  S   S95       1.0  0.5614047373898923  0.6359443162952991  0.6943823498386322  1.0000
  S   S96       1.0  0.5645052233100192  0.6970638901927447  0.7032773459449441  1.0000
  Fe  Fe49      1.0  0.5649754222217032  0.34178295048543267  0.040708601677167305  1.0000
  S   S97       1.0  0.6003135293636042  0.3242942594204952  0.011268841327127587  1.0000
  S   S98       1.0  0.5422156020265806  0.31751072875298736  0.0725888615430707  1.0000
  Fe  Fe50      1.0  0.5706700005281412  0.3992502037227955  0.02198215867369975  1.0000
  S   S99       1.0  0.606711497286225  0.38713583177529187  0.9911804846565522  1.0000
  S   S100      1.0  0.5550144749040031  0.441359297329708  0.032099414974065925  1.0000
  Fe  Fe51      1.0  0.5813393851856784  0.35946888123935394  0.9848900907816995  1.0000
  S   S101      1.0  0.5765966890644073  0.35027867209407926  0.9474655136562794  1.0000
  Fe  Fe52      1.0  0.6224150605507055  0.3532104307534168  0.020277948150657414  1.0000
  S   S102      1.0  0.6665977711671035  0.34560459610896604  0.026846301736070756  1.0000
  S   S103      1.0  0.5437083314273847  0.3746709297871017  0.013583460339359149  1.0000
  S   S104      1.0  0.588601989316634  0.36764613846898037  0.051798705669558236  1.0000
  Fe  Fe53      1.0  0.7707188681305195  0.22743257076112477  0.011988345944041953  1.0000
  S   S105      1.0  0.8097387718165507  0.22098301525778996  0.02829225324307214  1.0000
  S   S106      1.0  0.7286340332219408  0.2234369168142833  0.033813010672012735  1.0000
  Fe  Fe54      1.0  0.7980143413140167  0.24438389446614367  0.9583813869068253  1.0000
  S   S107      1.0  0.8396033321451749  0.23974766768453068  0.9696165870020188  1.0000
  S   S108      1.0  0.7864094149161582  0.2612271645677297  0.9201719050828188  1.0000
  Fe  Fe55      1.0  0.8306715528703055  0.20151004182951454  0.9932064444306888  1.0000
  S   S109      1.0  0.8646859809735683  0.16347707004335332  0.991819647709671  1.0000
  Fe  Fe56      1.0  0.8148176813298946  0.259858383568384  0.003338977306454872  1.0000
  S   S110      1.0  0.8240680244563827  0.29616504137085276  0.014429521028732814  1.0000
  S   S111      1.0  0.7909138549328079  0.20459724707566387  0.9790518423691872  1.0000
  S   S112      1.0  0.7740836326155726  0.2677253355788407  0.9898554010498101  1.0000
  Fe  Fe57      1.0  0.7161471026185513  0.4316351282714346  0.12573220897334125  1.0000
  S   S113      1.0  0.747476172506699  0.4104005287366527  0.09558151257701877  1.0000
  S   S114      1.0  0.7264562147681668  0.45594021875373186  0.15132922279616828  1.0000
  Fe  Fe58      1.0  0.667204215524568  0.4172502850034085  0.1110838895292479  1.0000
  S   S115      1.0  0.6942923961168045  0.3949245894724965  0.07951969159536984  1.0000
  S   S116      1.0  0.6207686642362366  0.4214601141830378  0.12224867616519092  1.0000
  Fe  Fe59      1.0  0.7234547814867552  0.3778493575289448  0.10745386799099432  1.0000
  S   S117      1.0  0.7405344860733177  0.3329449349815901  0.11265428977599744  1.0000
  Fe  Fe60      1.0  0.7153628289075189  0.4296508762766679  0.07066052096941954  1.0000
  S   S118      1.0  0.7288058265294433  0.4505897067180758  0.03179951957634741  1.0000
  S   S119      1.0  0.694710518309729  0.39739501845374714  0.13988004837105975  1.0000
  S   S120      1.0  0.6858079728136839  0.45359929656509396  0.0998052273141581  1.0000
  Fe  Fe61      1.0  0.7149251424278888  0.45123377955726407  0.8615390601284978  1.0000
  S   S121      1.0  0.6734508529326342  0.44064685191470526  0.8776135651349775  1.0000
  S   S122      1.0  0.7162303128789259  0.48671189361118156  0.830875191771731  1.0000
  Fe  Fe62      1.0  0.7457788257800015  0.4073032707964486  0.8965797000225161  1.0000
  S   S123      1.0  0.7074684809154336  0.3927288078256707  0.9159003796999657  1.0000
  S   S124      1.0  0.7851886640931237  0.384911689290778  0.9107011445846396  1.0000
  Fe  Fe63      1.0  0.6980045831909024  0.397731278776955  0.8767786367051834  1.0000
  S   S125      1.0  0.6819209261815016  0.3658037647545899  0.865469287369828  1.0000
  Fe  Fe64      1.0  0.6864176551072075  0.4366803206401996  0.91537674965733  1.0000
  S   S126      1.0  0.6562467842390853  0.4484561925714343  0.9506239430937888  1.0000
  S   S127      1.0  0.7383170784500598  0.40841355615678837  0.8571572767603002  1.0000
  S   S128      1.0  0.7258421648136418  0.4510974616294126  0.89955238421347  1.0000
  Fe  Fe65      1.0  0.8483300720962422  0.5359249691048104  0.18159205097602102  1.0000
  S   S129      1.0  0.8814113684855308  0.5245156270751659  0.20611217928239337  1.0000
  S   S130      1.0  0.8154529342431024  0.5748235847635433  0.17998568508015367  1.0000
  Fe  Fe66      1.0  0.8638516133383164  0.4814314454317727  0.16259089808119814  1.0000
  S   S131      1.0  0.8989583690892983  0.465530063094535  0.1846353275022888  1.0000
  S   S132      1.0  0.8549878585459654  0.45179755673445027  0.1412774663201884  1.0000
  Fe  Fe67      1.0  0.8690761112379127  0.48488513451175397  0.21639753980740786  1.0000
  S   S133      1.0  0.8647671794821027  0.4655909769537418  0.2568936188406403  1.0000
  Fe  Fe68      1.0  0.9086315038688182  0.5063032897331494  0.17243618467293237  1.0000
  S   S134      1.0  0.9533964446747928  0.5088351052047352  0.16478325755316395  1.0000
  S   S135      1.0  0.83302397886756  0.49786817306208686  0.1955328484310792  1.0000
  S   S136      1.0  0.8765778307606816  0.5206665186444391  0.14671406675003018  1.0000
  Fe  Fe69      1.0  0.04771975156723448  0.591649738886464  0.19699086836127216  1.0000
  S   S137      1.0  0.04915731315661328  0.6041286660279127  0.15523730783458461  1.0000
  S   S138      1.0  0.06235235524555517  0.5483414344608825  0.2129540718998304  1.0000
  Fe  Fe70      1.0  0.020042581466264735  0.6482954867512682  0.20971428412984588  1.0000
  S   S139      1.0  0.019010684672627398  0.6659768030713871  0.16904127143632308  1.0000
  S   S140      1.0  0.9995626792998119  0.6732108129255187  0.24129160383315176  1.0000
  Fe  Fe71      1.0  0.0055604266393343  0.6285434358615961  0.1662267281982115  1.0000
  S   S141      1.0  0.9671658813360116  0.6290635205147314  0.15117197880878447  1.0000
  Fe  Fe72      1.0  0.0626902214050071  0.64003726416206  0.16204948767861205  1.0000
  S   S142      1.0  0.09852977672618268  0.6523105451518683  0.133953937475122  1.0000
  S   S143      1.0  0.0030436660097008057  0.6129015750420903  0.207422204914277  1.0000
  S   S144      1.0  0.06483215985828197  0.6254265659371019  0.20323831519085958  1.0000
  Fe  Fe73      1.0  0.8363239584339085  0.6443461609252221  0.27782922603208293  1.0000
  S   S145      1.0  0.8615006947203288  0.6601034409888222  0.2987127653985269  1.0000
  S   S146      1.0  0.8281752212833499  0.6642236608183792  0.2391835662457482  1.0000
  Fe  Fe74      1.0  0.8259828435042055  0.5994311535658318  0.3195143217181493  1.0000
  S   S147      1.0  0.8501612750550724  0.6108104860599368  0.34423419034065417  1.0000
  S   S148      1.0  0.8077920263218669  0.5636197150530364  0.33598566404397656  1.0000
  Fe  Fe75      1.0  0.828317048921387  0.6533482018852392  0.33228829020396045  1.0000
  S   S149      1.0  0.8134235344564096  0.6789844724145502  0.3637449453007518  1.0000
  Fe  Fe76      1.0  0.8811935557843371  0.6162047279954439  0.30900608824747416  1.0000
  S   S150      1.0  0.9264320315934647  0.5976170214116069  0.3106478913136788  1.0000
  S   S151      1.0  0.8009589732341144  0.6416215343025339  0.31057675128200496  1.0000
  S   S152      1.0  0.859157600861918  0.6008734976056626  0.28486461668114094  1.0000
  Fe  Fe77      1.0  0.9826737813454507  0.4609095346530282  0.3241226282032362  1.0000
  S   S153      1.0  0.9629243027861283  0.5040013488104912  0.33015628723299106  1.0000
  S   S154      1.0  0.9837009251687698  0.4481688675682381  0.28666354760686447  1.0000
  Fe  Fe78      1.0  0.00388156411908779  0.4468639541001254  0.3743851510827197  1.0000
  S   S155      1.0  0.9858690632734102  0.488947722631154  0.38455023409869715  1.0000
  S   S156      1.0  0.03135630267855966  0.4142884693623247  0.39734908173932826  1.0000
  Fe  Fe79      1.0  0.9483348259653835  0.485898868904079  0.36991008288528715  1.0000
  S   S157      1.0  0.9054971694923934  0.49773382759835044  0.3931766099918484  1.0000
  Fe  Fe80      1.0  0.0022408058020588206  0.5025266946650393  0.34397556417475733  1.0000
  S   S158      1.0  0.02425782991390663  0.536746333502824  0.3318460033569949  1.0000
  S   S159      1.0  0.9650797780713134  0.44260146573629267  0.3627472145300148  1.0000
  S   S160      1.0  0.023334258802996607  0.46069301023773196  0.33486978317437066  1.0000
  Fe  Fe81      1.0  0.18331305338936488  0.9624513509053267  0.8560204164056944  1.0000
  S   S161      1.0  0.17923423543932868  0.0032443908240520347  0.8324409575864126  1.0000
  S   S162      1.0  0.21506553829104572  0.9448597156416656  0.8814032756049356  1.0000
  Fe  Fe82      1.0  0.13349223924899545  0.9509814749267215  0.8408983920183936  1.0000
  S   S163      1.0  0.12462496401452265  0.9905759061390412  0.8159775724711787  1.0000
  S   S164      1.0  0.1053973460011029  0.9225300562574804  0.8450931910485703  1.0000
  Fe  Fe83      1.0  0.17099807501882167  0.9821866860512355  0.8030761284270578  1.0000
  S   S165      1.0  0.18607028977464998  0.9892228862799433  0.7611779725812187  1.0000
  Fe  Fe84      1.0  0.13331949568812668  0.007966498233629604  0.8474975085670869  1.0000
  S   S166      1.0  0.1050982490958173  0.04742347813509684  0.8573584638835234  1.0000
  S   S167      1.0  0.1793159665740293  0.9406920716841389  0.8252743291945182  1.0000
  S   S168      1.0  0.13803189393191728  0.9689415931484937  0.8738529068369765  1.0000
  Fe  Fe85      1.0  0.9036506905178201  0.10800657225182135  0.8652243688155712  1.0000
  S   S169      1.0  0.9134482350779557  0.12045641933492277  0.8232931402650485  1.0000
  S   S170      1.0  0.8625647583728547  0.12493223340979297  0.8889249944172056  1.0000
  Fe  Fe86      1.0  0.957208485337107  0.06612797457283061  0.8670106839882337  1.0000
  S   S171      1.0  0.9730659547533331  0.07412058581349744  0.8253956746074032  1.0000
  S   S172      1.0  0.9811853857087427  0.034227095179376166  0.8929157837168843  1.0000
  Fe  Fe87      1.0  0.9564872810739394  0.11793310810716602  0.8303757303825058  1.0000
  S   S173      1.0  0.9818225890578107  0.14753207928425807  0.8095066770345625  1.0000
  Fe  Fe88      1.0  0.929297969016566  0.07595206014494425  0.8208591845586265  1.0000
  S   S174      1.0  0.9250947834526816  0.05836583151987136  0.7873607931168952  1.0000
  S   S175      1.0  0.945370996041272  0.10980326622906768  0.8726160575416783  1.0000
  S   S176      1.0  0.9148946243280227  0.06352050869837536  0.8622011927678289  1.0000
  Fe  Fe89      1.0  0.11340543722641411  0.11106509460126542  0.6909076231659793  1.0000
  S   S177      1.0  0.08076238911661987  0.14773775584678664  0.680169910494705  1.0000
  S   S178      1.0  0.13782490284198226  0.11124313677232249  0.7208588497994162  1.0000
  Fe  Fe90      1.0  0.10293177448549397  0.07848209000505196  0.6542168243460258  1.0000
  S   S179      1.0  0.07025445348920263  0.11272649287884823  0.6392120963898539  1.0000
  S   S180      1.0  0.11297290695162648  0.03640967945242104  0.6437325484253382  1.0000
  Fe  Fe91      1.0  0.099301857983462  0.13883832506529656  0.6403984572450735  1.0000
  S   S181      1.0  0.11068506451928806  0.17023378671253514  0.6083165880951984  1.0000
  Fe  Fe92      1.0  0.054883553560772604  0.11829408916923312  0.6801605978210923  1.0000
  S   S182      1.0  0.009776712018554273  0.12049389486054728  0.6971504487514862  1.0000
  S   S183      1.0  0.13387491978649793  0.10387134601498506  0.6512846344788998  1.0000
  S   S184      1.0  0.08570346582466863  0.08231079986318544  0.6951870485400606  1.0000
  Fe  Fe93      1.0  0.009734371279486176  0.8918737578962708  0.7161032098740143  1.0000
  S   S185      1.0  0.04320014563526531  0.9132039116432497  0.6951416829418335  1.0000
  S   S186      1.0  0.9997952145607172  0.8611276877788038  0.6970723794321706  1.0000
  Fe  Fe94      1.0  0.9974342618933106  0.9225822654339986  0.7612103096597069  1.0000
  S   S187      1.0  0.029755609533479666  0.9465297526920368  0.7441427604058105  1.0000
  S   S188      1.0  0.9722368624797295  0.9317957144225875  0.7992032121538296  1.0000
  Fe  Fe95      1.0  0.013243059646356192  0.9505500430355964  0.7081864637482967  1.0000
  S   S189      1.0  0.004319314833533872  0.9911537943614481  0.6842328512307233  1.0000
  Fe  Fe96      1.0  0.05653399093968359  0.9069825128230856  0.7329939234351234  1.0000
  S   S190      1.0  0.10169296212588685  0.897413651372093  0.7368872330744346  1.0000
  S   S191      1.0  0.9784339188970755  0.9298528904298162  0.7261010489815379  1.0000
  S   S192      1.0  0.025675666448069734  0.8823545476813948  0.7531535678510809  1.0000
  Fe  Fe97      1.0  0.682359802404566  0.7951850854522053  0.6440343804902955  1.0000
  S   S193      1.0  0.6928769044220203  0.775076615936463  0.6088523783752277  1.0000
  S   S194      1.0  0.6478541837335021  0.7867011403107221  0.6756541992731775  1.0000
  Fe  Fe98      1.0  0.7272528312455061  0.8270074654183385  0.6261556545493614  1.0000
  S   S195      1.0  0.7417297492045789  0.8097440517285733  0.5893859964726417  1.0000
  S   S196      1.0  0.7463260785301803  0.8595629236247944  0.6322604969341865  1.0000
  Fe  Fe99      1.0  0.6961113755623511  0.8162887669439015  0.5886529485944269  1.0000
  S   S197      1.0  0.6788184641817954  0.8327973886255153  0.552836367160335  1.0000
  Fe  Fe100     1.0  0.737219378724936  0.7704060253012905  0.6131243145188772  1.0000
  S   S198      1.0  0.7694323788430139  0.7322592450193244  0.6060877831535312  1.0000
  S   S199      1.0  0.6817091027901847  0.8369560418296467  0.6235156737173666  1.0000
  S   S200      1.0  0.7267723069572637  0.7869401350011872  0.650283580465841  1.0000
  Fe  Fe101     1.0  0.8990966747438609  0.6982739934541693  0.4438605607067792  1.0000
  S   S201      1.0  0.8626087912777586  0.7305332876379178  0.43280165829190975  1.0000
  S   S202      1.0  0.9140234876553524  0.6632240255865581  0.42117642669413063  1.0000
  Fe  Fe102     1.0  0.9043959773566093  0.7271212654763358  0.4852087537733585  1.0000
  S   S203      1.0  0.8683074119467133  0.7620017354621421  0.47810362379749755  1.0000
  S   S204      1.0  0.9255015645785966  0.727746548366205  0.5174472051236466  1.0000
  Fe  Fe103     1.0  0.8470902396524425  0.7300992363339485  0.47441259702363076  1.0000
  S   S205      1.0  0.8007383536763814  0.7366867568523309  0.48710959258721737  1.0000
  Fe  Fe104     1.0  0.8864073927231727  0.7598344536987724  0.4370726248191882  1.0000
  S   S206      1.0  0.8839178950087657  0.7975216474911281  0.40883942204088636  1.0000
  S   S207      1.0  0.8813422657417508  0.6950096212837299  0.48550736973371844  1.0000
  S   S208      1.0  0.9249085472547137  0.7278321074041195  0.4442330417998685  1.0000
  Fe  Fe105     1.0  0.9325025516685449  0.8943635781506855  0.5810420863777984  1.0000
  S   S209      1.0  0.9420156244931015  0.8497304501212529  0.578480787130172  1.0000
  S   S210      1.0  0.957528896117959  0.9171861433604073  0.5950322412442405  1.0000
  Fe  Fe106     1.0  0.8787281810329001  0.9065604172065145  0.5602739091475829  1.0000
  S   S211      1.0  0.8832456912518402  0.863421748306145  0.5553648051374183  1.0000
  S   S212      1.0  0.840249316747475  0.9373145563227308  0.5513358558219271  1.0000
  Fe  Fe107     1.0  0.896069150070131  0.8535269450968853  0.5934978176670515  1.0000
  S   S213      1.0  0.8776702700421529  0.8216865359909016  0.6205622475695748  1.0000
  Fe  Fe108     1.0  0.9282750957752701  0.8633840258735651  0.5406040525432806  1.0000
  S   S214      1.0  0.9481941893353583  0.844440698764062  0.5052742400007597  1.0000
  S   S215      1.0  0.8878329369402265  0.8968726812098164  0.5998845729573871  1.0000
  S   S216      1.0  0.9226888601743157  0.9077431830018912  0.5417549266567863  1.0000
  Fe  Fe109     1.0  0.7401353077838659  0.9664561196906238  0.41139792118167856  1.0000
  S   S217      1.0  0.7156857899057338  0.9364939489959428  0.4337785529316672  1.0000
  S   S218      1.0  0.7249322100398972  0.0013885639180255575  0.38276759543628336  1.0000
  Fe  Fe110     1.0  0.7907677934051917  0.9417750833607221  0.4356313066217119  1.0000
  S   S219      1.0  0.7723182281443324  0.908794952705431  0.4600129798023029  1.0000
  S   S220      1.0  0.833574890390742  0.9469169073494673  0.4356389651397621  1.0000
  Fe  Fe111     1.0  0.756214831723323  0.9058150956486234  0.4254995761672187  1.0000
  S   S221      1.0  0.7588153411874556  0.8651401728141487  0.4148291095552329  1.0000
  Fe  Fe112     1.0  0.7334151450837422  0.9416366540447626  0.46669036264833996  1.0000
  S   S222      1.0  0.7107000120555327  0.9441899764899437  0.5065914759767993  1.0000
  S   S223      1.0  0.7791199780912768  0.9351041244829303  0.40023919438379635  1.0000
  S   S224      1.0  0.7533127107122147  0.9750089110040768  0.4452970000899704  1.0000
  Fe  Fe113     1.0  0.1899274318463881  0.437820075619863  0.3914164204735832  1.0000
  S   S225      1.0  0.1697062684750649  0.4204600233348247  0.42926901971854764  1.0000
  S   S226      1.0  0.1975039855856427  0.41318969721450705  0.3597704915644099  1.0000
  Fe  Fe114     1.0  0.1941698939876588  0.48750181935875875  0.4109945945694366  1.0000
  S   S227      1.0  0.17363162644209829  0.4750740198129194  0.45035189789941826  1.0000
  S   S228      1.0  0.21200129916824478  0.5240677854755147  0.40270787651656004  1.0000
  Fe  Fe115     1.0  0.20110035039129245  0.43423888857959453  0.4443857592754747  1.0000
  S   S229      1.0  0.2261055642807213  0.4108478541345166  0.47390392931005276  1.0000
  Fe  Fe116     1.0  0.14413608256654512  0.4629102548928677  0.4313369535126349  1.0000
  S   S230      1.0  0.09797742654846377  0.47384661580416304  0.4458075649898972  1.0000
  S   S231      1.0  0.22390599714177453  0.44746851025559214  0.40634200963586353  1.0000
  S   S232      1.0  0.16205795959850225  0.4794999808926378  0.39204812179454385  1.0000
  Fe  Fe117     1.0  0.34343856147940927  0.4804440335940716  0.5421899663927248  1.0000
  S   S233      1.0  0.3387858427069955  0.43850567984951117  0.5590412424045176  1.0000
  S   S234      1.0  0.365289300974688  0.5059440679196974  0.5567210138776125  1.0000
  Fe  Fe118     1.0  0.3191361912457123  0.48025731418038337  0.4955287602700739  1.0000
  S   S235      1.0  0.31206065966658897  0.4383590465633523  0.5079408784074114  1.0000
  S   S236      1.0  0.3146299431132017  0.5062273628666863  0.45815400863526423  1.0000
  Fe  Fe119     1.0  0.2969838207846342  0.4518169232732446  0.5465109584522109  1.0000
  S   S237      1.0  0.25780912257258193  0.44111033442211084  0.5696240301107396  1.0000
  Fe  Fe120     1.0  0.35428377514713727  0.42849793641835915  0.5193508407655579  1.0000
  S   S238      1.0  0.38485537513362394  0.3897975382447461  0.5106228877132719  1.0000
  S   S239      1.0  0.30000950081160077  0.49502276319845423  0.5331022348849318  1.0000
  S   S240      1.0  0.36288673766112284  0.4690761152736442  0.5035184797579964  1.0000
  Fe  Fe121     1.0  0.31321422122010895  0.3012926748373734  0.40223107740497605  1.0000
  S   S241      1.0  0.3433250589187333  0.26169271766684554  0.4099272127981187  1.0000
  S   S242      1.0  0.27111042144374176  0.29903378608369524  0.39618619721051673  1.0000
  Fe  Fe122     1.0  0.3542324439958417  0.33369491534934026  0.40629279456395817  1.0000
  S   S243      1.0  0.3880726214308226  0.29674512810387105  0.41424756141850094  1.0000
  S   S244      1.0  0.35816082969683155  0.3761335076538513  0.40609707441394927  1.0000
  Fe  Fe123     1.0  0.3752346834717668  0.28129543035473376  0.3835572766412977  1.0000
  S   S245      1.0  0.4048263263296207  0.25959676088700934  0.35262860084487924  1.0000
  Fe  Fe124     1.0  0.3529373421896227  0.2807853333491326  0.43981319309336164  1.0000
  S   S246      1.0  0.35339978575936737  0.2613473431244937  0.4799778435998461  1.0000
  S   S247      1.0  0.34419680767287997  0.31974428356806595  0.37317115653015237  1.0000
  S   S248      1.0  0.3200148328029421  0.3189842717700793  0.4343631089562828  1.0000
  Fe  Fe125     1.0  0.18591014098241732  0.2751488971730873  0.6135505552864797  1.0000
  S   S249      1.0  0.1703905013250712  0.28707450676417057  0.5764634620448565  1.0000
  S   S250      1.0  0.16050033020499097  0.2535416220879213  0.6457452661785752  1.0000
  Fe  Fe126     1.0  0.23401734288128834  0.3028298085492502  0.5953424444071045  1.0000
  S   S251      1.0  0.2223585421724388  0.31677024418562044  0.5568335150813802  1.0000
  S   S252      1.0  0.27179533453149524  0.3148720628363042  0.6015295754335335  1.0000
  Fe  Fe127     1.0  0.17844430412782147  0.32724447289638975  0.5779407173596801  1.0000
  S   S253      1.0  0.1470155279938103  0.3646142106113454  0.5662947673450588  1.0000
  Fe  Fe128     1.0  0.21553100751237775  0.2753111785545335  0.5593217936565575  1.0000
  S   S254      1.0  0.22829411911543843  0.255829747001544  0.523784500402915  1.0000
  S   S255      1.0  0.19042773548404646  0.31663204028029995  0.6164338579730257  1.0000
  S   S256      1.0  0.23087436213295948  0.25984371596432043  0.5963319834568095  1.0000
  C   C1        1.0  0.31958409036845414  0.25688457985007684  0.4928763415521255  1.0000
  C   C2        1.0  0.30897333707990177  0.2586126285818535  0.5186318752303887  1.0000
  C   C3        1.0  0.2808686313342366  0.2582098723022918  0.528255569785323  1.0000
  C   C4        1.0  0.26375855289607175  0.25480368578619184  0.5123855414821341  1.0000
  C   C5        1.0  0.2746965351399638  0.2519138792304581  0.4869133799690544  1.0000
  C   C6        1.0  0.3023897677702149  0.25354327868082666  0.477068502133052  1.0000
  H   H1        1.0  0.32223789904738176  0.26091576161268304  0.5310237645319907  1.0000
  H   H2        1.0  0.2725648811448144  0.2603053827709207  0.5480041298816043  1.0000
  H   H3        1.0  0.2616378981526803  0.24898682230521232  0.47464807299513834  1.0000
  H   H4        1.0  0.310474179281144  0.2518773772251063  0.4572988502886203  1.0000
  C   C7        1.0  0.261765334574626  0.40627153222767565  0.5803192560347266  1.0000
  C   C8        1.0  0.2382247450334613  0.3951093578190829  0.5861652508851377  1.0000
  C   C9        1.0  0.24118945776492984  0.3671125273355782  0.5934696767975602  1.0000
  C   C10       1.0  0.26761867008920875  0.3502031505263998  0.595201892765502  1.0000
  C   C11       1.0  0.29104349375908817  0.36148364271186567  0.5903064981366862  1.0000
  C   C12       1.0  0.2881596887673612  0.3894556134609379  0.5826329428275332  1.0000
  H   H5        1.0  0.21770410981518387  0.40801797557082736  0.5846897262398205  1.0000
  H   H6        1.0  0.22298958681096578  0.358583812676686  0.5978254166640342  1.0000
  H   H7        1.0  0.3114867040890167  0.34850251147389527  0.5919703658563248  1.0000
  H   H8        1.0  0.30635910718639264  0.3979489682948578  0.5785989660884768  1.0000
  C   C13       1.0  0.3811172153069888  0.38571858941704024  0.4803082239155292  1.0000
  C   C14       1.0  0.37126682256980176  0.40850097865396423  0.4636131258972277  1.0000
  C   C15       1.0  0.36549435149308085  0.40543156878925046  0.4403615998353865  1.0000
  C   C16       1.0  0.3685235384403534  0.3795484237919666  0.43405465219191797  1.0000
  C   C17       1.0  0.3787581555116054  0.3567222258690646  0.4506247856816171  1.0000
  C   C18       1.0  0.3855843123126536  0.35980279126702996  0.47352459950111037  1.0000
  H   H9        1.0  0.36806323918836903  0.4286103898455167  0.4685624019065079  1.0000
  H   H10       1.0  0.35820821141691955  0.42323751859260156  0.42761404465720776  1.0000
  H   H11       1.0  0.3813130683452446  0.3366688773024987  0.4459375153848367  1.0000
  H   H12       1.0  0.39326969651642957  0.3420879557939508  0.4863642606805442  1.0000
  C   C19       1.0  0.23826316253028226  0.520200083548482  0.42071439634937924  1.0000
  C   C20       1.0  0.2551763068503376  0.5388589356285157  0.4150970733644662  1.0000
  C   C21       1.0  0.2780714338804139  0.5347045726588534  0.42737418108248637  1.0000
  C   C22       1.0  0.28378717347516846  0.5122420399378542  0.44578124604233926  1.0000
  C   C23       1.0  0.26627998867081354  0.49402370148224684  0.4522274132449464  1.0000
  C   C24       1.0  0.24372790500379618  0.4977870004728706  0.43938620674171514  1.0000
  H   H13       1.0  0.2511067061351307  0.5561133172095729  0.40064681493012105  1.0000
  H   H14       1.0  0.29164816712774744  0.5487738749553415  0.42232980952512156  1.0000
  H   H15       1.0  0.2709854262306684  0.4764160959506324  0.46614077062582565  1.0000
  H   H16       1.0  0.23100532929956571  0.4830591867389241  0.44354491748977115  1.0000
  C   C25       1.0  0.2188637563289615  0.38157092367654794  0.3688781268035298  1.0000
  C   C26       1.0  0.24174921135996907  0.3799317246472546  0.3805053995661833  1.0000
  C   C27       1.0  0.2583543907516777  0.35457963660742103  0.38838158903138137  1.0000
  C   C28       1.0  0.25153734104712777  0.3308490503285191  0.3853009618463953  1.0000
  C   C29       1.0  0.22847304648643105  0.3324584060831145  0.37399426387526263  1.0000
  C   C30       1.0  0.21240488138079267  0.35780115460471834  0.36543713886990786  1.0000
  H   H17       1.0  0.2469546010051236  0.39820817833919736  0.38301456636055875  1.0000
  H   H18       1.0  0.2761753466290489  0.35342631660503665  0.39710770041238425  1.0000
  H   H19       1.0  0.2231044927834903  0.31413605883343854  0.3716650401234773  1.0000
  H   H20       1.0  0.19461227298255498  0.35900154529523126  0.3566420734118619  1.0000
  C   C31       1.0  0.20256625985409854  0.4025081037020444  0.500874135094029  1.0000
  C   C32       1.0  0.1742264015223229  0.4060301829668845  0.4997065340343338  1.0000
  C   C33       1.0  0.15620891963014089  0.39618895842198765  0.5206183091863335  1.0000
  C   C34       1.0  0.1666156305903014  0.38313439260965854  0.5426487617778613  1.0000
  C   C35       1.0  0.19429784995041735  0.38175186128454547  0.5443930212624805  1.0000
  C   C36       1.0  0.21237931098419868  0.3912083066525276  0.5234741622963428  1.0000
  H   H21       1.0  0.16627595946080473  0.4154534327693312  0.4825113206321995  1.0000
  H   H22       1.0  0.13469073560289602  0.39748084670191697  0.5192474851948758  1.0000
  H   H23       1.0  0.20193243776616843  0.3725907680593797  0.5617599113543945  1.0000
  H   H24       1.0  0.2339904981237502  0.3893444855579793  0.5247102014720583  1.0000
  C   C37       1.0  0.8394264714840494  0.9422242195036363  0.5187754871855561  1.0000
  C   C38       1.0  0.8631407676455971  0.9319744924047926  0.5015116701461954  1.0000
  C   C39       1.0  0.8617349653685645  0.9347911359689006  0.47564959587429134  1.0000
  C   C40       1.0  0.8362827031482336  0.9466547556811686  0.4672657575760471  1.0000
  C   C41       1.0  0.8126134540258004  0.9569257547070708  0.4845184489567844  1.0000
  C   C42       1.0  0.8143437114057399  0.9552487964409461  0.510147414289966  1.0000
  H   H25       1.0  0.8825959114629833  0.9219721671618148  0.5080304204196843  1.0000
  H   H26       1.0  0.8801714832223694  0.9271588381788219  0.46232562860458554  1.0000
  H   H27       1.0  0.7929208217878915  0.9662662036831177  0.478230801246857  1.0000
  H   H28       1.0  0.7960139409906422  0.9634246326182394  0.5233867628366426  1.0000
  C   C43       1.0  0.8491837311629027  0.8165093852448229  0.41078307031715644  1.0000
  C   C44       1.0  0.8427645733905974  0.8408099958492647  0.39459748591182037  1.0000
  C   C45       1.0  0.815049253442582  0.8561231439519803  0.3962174250021452  1.0000
  C   C46       1.0  0.7936521545843582  0.8468918359345292  0.4137199743320693  1.0000
  C   C47       1.0  0.80009393367956  0.8227928544629874  0.43010161514645745  1.0000
  C   C48       1.0  0.8278499392409411  0.8077106000973778  0.4287091883576192  1.0000
  H   H29       1.0  0.8591615814591353  0.8476948558128418  0.3806500252890571  1.0000
  H   H30       1.0  0.8101471122151094  0.8747815278206998  0.383537616424601  1.0000
  H   H31       1.0  0.7836397268883208  0.8157756074998528  0.443905201180947  1.0000
  H   H32       1.0  0.832632862423674  0.7891812273098691  0.441471899078482  1.0000
  C   C49       1.0  0.9338199933741839  0.7592762426585317  0.5142884800917228  1.0000
  C   C50       1.0  0.9304883967354478  0.7719867663432395  0.5357965647240406  1.0000
  C   C51       1.0  0.9348398907860205  0.798228880633725  0.5331347970752655  1.0000
  C   C52       1.0  0.9437923829942624  0.8112407259670501  0.5090548133640334  1.0000
  C   C53       1.0  0.9483342606218599  0.79800349902067  0.48770298255211675  1.0000
  C   C54       1.0  0.9425973492461441  0.772359722432103  0.49022822332014837  1.0000
  H   H33       1.0  0.9241895626943567  0.7617135391479616  0.5544616063456914  1.0000
  H   H34       1.0  0.9316978073794102  0.8081848493852886  0.5497454294648085  1.0000
  H   H35       1.0  0.9559973308772304  0.8076526042643442  0.46915074706559723  1.0000
  H   H36       1.0  0.9455882007143245  0.7624216774182762  0.47361564303162973  1.0000
  C   C55       1.0  0.782558087529035  0.8487191114782041  0.6312241948452244  1.0000
  C   C56       1.0  0.7988410305028129  0.867983079839264  0.6254817610409603  1.0000
  C   C57       1.0  0.8280593245289104  0.8596991567163546  0.6223128052339261  1.0000
  C   C58       1.0  0.8410518693437111  0.8321669881453738  0.6260139590897553  1.0000
  C   C59       1.0  0.8247184305206496  0.8128980321736515  0.6329978001157809  1.0000
  C   C60       1.0  0.7954829946215737  0.8211200921943668  0.6349650828431755  1.0000
  H   H37       1.0  0.7889002757476398  0.8893577190281485  0.622957851724928  1.0000
  H   H38       1.0  0.8403950334775825  0.8747397266271065  0.6171258857031454  1.0000
  H   H39       1.0  0.8347183920234763  0.79160535394543  0.6363096906740388  1.0000
  H   H40       1.0  0.782919809091944  0.8061767431863615  0.6397266146931134  1.0000
  C   C61       1.0  0.6870643917610871  0.864026306126782  0.5400718412981328  1.0000
  C   C62       1.0  0.69181046664455  0.8713083451865028  0.5137426875716066  1.0000
  C   C63       1.0  0.6990373559385195  0.8960030601515939  0.5033555957169196  1.0000
  C   C64       1.0  0.700387918510772  0.9139115179216662  0.5193284333939729  1.0000
  C   C65       1.0  0.6949925806632382  0.9069149585328865  0.5456772729145287  1.0000
  C   C66       1.0  0.6889234351398635  0.8817344885945974  0.5560394120936396  1.0000
  H   H41       1.0  0.6905892489970602  0.857565078159892  0.50134192769897  1.0000
  H   H42       1.0  0.7034056392960573  0.9012049902962173  0.48298999958981903  1.0000
  H   H43       1.0  0.6962387812812142  0.9206709788097709  0.5580529951185178  1.0000
  H   H44       1.0  0.6857289717416772  0.8761397907973272  0.5763674966380353  1.0000
  C   C67       1.0  0.7770650856871512  0.7313007432288616  0.5732231837345286  1.0000
  C   C68       1.0  0.8022186800791176  0.7150808342137541  0.5622934651205316  1.0000
  C   C69       1.0  0.8096968511468292  0.7166772589608374  0.5357619312332763  1.0000
  C   C70       1.0  0.7915542073923391  0.7337825773221873  0.5202330792095933  1.0000
  C   C71       1.0  0.7660150474698258  0.7492646111784289  0.5312151494908463  1.0000
  C   C72       1.0  0.7589491691467466  0.7482996204526413  0.5576455932884766  1.0000
  H   H45       1.0  0.8162324381376099  0.7017955209673319  0.5742754790507586  1.0000
  H   H46       1.0  0.8293310072521072  0.704461489503304  0.5273327576585424  1.0000
  H   H47       1.0  0.7519311577163958  0.7624933016347625  0.5192538242952935  1.0000
  H   H48       1.0  0.7394388586620226  0.7607893600986588  0.5658687600179342  1.0000
  C   C73       1.0  0.9886862319676343  0.8765698500590752  0.6684239586552557  1.0000
  C   C74       1.0  0.9752908344363643  0.9040361341450676  0.6655658316079481  1.0000
  C   C75       1.0  0.9655113668664927  0.9162574832539587  0.6430237566343572  1.0000
  C   C76       1.0  0.9693466756663224  0.9011225299336987  0.6231511797729712  1.0000
  C   C77       1.0  0.9830186429274954  0.873691634350232  0.6257690544132373  1.0000
  C   C78       1.0  0.9924880233087874  0.8613429656658896  0.6485458088591453  1.0000
  H   H49       1.0  0.9719225352596014  0.9158009910639778  0.6808948967229114  1.0000
  H   H50       1.0  0.9546686295917582  0.9374123810110189  0.641109392107542  1.0000
  H   H51       1.0  0.9863158364387524  0.8620322078777206  0.6102486790313977  1.0000
  H   H52       1.0  0.003016458856355042  0.8400952689752194  0.6506734655157754  1.0000
  C   C79       1.0  0.12295842592339483  0.1948884531821506  0.6181252653925781  1.0000
  C   C80       1.0  0.11325258015723551  0.20229701029811722  0.6425171449282203  1.0000
  C   C81       1.0  0.12452463700356436  0.22071143750203104  0.6507600857900993  1.0000
  C   C82       1.0  0.14575355520515346  0.2315680824567286  0.6347035790431713  1.0000
  C   C83       1.0  0.1550865112347317  0.22465197686341815  0.6100961761684794  1.0000
  C   C84       1.0  0.1434801006861781  0.20652622692650316  0.6017297580987959  1.0000
  H   H53       1.0  0.09672581305836843  0.19421651208639928  0.6549048009448591  1.0000
  H   H54       1.0  0.11694971623334578  0.22634397332346193  0.669678465679825  1.0000
  H   H55       1.0  0.17192325684328516  0.23243395977177758  0.5977515545994297  1.0000
  H   H56       1.0  0.15108080878057983  0.2008151217368218  0.5828325485210332  1.0000
  C   C85       1.0  0.08271594590486184  0.023677300809329963  0.6529073080847214  1.0000
  C   C86       1.0  0.05663353123755303  0.04133139412608568  0.6586012677584419  1.0000
  C   C87       1.0  0.03264469366123901  0.031162487251960344  0.6676942215952972  1.0000
  C   C88       1.0  0.034709815987201686  0.0032340943436318017  0.6722595561746495  1.0000
  C   C89       1.0  0.060834547534803995  0.9854125930678936  0.6668293518544476  1.0000
  C   C90       1.0  0.08472385642695124  0.9956798258659778  0.6564775717786808  1.0000
  H   H57       1.0  0.05483787506697631  0.06291170047810338  0.6560180056826387  1.0000
  H   H58       1.0  0.012641567318000257  0.04506134970572691  0.67170686231651  1.0000
  H   H59       1.0  0.06271105199327587  0.9637700270590419  0.670468795934664  1.0000
  H   H60       1.0  0.10490283111038723  0.9819345236577848  0.6520975739305346  1.0000
  C   C91       1.0  0.9358984060761595  0.022916461022485308  0.7912817010087473  1.0000
  C   C92       1.0  0.9345571169299431  0.00776004126105379  0.8154414069471206  1.0000
  C   C93       1.0  0.9443196131105369  0.9794136502350211  0.8179561406056063  1.0000
  C   C94       1.0  0.9562296496699914  0.9664414252467126  0.7963435070690529  1.0000
  C   C95       1.0  0.9573847604423382  0.9816865999309736  0.7723289989132333  1.0000
  C   C96       1.0  0.9468702504499126  0.009710457609802207  0.7698069085185312  1.0000
  H   H61       1.0  0.9257202487220662  0.017796614290423562  0.8321243653466748  1.0000
  H   H62       1.0  0.9432256685692473  0.9676484087588862  0.836598947230201  1.0000
  H   H63       1.0  0.9665827159512885  0.9719935008598698  0.7555754472844399  1.0000
  H   H64       1.0  0.9479073018424596  0.021058190815796768  0.7511484385121678  1.0000
  C   C97       1.0  0.9879780243131572  0.14298801577149564  0.7774694343684604  1.0000
  C   C98       1.0  0.9741163718966899  0.1262902969053331  0.7699800960393202  1.0000
  C   C99       1.0  0.9805995952497797  0.12010654103643904  0.7451741857368129  1.0000
  C   C100      1.0  0.0012765539371075248  0.13021561314982352  0.7276216533756464  1.0000
  C   C101      1.0  0.015199910469478432  0.14714203686968114  0.7348858138133718  1.0000
  C   C102      1.0  0.008296482306273445  0.153810698391841  0.7598054615165812  1.0000
  H   H65       1.0  0.9585873967389581  0.11768778980677655  0.7833334791246626  1.0000
  H   H66       1.0  0.9700374623400039  0.10681065969103314  0.7399598407233824  1.0000
  H   H67       1.0  0.031002492461755123  0.15530903786880024  0.7212937233415436  1.0000
  H   H68       1.0  0.01906444797618101  0.1668148837972017  0.7655045765809575  1.0000
  C   C103      1.0  0.10524687778866475  0.9142081145056679  0.8153146673872088  1.0000
  C   C104      1.0  0.12570302392253327  0.919748961594457  0.7945874271236938  1.0000
  C   C105      1.0  0.12551293802189045  0.9129740762083585  0.7708271747633731  1.0000
  C   C106      1.0  0.10381682970013406  0.9023371476578111  0.7673611629809223  1.0000
  C   C107      1.0  0.08309846122403532  0.897194122197567  0.788005263032588  1.0000
  C   C108      1.0  0.08431736553792589  0.9023681929997623  0.8121498606419211  1.0000
  H   H69       1.0  0.14190775278093845  0.928966190542186  0.7968215428677772  1.0000
  H   H70       1.0  0.1418151444639506  0.916584086716171  0.7550054609506426  1.0000
  H   H71       1.0  0.06638258601266601  0.888801868296839  0.7854329297463484  1.0000
  H   H72       1.0  0.06865642747730155  0.897735095239878  0.8282137292078376  1.0000
  C   C109      1.0  0.17505933895389528  0.023561566968796743  0.7497524180538518  1.0000
  C   C110      1.0  0.1650599152269133  0.0429172145947152  0.7665531171381709  1.0000
  C   C111      1.0  0.15490607400629816  0.0701491648664882  0.7573935982123159  1.0000
  C   C112      1.0  0.1533911510507508  0.07779855772314627  0.73162741701675  1.0000
  C   C113      1.0  0.1631706947657781  0.05845373887405402  0.7148089732306503  1.0000
  C   C114      1.0  0.1747372466780625  0.0314702256789805  0.7237986625675024  1.0000
  H   H73       1.0  0.16539568085893677  0.03701262264445715  0.786584795138978  1.0000
  H   H74       1.0  0.1476712767216056  0.08512819720622547  0.7704010620131796  1.0000
  H   H75       1.0  0.1621614377686688  0.06431113668612692  0.6948329666683178  1.0000
  H   H76       1.0  0.18291754531948412  0.016600788675879663  0.7107279183207351  1.0000
  C   C115      1.0  0.07098060325929285  0.043637304373282504  0.8696398533604183  1.0000
  C   C116      1.0  0.04883875590728137  0.066587241588274  0.8704975636632915  1.0000
  C   C117      1.0  0.021171515529669227  0.06373995586940562  0.877854067048121  1.0000
  C   C118      1.0  0.015727791186453954  0.03798023996768318  0.885699132340115  1.0000
  C   C119      1.0  0.0379297108536254  0.015072123238361934  0.8860135501446053  1.0000
  C   C120      1.0  0.06550436144917383  0.017862922237291023  0.8773664717806118  1.0000
  H   H77       1.0  0.05307909775309838  0.08656304170983953  0.8650807016384334  1.0000
  H   H78       1.0  0.004121831293732114  0.08154596071789966  0.8777553568518406  1.0000
  H   H79       1.0  0.03384149948179682  0.9951269504614475  0.8923043164375342  1.0000
  H   H80       1.0  0.08247973268855305  7.530262804333887e-05  0.8769215904408569  1.0000
  C   C121      1.0  0.04865871566753621  0.42818220981436406  0.41471849638264097  1.0000
  C   C122      1.0  0.03495206492208588  0.45153036098327093  0.42600400301114  1.0000
  C   C123      1.0  0.049991870975020836  0.46468875373952284  0.4367687378759034  1.0000
  C   C124      1.0  0.07887590713485396  0.4548261173944791  0.43579702975520784  1.0000
  C   C125      1.0  0.09236639398748545  0.430922272060723  0.4253246541176333  1.0000
  C   C126      1.0  0.07721929893172229  0.41745166281127644  0.41503307326271677  1.0000
  H   H81       1.0  0.012765080547511944  0.4594912496283531  0.4263684351861051  1.0000
  H   H82       1.0  0.03941619920211559  0.48303188205329334  0.4450620078194588  1.0000
  H   H83       1.0  0.11451086018273295  0.422991682598549  0.4247510201490679  1.0000
  H   H84       1.0  0.08785260605252243  0.399354509460948  0.40635594188274166  1.0000
  C   C127      1.0  0.8413328721269018  0.6725779407431736  0.3802248591398621  1.0000
  C   C128      1.0  0.8362299709054254  0.674702589627337  0.40617637888063496  1.0000
  C   C129      1.0  0.8586934082207918  0.6709098324233603  0.418971681944333  1.0000
  C   C130      1.0  0.88622674258215  0.6648143302219769  0.40587457646102926  1.0000
  C   C131      1.0  0.8913516049014006  0.6614423460042855  0.3802223176998637  1.0000
  C   C132      1.0  0.8688977683816402  0.6653709698808392  0.3674029734646841  1.0000
  H   H85       1.0  0.81499346762507  0.6794258330013264  0.4163871338276435  1.0000
  H   H86       1.0  0.8547079026846234  0.6730358068993303  0.43896029118280616  1.0000
  H   H87       1.0  0.9125505319393242  0.6570505041603281  0.36993521827345505  1.0000
  H   H88       1.0  0.8729944571862202  0.6636352383425277  0.34740016782199307  1.0000
  C   C133      1.0  0.8784439489423298  0.511501512911105  0.3755195652354784  1.0000
  C   C134      1.0  0.884201989939816  0.5231456611552755  0.3502741257603109  1.0000
  C   C135      1.0  0.8622856399176638  0.5381942350649838  0.3377468569140743  1.0000
  C   C136      1.0  0.8345124300417353  0.5409616271505806  0.3501839881589797  1.0000
  C   C137      1.0  0.8286052853532568  0.5280860096517159  0.3749432506698592  1.0000
  C   C138      1.0  0.8506039291180216  0.5136156741451408  0.3877124265717181  1.0000
  H   H89       1.0  0.9054954685926534  0.5219649417198411  0.3408294056813016  1.0000
  H   H90       1.0  0.866978611128372  0.548168612499417  0.3186409865417933  1.0000
  H   H91       1.0  0.8071452274587229  0.5304111293808362  0.38467156039772543  1.0000
  H   H92       1.0  0.8460649129317631  0.5046064921642147  0.40724784552075477  1.0000
  C   C139      1.0  0.9810964556269077  0.6529257541817666  0.264121090981889  1.0000
  C   C140      1.0  0.9547444566917104  0.6642699577984497  0.27727392959295366  1.0000
  C   C141      1.0  0.9380175813759796  0.6473277911896511  0.2922333193747471  1.0000
  C   C142      1.0  0.9478988700490826  0.6191654256570461  0.2942755682249623  1.0000
  C   C143      1.0  0.9750756594620809  0.6079984967140043  0.28267930658938417  1.0000
  C   C144      1.0  0.9915582566544507  0.6248872009802726  0.2674499106602125  1.0000
  H   H93       1.0  0.946840577216799  0.6860413988041844  0.27505387413929117  1.0000
  H   H94       1.0  0.9175596966595042  0.6560813093915855  0.30215911058248807  1.0000
  H   H95       1.0  0.9831981222460456  0.5862667995964405  0.2849043698181993  1.0000
  H   H96       1.0  0.01227289018358353  0.61620330146477  0.25788753111139634  1.0000
  C   C145      1.0  0.052702358612242116  0.5448814499243488  0.24600334459831158  1.0000
  C   C146      1.0  0.044281729952746436  0.5215743575675602  0.2589237819036897  1.0000
  C   C147      1.0  0.035201403884607727  0.5192517565904534  0.2852417802816461  1.0000
  C   C148      1.0  0.0354633772662729  0.5397599480404275  0.2988476667210085  1.0000
  C   C149      1.0  0.04456453375411206  0.5628048712793047  0.28595853968588414  1.0000
  C   C150      1.0  0.05278554237351949  0.565541270558529  0.25949189120417526  1.0000
  H   H97       1.0  0.04400141941149983  0.5056277590464994  0.24851148159071387  1.0000
  H   H98       1.0  0.02777224561818177  0.5016346451550735  0.2948167963991051  1.0000
  H   H99       1.0  0.04473299546240255  0.5788238648301129  0.2962553739079726  1.0000
  H   H100      1.0  0.059288132723808284  0.5836062414570009  0.2495810184017505  1.0000
  C   C151      1.0  0.8204185349855526  0.6003305604914057  0.19480281460079424  1.0000
  C   C152      1.0  0.7990804293125695  0.6237814316170515  0.19758056477512811  1.0000
  C   C153      1.0  0.8018318965575277  0.643739839471636  0.21068913537108497  1.0000
  C   C154      1.0  0.8256500038376061  0.6399796615681903  0.22155084383555723  1.0000
  C   C155      1.0  0.8471969819504359  0.6167237136050662  0.2185147049182239  1.0000
  C   C156      1.0  0.8447773712843138  0.5971489571241011  0.2047432959674297  1.0000
  H   H101      1.0  0.7803121119554267  0.6264452605362624  0.189715472942741  1.0000
  H   H102      1.0  0.7852218906313699  0.6617983630298909  0.2128925769866854  1.0000
  H   H103      1.0  0.86584499048524  0.6139452882548895  0.22652187610945862  1.0000
  H   H104      1.0  0.8617474773204393  0.5797014354442322  0.20184007921683955  1.0000
  C   C157      1.0  0.9568364632281515  0.5423447059964488  0.1603916775624898  1.0000
  C   C158      1.0  0.9338234155016532  0.5641019554204755  0.15735202059506662  1.0000
  C   C159      1.0  0.9370337797806018  0.5908428370977442  0.1541959828108283  1.0000
  C   C160      1.0  0.9630936979995673  0.5957506953515251  0.1545857658933514  1.0000
  C   C161      1.0  0.9858020984373395  0.5739413280710117  0.15829199041682004  1.0000
  C   C162      1.0  0.9827765477777572  0.5472993726057583  0.1608819302010546  1.0000
  H   H105      1.0  0.9136899670716959  0.5603365924329453  0.157034410931125  1.0000
  H   H106      1.0  0.9193597453156886  0.6076465695680848  0.15143308303240538  1.0000
  H   H107      1.0  0.0058955370799752835  0.5774837686010357  0.15874951602519918  1.0000
  H   H108      1.0  0.0005417051264418049  0.5305013578245245  0.16339123913460743  1.0000
  C   C163      1.0  0.8976413729412996  0.45924456401710995  0.26608541310079464  1.0000
  C   C164      1.0  0.9219712914200364  0.45389697051780703  0.24798055708443137  1.0000
  C   C165      1.0  0.9482837650687984  0.44964465094416417  0.2547496054335624  1.0000
  C   C166      1.0  0.9504722334595493  0.4512318947114483  0.27959745990702367  1.0000
  C   C167      1.0  0.9261875377478727  0.45671996660644915  0.2978580416465685  1.0000
  C   C168      1.0  0.8997403228154921  0.46045307433323485  0.2911408547350156  1.0000
  H   H109      1.0  0.9207292119333981  0.4527184036688393  0.228727353114685  1.0000
  H   H110      1.0  0.9669989686904304  0.44552531858324096  0.24056963510625376  1.0000
  H   H111      1.0  0.927778038808456  0.45813598733041777  0.3171010589636982  1.0000
  H   H112      1.0  0.8810010758329991  0.46476248069017534  0.3052443658978491  1.0000
  C   C169      1.0  0.7622179017529993  0.45396876257903457  0.1492572928372536  1.0000
  C   C170      1.0  0.7704801837100621  0.4750514398950364  0.1563984581034636  1.0000
  C   C171      1.0  0.7989557620584914  0.47463677727744086  0.15369967983208532  1.0000
  C   C172      1.0  0.8192823250645851  0.4529141348378835  0.14423264220755724  1.0000
  C   C173      1.0  0.8110502569201598  0.43176407002333106  0.13711357601411264  1.0000
  C   C174      1.0  0.7825266004582868  0.43226604418903347  0.13966233253685728  1.0000
  H   H113      1.0  0.754807882538279  0.49202495069797464  0.16356503029032055  1.0000
  H   H114      1.0  0.8050640707543816  0.49150813532067555  0.15833795422556046  1.0000
  H   H115      1.0  0.8267341053794345  0.4149135564705727  0.1297524585673147  1.0000
  H   H116      1.0  0.7762810145102563  0.41568120346883436  0.13457008930245168  1.0000
  C   C175      1.0  0.7073050652182424  0.45131794885058685  0.009930813038097952  1.0000
  C   C176      1.0  0.7141180449782029  0.4629731161086613  0.9848171499604057  1.0000
  C   C177      1.0  0.6982843520298375  0.46230919943744964  0.9666508970233421  1.0000
  C   C178      1.0  0.6755061958812295  0.4500915035006942  0.9735326213371419  1.0000
  C   C179      1.0  0.6681528560593234  0.43912017612018645  0.9988059134285062  1.0000
  C   C180      1.0  0.6840522330713875  0.4396994701697443  0.016996827016336313  1.0000
  H   H117      1.0  0.7319803454384649  0.47211313789359305  0.9792452897254055  1.0000
  H   H118      1.0  0.7036699346312046  0.47142441351744796  0.9473254067010484  1.0000
  H   H119      1.0  0.6505938258919776  0.42958518823904285  0.004169059543623899  1.0000
  H   H120      1.0  0.6783461337163995  0.4310169801213573  0.03638302722261799  1.0000
  C   C181      1.0  0.864832649264095  0.1505318817949276  0.9642487111527845  1.0000
  C   C182      1.0  0.8400863739744989  0.146475872799193  0.9593534777461691  1.0000
  C   C183      1.0  0.8397246915593625  0.13811151248441536  0.9363309499405421  1.0000
  C   C184      1.0  0.8641573397028535  0.13358868972034263  0.918227246162759  1.0000
  C   C185      1.0  0.8890369739731476  0.13717652676925102  0.9233538257284402  1.0000
  C   C186      1.0  0.8893979281566844  0.14562387557191697  0.946357303060785  1.0000
  H   H121      1.0  0.821179138092162  0.14976053529000546  0.9733634725064089  1.0000
  H   H122      1.0  0.8203961275659659  0.13539279940860915  0.9324785419169133  1.0000
  H   H123      1.0  0.9077279508213522  0.1346479943750883  0.9093126419122513  1.0000
  H   H124      1.0  0.9084488506462889  0.14923676382150589  0.9499569574258308  1.0000
  C   C187      1.0  0.8025575454992956  0.3055549478631728  0.0428067585779937  1.0000
  C   C188      1.0  0.7864824711732187  0.2882997824675016  0.05796656511359087  1.0000
  C   C189      1.0  0.7679941002175193  0.29652046909332086  0.07980376099772277  1.0000
  C   C190      1.0  0.765168629246975  0.32227427774659584  0.08628874205511589  1.0000
  C   C191      1.0  0.7815775261270371  0.3394387135198211  0.07139158274194937  1.0000
  C   C192      1.0  0.8005687083865815  0.33091433238438805  0.04985083432259379  1.0000
  H   H125      1.0  0.7884483789176792  0.26849822757117264  0.052974057958938885  1.0000
  H   H126      1.0  0.7556500309249198  0.283013824356735  0.09142538146467938  1.0000
  H   H127      1.0  0.779896897550324  0.35912434483678835  0.0766024726096845  1.0000
  H   H128      1.0  0.813470459021171  0.3440773213964686  0.03850500635420173  1.0000
  C   C193      1.0  0.7880830112464466  0.29526721050092464  0.915491074295535  1.0000
  C   C194      1.0  0.8046117246177552  0.3037715714031333  0.9287612891922491  1.0000
  C   C195      1.0  0.8047073623221692  0.3312404944205578  0.9263379845706164  1.0000
  C   C196      1.0  0.7875184439986753  0.35036349136795125  0.9113124373341469  1.0000
  C   C197      1.0  0.7710360932158041  0.3418481328567819  0.8979450310623275  1.0000
  C   C198      1.0  0.7716440761273138  0.31425050251314396  0.8997193870372453  1.0000
  H   H129      1.0  0.8174146332286525  0.2892748921419646  0.9409386050840691  1.0000
  H   H130      1.0  0.8176007285553756  0.33767473655822283  0.9366135527708159  1.0000
  H   H131      1.0  0.757886467566762  0.35647817117442676  0.8861303834809753  1.0000
  H   H132      1.0  0.7589080736787663  0.3077624518160489  0.8893428627756477  1.0000
  C   C199      1.0  0.6043400339234903  0.3560146984134872  0.9233112364024615  1.0000
  C   C200      1.0  0.6191968082170235  0.37482031967438645  0.9250338003400489  1.0000
  C   C201      1.0  0.6422480690007446  0.3786154355521942  0.9065800905267921  1.0000
  C   C202      1.0  0.6509812843636799  0.36316072890308354  0.8865123032318125  1.0000
  C   C203      1.0  0.6358507630848913  0.34465108407595424  0.8843099488561412  1.0000
  C   C204      1.0  0.6123136589037286  0.34123110258019107  0.9026707046191705  1.0000
  H   H133      1.0  0.6129826430250187  0.38655789597280554  0.9405254663250765  1.0000
  H   H134      1.0  0.6533690545390148  0.3933471843491868  0.9081682379936062  1.0000
  H   H135      1.0  0.6424746123954764  0.33276494426621034  0.8686765901719412  1.0000
  H   H136      1.0  0.600705753588021  0.3267334316802388  0.9012047738004221  1.0000
  C   C205      1.0  0.6820293757127442  0.31118445477644024  0.03347379580440126  1.0000
  C   C206      1.0  0.7097958759634885  0.3033871651162012  0.03726217225274105  1.0000
  C   C207      1.0  0.7235382461732007  0.2759894621337409  0.039232149726225796  1.0000
  C   C208      1.0  0.7096211619866074  0.2564351322055903  0.03734337417139458  1.0000
  C   C209      1.0  0.6812238463991168  0.2639663012950373  0.035647102652844036  1.0000
  C   C210      1.0  0.6674473821220706  0.2914131753477397  0.033698434367885395  1.0000
  H   H137      1.0  0.7209340115557679  0.31844785388197355  0.03819812685226953  1.0000
  H   H138      1.0  0.7452113673747326  0.26997870319401684  0.04151158774161266  1.0000
  H   H139      1.0  0.6702363744933978  0.24881501205568846  0.034564691005950623  1.0000
  H   H140      1.0  0.6458078314934164  0.29711951833905076  0.03174668861201065  1.0000
  C   C211      1.0  0.574423954097699  0.44032619673598267  0.055534392163047966  1.0000
  C   C212      1.0  0.602365020802484  0.4259227712307816  0.052753538390154175  1.0000
  C   C213      1.0  0.6170828782534905  0.42111059095644215  0.07289179933056252  1.0000
  C   C214      1.0  0.6037304064990858  0.4303643367656654  0.09600128003590115  1.0000
  C   C215      1.0  0.5759835289899319  0.4455029397402057  0.09857196254168639  1.0000
  C   C216      1.0  0.5613972316765031  0.4508031261045913  0.07818852566533246  1.0000
  H   H141      1.0  0.6124502400915034  0.41763167456771666  0.035303185273399366  1.0000
  H   H142      1.0  0.638306255821448  0.4091182394580585  0.07083272428105324  1.0000
  H   H143      1.0  0.5657212563023702  0.45280959799437964  0.11645154307594463  1.0000
  H   H144      1.0  0.5397240542918109  0.4618605520300795  0.08039779927361486  1.0000
  C   C217      1.0  0.5768604755021658  0.76379611251884  0.6506376183464316  1.0000
  C   C218      1.0  0.5975732579693942  0.7731770271701186  0.6323723333379441  1.0000
  C   C219      1.0  0.6192435013539818  0.7806751284709219  0.6399556235500105  1.0000
  C   C220      1.0  0.6201453334120952  0.7788980647769972  0.6657655645941182  1.0000
  C   C221      1.0  0.5991153656308648  0.770010032436662  0.6839819607888415  1.0000
  C   C222      1.0  0.5775605885397499  0.7623674342249522  0.6764253863896116  1.0000
  H   H145      1.0  0.5974256825780345  0.7735977642209794  0.6124430444644534  1.0000
  H   H146      1.0  0.6353714053762249  0.7875069913855338  0.6258632252719992  1.0000
  H   H147      1.0  0.5996577232879412  0.7686833693835903  0.7039804917657708  1.0000
  H   H148      1.0  0.5614021039345201  0.7554192203864354  0.6906127408452127  1.0000
  C   C223      1.0  0.4091780482314786  0.46869314403143336  0.6242505038464947  1.0000
  C   C224      1.0  0.42039813902785395  0.48659401898110505  0.6048594538992949  1.0000
  C   C225      1.0  0.4069975284294208  0.497547557744024  0.5839379452932218  1.0000
  C   C226      1.0  0.38259094738807775  0.490276000358147  0.5821194739586126  1.0000
  C   C227      1.0  0.37195171217305356  0.4714527462552486  0.6009308817214128  1.0000
  C   C228      1.0  0.3852277523869622  0.46071443190736716  0.6220571664874873  1.0000
  H   H149      1.0  0.43947255501780896  0.4919401003483026  0.6058438578378552  1.0000
  H   H150      1.0  0.41548261233169687  0.5118182264252416  0.5691783749401726  1.0000
  H   H151      1.0  0.3529629326526885  0.4659246889874067  0.599659507167103  1.0000
  H   H152      1.0  0.37653685748794175  0.44675329676601505  0.6370095566815195  1.0000
  C   C229      1.0  0.467311825125422  0.5949300679522802  0.6601969473490916  1.0000
  C   C230      1.0  0.47006533285385976  0.6170765964644555  0.6702277980168981  1.0000
  C   C231      1.0  0.4936301889523608  0.6280816577827615  0.6609752688796834  1.0000
  C   C232      1.0  0.5138850195527287  0.6175897645513001  0.641050621707665  1.0000
  C   C233      1.0  0.5106111557419447  0.5960855693390196  0.6304570450991588  1.0000
  C   C234      1.0  0.48752444512590587  0.5845856858678287  0.6402021595137147  1.0000
  H   H153      1.0  0.4545242868109281  0.6250549496212409  0.6857646100970947  1.0000
  H   H154      1.0  0.4960612091451427  0.6445426137262106  0.6694237484872118  1.0000
  H   H155      1.0  0.5261675351565078  0.5878720354858907  0.6150319270080696  1.0000
  H   H156      1.0  0.4854685754076956  0.567599099830381  0.63220271530024  1.0000
  C   C235      1.0  0.515097663200971  0.6478574151454954  0.7691650399079788  1.0000
  C   C236      1.0  0.5434412985155855  0.6453644565466726  0.7694119940435733  1.0000
  C   C237      1.0  0.5558680819287244  0.629144273241908  0.7895183634190753  1.0000
  C   C238      1.0  0.5400955219311834  0.6148492838599336  0.8089827273394012  1.0000
  C   C239      1.0  0.5117290786450049  0.6174353864017917  0.8087444988444531  1.0000
  C   C240      1.0  0.4991216394636051  0.6343722802617845  0.7891238275958071  1.0000
  H   H157      1.0  0.5556885263463304  0.6561165035077785  0.7541865074362486  1.0000
  H   H158      1.0  0.5778356445255728  0.6271926243514047  0.7896140343431456  1.0000
  H   H159      1.0  0.4993536446453751  0.6066456525117169  0.8237697329855814  1.0000
  H   H160      1.0  0.4770996531692303  0.6365530076689253  0.7890836955752449  1.0000
  C   C241      1.0  0.4705687510008909  0.5129994596154945  0.7961732212053095  1.0000
  C   C242      1.0  0.49551031684924624  0.49311297428493767  0.7969154327714602  1.0000
  C   C243      1.0  0.5069556411873172  0.4777997348187213  0.7767053222063981  1.0000
  C   C244      1.0  0.49366179725151027  0.48258390476437674  0.7555815890230405  1.0000
  C   C245      1.0  0.468619378486891  0.5022974550187856  0.755008349716438  1.0000
  C   C246      1.0  0.4569515750058614  0.5172967720000714  0.7753600546310921  1.0000
  H   H161      1.0  0.5059374196326363  0.4893509856217532  0.8131166019739539  1.0000
  H   H162      1.0  0.526314922681719  0.4625359744905719  0.777317183798346  1.0000
  H   H163      1.0  0.45823770661304647  0.5061865887235146  0.7388669728215065  1.0000
  H   H164      1.0  0.4376746359872765  0.5326539009398985  0.7747093493842707  1.0000
  C   C247      1.0  0.7414209531223773  0.45961768208773907  0.752333021597023  1.0000
  C   C248      1.0  0.7232926858927237  0.4847616063329628  0.7559786494724938  1.0000
  C   C249      1.0  0.7172322889561875  0.4937727139437076  0.7797570270847831  1.0000
  C   C250      1.0  0.7282168733605113  0.47712477170039164  0.8003123060692254  1.0000
  C   C251      1.0  0.7471678505532049  0.4523697671288316  0.7964507465212951  1.0000
  C   C252      1.0  0.7540909234955363  0.44377283817549545  0.7723388823141192  1.0000
  H   H165      1.0  0.7136630251535196  0.49717591736432  0.7404704583928666  1.0000
  H   H166      1.0  0.7032687189715766  0.513260585438  0.7822621532034368  1.0000
  H   H167      1.0  0.7567211997111258  0.44000230014233915  0.8119275152772653  1.0000
  H   H168      1.0  0.768451896840054  0.4244864157846246  0.7694089988560785  1.0000
  C   C253      1.0  0.627842990980473  0.5633382309531768  0.7349621502367142  1.0000
  C   C254      1.0  0.6091170184021774  0.5872258895881184  0.7416671902867412  1.0000
  C   C255      1.0  0.6132720263977977  0.6122393371858182  0.7287210053812689  1.0000
  C   C256      1.0  0.6363568087744241  0.6133989496706979  0.7094111844521522  1.0000
  C   C257      1.0  0.6562525644916603  0.5896713494806071  0.7039898368620586  1.0000
  C   C258      1.0  0.6519452852047461  0.5645703740702745  0.7168200782388972  1.0000
  H   H169      1.0  0.5909289610045189  0.5864182637306488  0.7562846145040467  1.0000
  H   H170      1.0  0.5982463152530382  0.6306770587971676  0.7332466756950387  1.0000
  H   H171      1.0  0.6742696736446389  0.5905514961398889  0.6891609237539581  1.0000
  H   H172      1.0  0.6670824010327724  0.5462606637495533  0.7123849042678637  1.0000
  C   C259      1.0  0.6261386804669726  0.4833002846310616  0.6294378370443259  1.0000
  C   C260      1.0  0.6236280082110385  0.49194380303440016  0.6039626388278964  1.0000
  C   C261      1.0  0.597460009946092  0.4974788276091218  0.5965035147520926  1.0000
  C   C262      1.0  0.573742374449984  0.4944521721536757  0.6145316052545305  1.0000
  C   C263      1.0  0.5761985231983462  0.4857283223957483  0.6400176023079983  1.0000
  C   C264      1.0  0.6024428137646596  0.4800014931887945  0.6474470430903533  1.0000
  H   H173      1.0  0.6419404332658801  0.4944069644991276  0.5899612581231187  1.0000
  H   H174      1.0  0.5955766826991274  0.5041611538540747  0.576767057964468  1.0000
  H   H175      1.0  0.5578712749139887  0.4832871775268441  0.6539015112710176  1.0000
  H   H176      1.0  0.6043152613296864  0.4728814652060701  0.6669745742763185  1.0000
  C   C265      1.0  0.6115578003383964  0.41964293903789845  0.783974231065351  1.0000
  C   C266      1.0  0.6122107858549166  0.4037420082743695  0.8076646827370076  1.0000
  C   C267      1.0  0.6020432399382033  0.4159043822441334  0.829930953632725  1.0000
  C   C268      1.0  0.5899438948909733  0.4437255945385434  0.8285649873451121  1.0000
  C   C269      1.0  0.5879153156228039  0.45937588094053805  0.8048917618626471  1.0000
  C   C270      1.0  0.5992538115380224  0.4474334762095756  0.7826123427036108  1.0000
  H   H177      1.0  0.6215452537399659  0.3822471658024663  0.8089129850072957  1.0000
  H   H178      1.0  0.6036734365837886  0.40372883431038303  0.8482338983411946  1.0000
  H   H179      1.0  0.578506256303192  0.48082517049693485  0.8036233581426178  1.0000
  H   H180      1.0  0.5985558941650986  0.45984032805822117  0.764391786100661  1.0000
  C   C271      1.0  0.17607520583771732  0.6422998386878184  0.168888941595573  1.0000
  C   C272      1.0  0.17860344729390673  0.6411907844602979  0.1429528254807713  1.0000
  C   C273      1.0  0.15466653018032864  0.6441888692714436  0.132378071288971  1.0000
  C   C274      1.0  0.1281178978776164  0.6491574028031005  0.1475155693336167  1.0000
  C   C275      1.0  0.12556771243155418  0.6509072797185  0.17331436607578365  1.0000
  C   C276      1.0  0.14956710375156465  0.6470256509879584  0.18410405400181987  1.0000
  H   H181      1.0  0.1991016004642175  0.6372671827421627  0.13119004737529874  1.0000
  H   H182      1.0  0.15682034096928085  0.6421757436910914  0.11255883308574248  1.0000
  H   H183      1.0  0.10513259551301064  0.6558230601868585  0.18488840699988807  1.0000
  H   H184      1.0  0.14758337369725455  0.6483204753614994  0.2040925513512077  1.0000
  C   C277      1.0  0.33416807347695804  0.7684682566823348  0.13838833077183377  1.0000
  C   C278      1.0  0.32872272424582266  0.7571180501703015  0.11896700277125188  1.0000
  C   C279      1.0  0.3022903732772972  0.7520165416879385  0.1205376307876385  1.0000
  C   C280      1.0  0.2811263426579802  0.7589223341877743  0.14117778963194505  1.0000
  C   C281      1.0  0.286221776680818  0.7714308432507483  0.15994758535237755  1.0000
  C   C282      1.0  0.3128945931593914  0.7758018646156113  0.15876790937530796  1.0000
  H   H185      1.0  0.34505024365053394  0.7517504246963598  0.10303246567477813  1.0000
  H   H186      1.0  0.29819326993706835  0.7429792914319925  0.10569827656284525  1.0000
  H   H187      1.0  0.26983577998979075  0.7768456278821095  0.1758769371295432  1.0000
  H   H188      1.0  0.3171367370315224  0.7844553755339261  0.1738613913382828  1.0000
  C   C283      1.0  0.22562212969146023  0.9100112932000058  0.8804292482619875  1.0000
  C   C284      1.0  0.22498685332822613  0.892240696382012  0.903089216784757  1.0000
  C   C285      1.0  0.23508815184175194  0.8643380143789918  0.9025672043420615  1.0000
  C   C286      1.0  0.2467332264584712  0.8542943201993183  0.8794833213778331  1.0000
  C   C287      1.0  0.2467164353708115  0.871990119659445  0.8567221298105288  1.0000
  C   C288      1.0  0.23603147941219954  0.8999004286542187  0.8571874577063918  1.0000
  H   H189      1.0  0.2165322118882362  0.9000598537547914  0.9210364162165411  1.0000
  H   H190      1.0  0.2336455239115354  0.8505900164879182  0.9200438502261837  1.0000
  H   H191      1.0  0.255726078404228  0.8642273362450151  0.8388235767259061  1.0000
  H   H192      1.0  0.23684394775188738  0.9137070084670239  0.8396535509435834  1.0000
  C   C289      1.0  0.349162167844462  0.8473400804244099  0.9716114870136927  1.0000
  C   C290      1.0  0.3692782909468066  0.8532382862992041  0.9827111344864309  1.0000
  C   C291      1.0  0.3621063218398381  0.8604801274405574  0.007389863523368365  1.0000
  C   C292      1.0  0.3345055139749952  0.8630745245056151  0.020335956466767058  1.0000
  C   C293      1.0  0.31425701739348505  0.8582238548115784  0.008769896181186738  1.0000
  C   C294      1.0  0.32174288633518405  0.8497131570224055  0.9847653866536071  1.0000
  H   H193      1.0  0.39047725350213236  0.8516443402150977  0.9724986207729983  1.0000
  H   H194      1.0  0.3777611576344813  0.8644697937831775  0.01624762970662418  1.0000
  H   H195      1.0  0.29285999323246126  0.8603850090780997  0.018571560312522335  1.0000
  H   H196      1.0  0.3060967927358303  0.8451311442004966  0.9765367880497043  1.0000
  C   C295      1.0  0.2416632868264028  0.7667159049490574  0.023040080270052575  1.0000
  C   C296      1.0  0.2383544209727885  0.760275323333151  0.04942464764601309  1.0000
  C   C297      1.0  0.2346326108620808  0.7346084019418236  0.06089634330857955  1.0000
  C   C298      1.0  0.23399211912518691  0.71535963858587  0.0460244730114314  1.0000
  C   C299      1.0  0.23626597250243203  0.7220516602631495  0.019710637404124792  1.0000
  C   C300      1.0  0.24024590101240917  0.7477061442245696  0.008214012034370142  1.0000
  H   H197      1.0  0.23941203577333564  0.7748297837447331  0.060981946269867894  1.0000
  H   H198      1.0  0.2324418385263897  0.7297607959543837  0.08128678464699772  1.0000
  H   H199      1.0  0.23562743947074272  0.7072423082782958  0.008157123880785112  1.0000
  H   H200      1.0  0.24203920305857643  0.7527780381759528  0.9879144951189489  1.0000
  C   C301      1.0  0.5341792456506426  0.5660472301416135  0.9782050699522368  1.0000
  C   C302      1.0  0.5076402913998151  0.5615247854156086  0.988860354142741  1.0000
  C   C303      1.0  0.49464711458336363  0.5481562226611382  0.976315193929118  1.0000
  C   C304      1.0  0.5079457542783177  0.5397416793757323  0.952838279733697  1.0000
  C   C305      1.0  0.5351741882206661  0.542900403806589  0.942939883061983  1.0000
  C   C306      1.0  0.548394907780744  0.5559348098458796  0.9556699390683385  1.0000
  H   H201      1.0  0.4967316889250504  0.5689835903700308  0.006516645724074621  1.0000
  H   H202      1.0  0.47385843359158114  0.5452967515806785  0.9844558793691809  1.0000
  H   H203      1.0  0.5460446228943072  0.5356134475018253  0.9254387507502998  1.0000
  H   H204      1.0  0.5690012040510504  0.559298176833434  0.9474437656882848  1.0000
  C   C307      1.0  0.38903500736434454  0.6182027494004173  0.047608397431706084  1.0000
  C   C308      1.0  0.36187615053410777  0.6139944226827337  0.05573726656352087  1.0000
  C   C309      1.0  0.3467215484344308  0.6208082119588696  0.07952518859537715  1.0000
  C   C310      1.0  0.35922262290281737  0.6308182766516124  0.09541878144159574  1.0000
  C   C311      1.0  0.3865986979460514  0.6340833260866017  0.08751817053923797  1.0000
  C   C312      1.0  0.4011520973785407  0.6284045965666457  0.06353117677276954  1.0000
  H   H205      1.0  0.3524165140216109  0.6059226905032005  0.043573243391095404  1.0000
  H   H206      1.0  0.3256211648775023  0.6179399523533254  0.08575470859422783  1.0000
  H   H207      1.0  0.3965797107947643  0.6414456445383696  0.0997070959223205  1.0000
  H   H208      1.0  0.4218277402461164  0.6320324108921241  0.05749929827814082  1.0000
  C   C313      1.0  0.46555238507171937  0.7148841813999101  0.06500090724418686  1.0000
  C   C314      1.0  0.4811825837733219  0.7253513752537283  0.04268650864035332  1.0000
  C   C315      1.0  0.4806375892646618  0.7531990593215765  0.03783155671295332  1.0000
  C   C316      1.0  0.46377561637289944  0.7706407634779835  0.05491407461994106  1.0000
  C   C317      1.0  0.44818499375606624  0.7600645058295821  0.07712792287864598  1.0000
  C   C318      1.0  0.44936735491030133  0.7322549576772339  0.08232236908312492  1.0000
  H   H209      1.0  0.49395355032794713  0.7119590916880207  0.029349910070325454  1.0000
  H   H210      1.0  0.49278233001527433  0.7612498265531168  0.02061616987072149  1.0000
  H   H211      1.0  0.4350353924840798  0.7731953131121204  0.09042117929144504  1.0000
  H   H212      1.0  0.43723653275312796  0.7243448536774745  0.09957088969379863  1.0000
  C   C319      1.0  0.4352343915686022  0.70469933864131  0.9405134986929549  1.0000
  C   C320      1.0  0.4182505879421357  0.7300528950448645  0.9336339030705704  1.0000
  C   C321      1.0  0.38978655658936023  0.7325079132468283  0.9335411579647807  1.0000
  C   C322      1.0  0.3786209551840956  0.7094705343798757  0.9394038472462235  1.0000
  C   C323      1.0  0.39597110214644504  0.6839918261139928  0.9450277115154745  1.0000
  C   C324      1.0  0.42409558060799074  0.6816818611916231  0.946023734096821  1.0000
  H   H213      1.0  0.4268015091985591  0.7478999478099939  0.9292331147038967  1.0000
  H   H214      1.0  0.3765246585966594  0.7522449677539603  0.9290799899474308  1.0000
  H   H215      1.0  0.3874248758047887  0.666169067927291  0.94947614319661  1.0000
  H   H216      1.0  0.4370363051194763  0.6620734680385535  0.9512229330347101  1.0000
  C   C325      1.0  0.6068983938359571  0.2523434353915604  0.11054303602805517  1.0000
  C   C326      1.0  0.5784053543498334  0.2527261781819355  0.11816156940942155  1.0000
  C   C327      1.0  0.5584278982808135  0.27276015939136394  0.10647165408736119  1.0000
  C   C328      1.0  0.5670048158046612  0.29225388082498194  0.08708809138172803  1.0000
  C   C329      1.0  0.5955007413430008  0.291760053644365  0.07947925620072803  1.0000
  C   C330      1.0  0.6154148046649068  0.27171778165249705  0.09104077588467004  1.0000
  H   H217      1.0  0.5717050511479539  0.2377766260975082  0.13317149183104848  1.0000
  H   H218      1.0  0.5363963361778398  0.2730274446106351  0.11233567755630858  1.0000
  H   H219      1.0  0.6022740105532954  0.30672168129395605  0.06459869208627908  1.0000
  H   H220      1.0  0.6374630937818934  0.27107345283202633  0.08470733863161294  1.0000
  C   C331      1.0  0.4745062720338162  0.923299135987821  0.11598353580199586  1.0000
  C   C332      1.0  0.46406642362472056  0.9159466229198262  0.09696099190521713  1.0000
  C   C333      1.0  0.4401810918240482  0.9051435854210643  0.1031893008160116  1.0000
  C   C334      1.0  0.42648506482256676  0.9022208061169795  0.12840221511989192  1.0000
  C   C335      1.0  0.43690252044217043  0.909666797721998  0.14735519152031734  1.0000
  C   C336      1.0  0.4610816994190802  0.9198715157083326  0.14120110227829982  1.0000
  H   H221      1.0  0.4741957794723906  0.9190532176345376  0.07736721319474042  1.0000
  H   H222      1.0  0.43187920041552263  0.8998835284395711  0.08843605665486204  1.0000
  H   H223      1.0  0.42640333144633447  0.9072518525991569  0.16689962917305132  1.0000
  H   H224      1.0  0.4695126144709961  0.9247181697776958  0.1560633205357028  1.0000
  C   C337      1.0  0.5678521389209071  0.051228110879164165  0.13532492641494528  1.0000
  C   C338      1.0  0.5885422262656661  0.06531804240798528  0.13408531616288477  1.0000
  C   C339      1.0  0.5811675404245327  0.09343706623788037  0.1344481255040535  1.0000
  C   C340      1.0  0.5531193949633658  0.107519904306167  0.135975953695036  1.0000
  C   C341      1.0  0.5326368697779486  0.09361888190271743  0.1358672675973883  1.0000
  C   C342      1.0  0.5399763751210529  0.06547804312981806  0.13564181564387257  1.0000
  H   H225      1.0  0.6101933365647567  0.05443461864308336  0.1335261203561792  1.0000
  H   H226      1.0  0.5972533707170695  0.10413562527251904  0.13366530474092403  1.0000
  H   H227      1.0  0.5110392634956239  0.10445292124631961  0.1364874402677203  1.0000
  H   H228      1.0  0.5239565728821224  0.054811364639686326  0.13607849831148056  1.0000
  C   C343      1.0  0.3926607291298708  0.1742529046895206  0.35670362542744083  1.0000
  C   C344      1.0  0.38882691458268154  0.18561221173354026  0.3790797186090355  1.0000
  C   C345      1.0  0.39312040077237087  0.21165768056253323  0.3780141590343433  1.0000
  C   C346      1.0  0.4005380888742736  0.22661586476377435  0.3545323461507007  1.0000
  C   C347      1.0  0.4044413815097571  0.21521776780861807  0.33220637762720856  1.0000
  C   C348      1.0  0.4006932060600351  0.18902709080896163  0.3333087228292885  1.0000
  H   H229      1.0  0.3828481480600409  0.17415414597553872  0.3972524995644063  1.0000
  H   H230      1.0  0.39104221956623025  0.21997763135642234  0.3953925708951012  1.0000
  H   H231      1.0  0.4099673274220458  0.2267948427357515  0.31398958421854245  1.0000
  H   H232      1.0  0.4036498990214059  0.18051286899385663  0.3159662232226634  1.0000
  C   C349      1.0  0.390479686940499  0.08516399728528559  0.22328953353269726  1.0000
  C   C350      1.0  0.41678277140726216  0.06730976017510307  0.22260387709968338  1.0000
  C   C351      1.0  0.4308260884467494  0.05674328569896092  0.20013454165555478  1.0000
  C   C352      1.0  0.41890553327952557  0.06457352999404753  0.17812601692650623  1.0000
  C   C353      1.0  0.39262315099713496  0.08250277081513824  0.1787770284180196  1.0000
  C   C354      1.0  0.3782568336237213  0.09251678990082404  0.2014400754283121  1.0000
  H   H233      1.0  0.4261228362959067  0.061419660906649715  0.23946237451608662  1.0000
  H   H234      1.0  0.4509126123862486  0.04276230178268259  0.19985320324121453  1.0000
  H   H235      1.0  0.38328413753075463  0.08858334625966058  0.16180936699664533  1.0000
  H   H236      1.0  0.3578449854005056  0.10628023674241217  0.20196345858770537  1.0000
  C   C355      1.0  0.4964373325146543  0.16815742688820637  0.24783773964076197  1.0000
  C   C356      1.0  0.5115859417512331  0.14410825074488728  0.2596727559083776  1.0000
  C   C357      1.0  0.5405443599010389  0.1401916329875345  0.25820510206891006  1.0000
  C   C358      1.0  0.5542630566595486  0.16007712015298087  0.24454728807389822  1.0000
  C   C359      1.0  0.5390249766244525  0.18414609924651393  0.23295773920246712  1.0000
  C   C360      1.0  0.510107096947418  0.1882170289738421  0.23464187631366532  1.0000
  H   H237      1.0  0.5011157362681871  0.12842332226945685  0.269660524757618  1.0000
  H   H238      1.0  0.5524660137373314  0.12146804539205537  0.2668378931156111  1.0000
  H   H239      1.0  0.5495863654756704  0.19964119282283227  0.22255792656895662  1.0000
  H   H240      1.0  0.4984035691438258  0.20681211888707415  0.2254623877031088  1.0000
  C   C361      1.0  0.7269896380529742  0.9889076000927723  0.3543673542768845  1.0000
  C   C362      1.0  0.7508704032608381  0.9699477983217443  0.34523237213482916  1.0000
  C   C363      1.0  0.7510857555377616  0.9569685877912006  0.32466204376192176  1.0000
  C   C364      1.0  0.7274501703379026  0.9630612449879273  0.313092256692547  1.0000
  C   C365      1.0  0.7041267474357091  0.9831916039406503  0.32123049542188425  1.0000
  C   C366      1.0  0.7039160875763216  0.9961626313516649  0.3418847906622882  1.0000
  H   H241      1.0  0.7691659638993206  0.9651184638950175  0.35406093510893843  1.0000
  H   H242      1.0  0.7693034658733076  0.941704313162774  0.3181296848917913  1.0000
  H   H243      1.0  0.6859077167187866  0.9881852432060007  0.3121860966868781  1.0000
  H   H244      1.0  0.6854277516175616  0.010896832478677313  0.34886665713454373  1.0000
  C   C367      1.0  0.5746085022531817  0.9279755598915677  0.2647648176659379  1.0000
  C   C368      1.0  0.5512759269272146  0.9176036803384717  0.2765360122154532  1.0000
  C   C369      1.0  0.5268514967201015  0.9252384840625901  0.2658874517700505  1.0000
  C   C370      1.0  0.5258226803503713  0.9429484364175237  0.24320253642268622  1.0000
  C   C371      1.0  0.549226133391042  0.9531438780769399  0.23114940724720645  1.0000
  C   C372      1.0  0.5735992408912872  0.9456761182938588  0.24199894433266964  1.0000
  H   H245      1.0  0.5520516170389703  0.9037545661148717  0.2940184508079867  1.0000
  H   H246      1.0  0.5088965927599494  0.9171006322243029  0.2751058549069634  1.0000
  H   H247      1.0  0.5484999112200251  0.9667512523582563  0.21355597456837144  1.0000
  H   H248      1.0  0.5917729825789866  0.9530652284527776  0.2325193611407463  1.0000
  C   C373      1.0  0.5180875339602121  0.041309452015043754  0.3011930196683978  1.0000
  C   C374      1.0  0.5387051428559869  0.017300342072715833  0.29866466918252094  1.0000
  C   C375      1.0  0.5670686730771195  0.017621364008587905  0.295207145043974  1.0000
  C   C376      1.0  0.574869984206055  0.04190054361201359  0.2945635691437644  1.0000
  C   C377      1.0  0.5542305795143199  0.06567277041866791  0.2983306530912612  1.0000
  C   C378      1.0  0.5258205833225822  0.06548448710577126  0.3012753827635602  1.0000
  H   H249      1.0  0.5328181100781448  0.9984900215605751  0.2987946153498713  1.0000
  H   H250      1.0  0.5828415407872973  0.9990539832527874  0.2928009170862985  1.0000
  H   H251      1.0  0.5602699175397882  0.08431444818553223  0.2983775995242905  1.0000
  H   H252      1.0  0.5099803165560226  0.08399353355148792  0.3035681958361723  1.0000
  C   C379      1.0  0.6793929418955769  0.01583188014176009  0.17151308086055847  1.0000
  C   C380      1.0  0.6959455589538721  0.02210660793063936  0.1481792892850105  1.0000
  C   C381      1.0  0.6964293383015334  0.049146525341105675  0.13881271300611467  1.0000
  C   C382      1.0  0.6796316692649182  0.06990228630661952  0.1523771733843725  1.0000
  C   C383      1.0  0.6625325623560998  0.0636416777362988  0.17542160217450933  1.0000
  C   C384      1.0  0.6627861099127677  0.036546328141397896  0.18525866512412761  1.0000
  H   H253      1.0  0.7088742118069083  0.006041956869875117  0.13762228163834503  1.0000
  H   H254      1.0  0.709680639694906  0.05395677286276447  0.12098722201867579  1.0000
  H   H255      1.0  0.6497466216535859  0.0796195641154643  0.1859155251994744  1.0000
  H   H256      1.0  0.6502139413931944  0.03162708149184833  0.2034003490475016  1.0000
  N   N1        1.0  0.19128775220619976  0.15085481200698345  0.6674422284084794  1.0000
  C   C385      1.0  0.1879945249303952  0.15651222199782902  0.6404708138522741  1.0000
  C   C386      1.0  0.16543417394475626  0.16454555988554653  0.6831415385727073  1.0000
  C   C387      1.0  0.21509400119773728  0.1611737271940602  0.6705215804558123  1.0000
  C   C388      1.0  0.1966065365414597  0.1212984819875708  0.6756263095099585  1.0000
  H   H257      1.0  0.2066349723675849  0.14571120959859332  0.6280958729769887  1.0000
  H   H258      1.0  0.1851637308744153  0.17850473532868508  0.6334752190292583  1.0000
  H   H259      1.0  0.16936475080400046  0.15024437358046214  0.6375229527256879  1.0000
  H   H260      1.0  0.16641286205164058  0.15931672024480847  0.7037658401084748  1.0000
  H   H261      1.0  0.16181496780050664  0.18696934064650883  0.6785874681107781  1.0000
  H   H262      1.0  0.1466920294988383  0.158559158386894  0.6801213930554737  1.0000
  H   H263      1.0  0.2349698916810583  0.15141770840356086  0.6588469394959895  1.0000
  H   H264      1.0  0.21810141583019074  0.15730767815755628  0.6906858165421172  1.0000
  H   H265      1.0  0.21163482820506185  0.18349642895270776  0.6645041283662535  1.0000
  H   H266      1.0  0.21611196550956807  0.11028798887891772  0.6644131594718783  1.0000
  H   H267      1.0  0.1791001698904221  0.11294713473482301  0.6733111918869011  1.0000
  H   H268      1.0  0.19855612926317126  0.11628902778431661  0.6960748850436937  1.0000
  N   N2        1.0  0.4061212778849925  0.9992705111422859  0.11933965820122716  1.0000
  C   C389      1.0  0.3965048910319963  0.9800882621185248  0.10796584327503744  1.0000
  C   C390      1.0  0.4026778932008929  0.9915976034525181  0.14717151846396614  1.0000
  C   C391      1.0  0.38938405267399195  0.027079282211774247  0.11348264077875014  1.0000
  C   C392      1.0  0.43596182925093796  0.9983078862741753  0.10878676221940053  1.0000
  H   H269      1.0  0.3741150484795963  0.9800750226145245  0.11559294406840381  1.0000
  H   H270      1.0  0.40878961094872956  0.9589658212483171  0.11212368450932764  1.0000
  H   H271      1.0  0.3988501596826578  0.9851192271961086  0.08695531270002244  1.0000
  H   H272      1.0  0.4097405008398516  0.005671015700195348  0.15639252233237277  1.0000
  H   H273      1.0  0.3804111054882889  0.9920897675685221  0.15575715837897253  1.0000
  H   H274      1.0  0.41504821117606205  0.9706945373189472  0.15227236448915793  1.0000
  H   H275      1.0  0.3961674978303913  0.04195070577015536  0.12196780635275561  1.0000
  H   H276      1.0  0.3667332736865833  0.028609207141841564  0.12113417819521222  1.0000
  H   H277      1.0  0.39166176869921465  0.03364579439471105  0.09264317752802187  1.0000
  H   H278      1.0  0.4438090856917012  0.012904290705288535  0.11654843622274802  1.0000
  H   H279      1.0  0.43952125533840736  0.003333293114124558  0.08775709659719966  1.0000
  H   H280      1.0  0.44934293633891825  0.9778638747298195  0.11341194627762197  1.0000
  N   N3        1.0  0.6912551212326955  0.3060254334019844  0.948941690528616  1.0000
  C   C393      1.0  0.7168349546503416  0.3077235753993352  0.9572689210323466  1.0000
  C   C394      1.0  0.6853618997163176  0.27904334003098064  0.9587184042408144  1.0000
  C   C395      1.0  0.6955163420168696  0.3100243083598581  0.9208958206069265  1.0000
  C   C396      1.0  0.6673977737657839  0.32724549648923595  0.958931542559057  1.0000
  H   H281      1.0  0.7143833491443287  0.304564013113315  0.9783595487165511  1.0000
  H   H282      1.0  0.7220640692444386  0.32775028484330504  0.9500759469850866  1.0000
  H   H283      1.0  0.7351965368302901  0.2919206885524082  0.9500566735575086  1.0000
  H   H284      1.0  0.7030590513471257  0.262543842271211  0.9516440972913517  1.0000
  H   H285      1.0  0.6821281209843618  0.2753925585181336  0.9798544744817878  1.0000
  H   H286      1.0  0.6661485713992649  0.27701159224690275  0.9528044617737743  1.0000
  H   H287      1.0  0.6765606308254629  0.3090365200355559  0.9138821228450386  1.0000
  H   H288      1.0  0.7133841854442241  0.2943300208773829  0.9127385077550514  1.0000
  H   H289      1.0  0.700158957497177  0.33016789639241306  0.9128801718854037  1.0000
  H   H290      1.0  0.6476195881687905  0.32618600980150486  0.9533823715509957  1.0000
  H   H291      1.0  0.670915863417302  0.3479225165543666  0.9516354547164809  1.0000
  H   H292      1.0  0.6639234713712476  0.3250949619677003  0.9800292303044487  1.0000
  N   N4        1.0  0.41304969890273335  0.5840766272524986  0.9477344405778458  1.0000
  C   C397      1.0  0.3860501505606899  0.6039917986439004  0.9526532254579807  1.0000
  C   C398      1.0  0.41416781635453453  0.5610889984184237  0.9684474542153401  1.0000
  C   C399      1.0  0.43622179466343575  0.5972300909257894  0.9466557361537692  1.0000
  C   C400      1.0  0.41581212306568227  0.5740233611661223  0.9232750156258595  1.0000
  H   H293      1.0  0.38439241158131987  0.621570552239611  0.937326756841465  1.0000
  H   H294      1.0  0.38356627351763234  0.6120559846229155  0.9709207040798031  1.0000
  H   H295      1.0  0.3680287812762876  0.5947337451188135  0.9538582609504628  1.0000
  H   H296      1.0  0.39663331144885544  0.5510164735882255  0.970227522931238  1.0000
  H   H297      1.0  0.4340161008373649  0.5453937958361909  0.9650677950975227  1.0000
  H   H298      1.0  0.41292189217125097  0.5678370268803543  0.9871166574136725  1.0000
  H   H299      1.0  0.456924867253631  0.5828900326883865  0.9426767767996052  1.0000
  H   H300      1.0  0.4350175011541026  0.6044548701012278  0.9650492382646758  1.0000
  H   H301      1.0  0.4357082885214338  0.6150377834958893  0.9316209580900656  1.0000
  H   H302      1.0  0.41521891453700127  0.5907827561896613  0.9071637046759363  1.0000
  H   H303      1.0  0.3986808104316354  0.5639311351521463  0.92339483010295  1.0000
  H   H304      1.0  0.4359870204313013  0.5588732048723218  0.919092813880322  1.0000
  N   N5        1.0  0.5297816090112307  0.6319296725658541  0.8991085940006217  1.0000
  C   C401      1.0  0.5444570634654017  0.6270343199486428  0.9210021686776602  1.0000
  C   C402      1.0  0.5042192040566408  0.6538288667709852  0.9030468804177443  1.0000
  C   C403      1.0  0.5220540311993432  0.606827895377194  0.8966647116754276  1.0000
  C   C404      1.0  0.5484022263440629  0.6400691320172911  0.8756300953858726  1.0000
  H   H305      1.0  0.5641095952223099  0.6109543917473571  0.9184593443403245  1.0000
  H   H306      1.0  0.5312591747721225  0.620304757063008  0.9389807848275376  1.0000
  H   H307      1.0  0.5500446053858583  0.6457173771605244  0.9238040721818557  1.0000
  H   H308      1.0  0.49261407485222797  0.6581128017883237  0.8868793075292071  1.0000
  H   H309      1.0  0.48965641675604465  0.6486108547469432  0.9206378247181443  1.0000
  H   H310      1.0  0.5092803017604683  0.6731132919955777  0.9049470774688861  1.0000
  H   H311      1.0  0.5110199269270325  0.6098404134596176  0.8802472571197539  1.0000
  H   H312      1.0  0.508182478592129  0.5999092438997321  0.914097944913405  1.0000
  H   H313      1.0  0.5409366252015364  0.5900051665656709  0.8933415063521157  1.0000
  H   H314      1.0  0.537923183049104  0.6439989207429074  0.8587244159537669  1.0000
  H   H315      1.0  0.567755888479853  0.6238834466434744  0.8717426331725681  1.0000
  H   H316      1.0  0.554829361632234  0.6588556674036365  0.8767938629416284  1.0000
  N   N6        1.0  0.09920174312631175  0.4723570773656477  0.3492151038470658  1.0000
  C   C405      1.0  0.1197137815067395  0.44899878641441177  0.3596278939595558  1.0000
  C   C406      1.0  0.07210201761308323  0.47519678500432777  0.3666969906278456  1.0000
  C   C407      1.0  0.09552150327479726  0.46785904967439607  0.3241599418007151  1.0000
  C   C408      1.0  0.10926207148857146  0.4974123058086562  0.34650444371899114  1.0000
  H   H317      1.0  0.14059569219059379  0.44614996275893154  0.34708455083362455  1.0000
  H   H318      1.0  0.11260449459646561  0.4297925522046154  0.3620679365667957  1.0000
  H   H319      1.0  0.12276807533321549  0.45166111233543843  0.37862476777211973  1.0000
  H   H320      1.0  0.06386875470634448  0.4566685571857803  0.36923037377566076  1.0000
  H   H321      1.0  0.07404411669449744  0.4787598277184129  0.3857414230783799  1.0000
  H   H322      1.0  0.056012392542457726  0.49249778909908887  0.35957040705223625  1.0000
  H   H323      1.0  0.07980375712101939  0.48496461887326187  0.31598605265454516  1.0000
  H   H324      1.0  0.08799104181949746  0.4490214206757715  0.325632571125354  1.0000
  H   H325      1.0  0.11553716269284256  0.465805306483985  0.31040068893410205  1.0000
  H   H326      1.0  0.09433041488258034  0.5152816107120176  0.3383246591282769  1.0000
  H   H327      1.0  0.13006138652580782  0.4958071988262491  0.33395094043048046  1.0000
  H   H328      1.0  0.11148587799523513  0.5016917323700766  0.3652558931621977  1.0000
  N   N7        1.0  0.26385601972460765  0.8293640448297375  0.08362983345363317  1.0000
  C   C409      1.0  0.25204794051899077  0.8568251268077948  0.07146551341832136  1.0000
  C   C410      1.0  0.24090851283462797  0.8155360249394955  0.0949485310745756  1.0000
  C   C411      1.0  0.2787758278183926  0.8314385072692878  0.10367508054608307  1.0000
  C   C412      1.0  0.2836554013590795  0.8136299867243174  0.06440569846086491  1.0000
  H   H329      1.0  0.26865914486616954  0.8681509789439187  0.06329449901302371  1.0000
  H   H330      1.0  0.23654562584151942  0.8689966895512817  0.08534321727050707  1.0000
  H   H331      1.0  0.24141783498142777  0.855970422988158  0.05568741589092603  1.0000
  H   H332      1.0  0.24915559741272933  0.7941883025973138  0.10285990267917398  1.0000
  H   H333      1.0  0.22656498235701406  0.8256963595520432  0.11077955392930501  1.0000
  H   H334      1.0  0.22819321266656567  0.8151064224776946  0.08061683796352742  1.0000
  H   H335      1.0  0.28803723641724505  0.8111055068178443  0.11316416701891752  1.0000
  H   H336      1.0  0.26452977284267865  0.8430284024717319  0.118634176822286  1.0000
  H   H337      1.0  0.29620604266508466  0.8418438010096301  0.09576005163139373  1.0000
  H   H338      1.0  0.29243657829151604  0.7926205674353364  0.07289680974674902  1.0000
  H   H339      1.0  0.301591715393595  0.8231592781338694  0.05594114338504649  1.0000
  H   H340      1.0  0.27329777912403375  0.8121909298720719  0.048631529871634764  1.0000
  N   N8        1.0  0.32567970375839894  0.6876467620902393  0.020540657858808736  1.0000
  C   C413      1.0  0.31308748786446017  0.71429087168441  0.007425578222475423  1.0000
  C   C414      1.0  0.30333536626137875  0.6737494238066891  0.03368848393789925  1.0000
  C   C415      1.0  0.3413173517933585  0.6915888792893048  0.03925639424640498  1.0000
  C   C416      1.0  0.34496059086637193  0.6710723484036967  0.0017276529120087473  1.0000
  H   H341      1.0  0.32952867127501445  0.7249067469361042  0.996846039964029  1.0000
  H   H342      1.0  0.2985807490283181  0.7275726618707442  0.021005178538397874  1.0000
  H   H343      1.0  0.3008751807038119  0.7121759555982246  0.9932791880843304  1.0000
  H   H344      1.0  0.29043902961569673  0.6712296508334286  0.02032053275611559  1.0000
  H   H345      1.0  0.311929887392185  0.6533285229407643  0.043436525437514896  1.0000
  H   H346      1.0  0.2889565577392884  0.6854702529984803  0.048387795201953944  1.0000
  H   H347      1.0  0.3508626436548341  0.6719214508976421  0.049674652740188535  1.0000
  H   H348      1.0  0.32737788149072966  0.7041600230742151  0.05366472641690767  1.0000
  H   H349      1.0  0.35860261094699064  0.7016971529324831  0.029904096354935975  1.0000
  H   H350      1.0  0.3539262961107723  0.6504019893313895  0.010701026646724508  1.0000
  H   H351      1.0  0.36277974833732046  0.6804126826728516  0.9923804818495868  1.0000
  H   H352      1.0  0.3341500736688317  0.6689757708524986  0.9865280236559325  1.0000
  N   N9        1.0  0.9097415610573338  0.8484423497440248  0.6733862279119359  1.0000
  C   C417      1.0  0.9060127272146238  0.8212179347024093  0.6853677151545582  1.0000
  C   C418      1.0  0.8822034123741813  0.8664076280875213  0.6699294035718185  1.0000
  C   C419      1.0  0.9281030634272293  0.8462626781234069  0.6484077139924997  1.0000
  C   C420      1.0  0.9227304204028094  0.85987667670164  0.6896799566092717  1.0000
  H   H353      1.0  0.89619705255862  0.8121450058823021  0.6734351470978144  1.0000
  H   H354      1.0  0.8923290937176275  0.8220102194505718  0.7043259643855139  1.0000
  H   H355      1.0  0.9264644630798852  0.8071094708890932  0.6879919398471075  1.0000
  H   H356      1.0  0.8842805393094197  0.8871228480565889  0.6608579869156953  1.0000
  H   H357      1.0  0.871986154693467  0.8584378535661209  0.6575235141198578  1.0000
  H   H358      1.0  0.867682428155453  0.8684170911226559  0.6883729384070068  1.0000
  H   H359      1.0  0.9299723110264284  0.8665837825689239  0.6381381651466151  1.0000
  H   H360      1.0  0.9198793122204738  0.8363662060784594  0.6360637505531966  1.0000
  H   H361      1.0  0.9495024312204507  0.8339371046602997  0.6503195003872402  1.0000
  H   H362      1.0  0.9260737641942238  0.8803125076740345  0.6809806303059353  1.0000
  H   H363      1.0  0.943632302553204  0.8468634752229031  0.6926464325025832  1.0000
  H   H364      1.0  0.90951358479581  0.8619385524068269  0.7087282802973868  1.0000
  N   N10       1.0  0.30819243133234414  0.45163126152634564  0.3878796118437512  1.0000
  C   C421      1.0  0.3014064850838224  0.44219661355196666  0.4153166454233078  1.0000
  C   C422      1.0  0.2909254725824163  0.4791889448387366  0.3820233966781596  1.0000
  C   C423      1.0  0.30242198747582133  0.4328843995541675  0.3730873842884647  1.0000
  C   C424      1.0  0.3381263949571551  0.45232427873583053  0.38107845852886724  1.0000
  H   H365      1.0  0.27863678366498584  0.4432170148388567  0.4215232741980859  1.0000
  H   H366      1.0  0.3074584889445117  0.4547021238710493  0.4269952186496864  1.0000
  H   H367      1.0  0.3125352089084838  0.4207876345628574  0.4201396315176118  1.0000
  H   H368      1.0  0.294985905001241  0.49374203725923765  0.3928537210250492  1.0000
  H   H369      1.0  0.29528542132860097  0.48702016371780094  0.3615025861781191  1.0000
  H   H370      1.0  0.2681490347262938  0.47966901028663156  0.3870345422829309  1.0000
  H   H371      1.0  0.31518788750223187  0.4118925605593355  0.3771416433205566  1.0000
  H   H372      1.0  0.30731862688601397  0.43934942517462094  0.352314401467927  1.0000
  H   H373      1.0  0.2800779353799303  0.4317833996171855  0.3777286417024483  1.0000
  H   H374      1.0  0.3434599144246699  0.4655391901913531  0.39255720194319743  1.0000
  H   H375      1.0  0.3437551484802516  0.4601498592390821  0.36069753280158107  1.0000
  H   H376      1.0  0.3518473070437908  0.4317171687950269  0.38439747995721196  1.0000
  N   N11       1.0  0.8956930123359724  0.8586957571918739  0.44233790092401387  1.0000
  C   C425      1.0  0.8896435166783996  0.8334490818330826  0.45766276902844677  1.0000
  C   C426      1.0  0.8691574938536559  0.8791145400076088  0.44061911605591003  1.0000
  C   C427      1.0  0.9102153081578692  0.8532347084984201  0.4165106586614667  1.0000
  C   C428      1.0  0.9137797553435679  0.8691591670970237  0.45445955411060723  1.0000
  H   H377      1.0  0.8818340836008487  0.8360683489390586  0.47799317924933243  1.0000
  H   H378      1.0  0.9085991235814909  0.8165034681901431  0.45674840296693614  1.0000
  H   H379      1.0  0.8735917275649815  0.8266663705055957  0.4507392591202039  1.0000
  H   H380      1.0  0.8547744165916229  0.8717828801365275  0.4318725943695488  1.0000
  H   H381      1.0  0.8578926314793813  0.8843322916150564  0.45966133567138284  1.0000
  H   H382      1.0  0.8729906450008629  0.8981456202658313  0.4286944370797616  1.0000
  H   H383      1.0  0.8965687355220162  0.8470262815458087  0.40613237808728614  1.0000
  H   H384      1.0  0.9294288071854998  0.8365902899928223  0.4170609521670721  1.0000
  H   H385      1.0  0.9164748116014848  0.8715067064813221  0.40497990584024524  1.0000
  H   H386      1.0  0.9182175618676447  0.8885495077488453  0.44381378856753895  1.0000
  H   H387      1.0  0.9342816602115555  0.8545052296647481  0.4554212509553586  1.0000
  H   H388      1.0  0.9039775205290238  0.8729539544331391  0.4742599813071677  1.0000
  N   N12       1.0  0.391495615085648  0.6844480486524669  0.14580132545776792  1.0000
  C   C429      1.0  0.38899602980124665  0.6936631151919591  0.1188466997719429  1.0000
  C   C430      1.0  0.36382533907396297  0.6925520103837168  0.16189511848366372  1.0000
  C   C431      1.0  0.41184492317646976  0.6969726941838011  0.15261305951630197  1.0000
  C   C432      1.0  0.40135975057651896  0.6546237371657413  0.14979875532753056  1.0000
  H   H389      1.0  0.40910007094140693  0.686644544265033  0.10599753503065525  1.0000
  H   H390      1.0  0.38322553573767315  0.7161717107340274  0.11502425790776842  1.0000
  H   H391      1.0  0.3726119127198483  0.6858571234656334  0.11344685474711172  1.0000
  H   H392      1.0  0.35592660938875226  0.7149672069359896  0.15958503080824366  1.0000
  H   H393      1.0  0.3478876254967668  0.6837225680689974  0.15691149993455816  1.0000
  H   H394      1.0  0.36473335371892335  0.6857084242895273  0.18236525196319536  1.0000
  H   H395      1.0  0.41419224838788327  0.6906215194951792  0.17285702252359333  1.0000
  H   H396      1.0  0.40509035151524375  0.7195032676587118  0.14981690388762892  1.0000
  H   H397      1.0  0.43287719637156813  0.6912924226330375  0.14066132294457495  1.0000
  H   H398      1.0  0.40412372564283566  0.6470708484387718  0.16980732937354293  1.0000
  H   H399      1.0  0.4217429834589033  0.6477244936638878  0.13728340916506468  1.0000
  H   H400      1.0  0.3861168407598298  0.6444641708948191  0.1455964847767837  1.0000
  N   N13       1.0  0.6016860634049602  0.5092314766875831  0.01486657845152828  1.0000
  C   C433      1.0  0.6213224946462438  0.4956942276109228  0.03257327995218128  1.0000
  C   C434      1.0  0.5729258353749157  0.5163043325929171  0.029295257932988737  1.0000
  C   C435      1.0  0.6026679247608144  0.49082921758169357  0.9965791126899365  1.0000
  C   C436      1.0  0.6098768177350408  0.5341349119338661  0.0009043526732141548  1.0000
  H   H401      1.0  0.6211709389637088  0.5090442509647405  0.04660108861838845  1.0000
  H   H402      1.0  0.6431992385420672  0.4899514350977217  0.02225513001228159  1.0000
  H   H403      1.0  0.6158291445209254  0.47681778494536287  0.04347418614797189  1.0000
  H   H404      1.0  0.5576617570633414  0.5269030984357802  0.016530351868426617  1.0000
  H   H405      1.0  0.5659227244797429  0.49790602778261306  0.039652783992289074  1.0000
  H   H406      1.0  0.571371841822927  0.5300245714211824  0.043438934657988044  1.0000
  H   H407      1.0  0.5983798165924593  0.4710689298253017  0.006404118445372495  1.0000
  H   H408      1.0  0.6235910591839663  0.48642690353517526  0.9843388125201391  1.0000
  H   H409      1.0  0.5870014734031228  0.4998111735580899  0.9838450765475799  1.0000
  H   H410      1.0  0.5963806635775376  0.5441283197720513  0.9864901426114787  1.0000
  H   H411      1.0  0.6319165779231162  0.5296433666669607  0.9907009076784847  1.0000
  H   H412      1.0  0.6078808758649222  0.5492117975957025  0.013900098798859823  1.0000
  N   N14       1.0  0.14435318986914594  0.7154502366130523  0.07898432992699182  1.0000
  C   C437      1.0  0.15881151172664604  0.7125189763894809  0.05262239649950112  1.0000
  C   C438      1.0  0.1648799618726839  0.7052287509729329  0.09635514824537203  1.0000
  C   C439      1.0  0.12246881036806105  0.6997334417334226  0.08587103662217918  1.0000
  C   C440      1.0  0.13133924897949567  0.7443428340030509  0.08117482856181082  1.0000
  H   H413      1.0  0.14394348668202114  0.7194282431545035  0.0389537150089112  1.0000
  H   H414      1.0  0.16965443298146932  0.6910069945572059  0.050590933023665546  1.0000
  H   H415      1.0  0.17514591047294212  0.724524423190286  0.04673659116935257  1.0000
  H   H416      1.0  0.15471151185128873  0.705969870938602  0.1166070152380871  1.0000
  H   H417      1.0  0.17606852702654252  0.6838098248598454  0.09445429831625922  1.0000
  H   H418      1.0  0.1811673377816805  0.7172437404758646  0.09214943060047395  1.0000
  H   H419      1.0  0.13150118125786994  0.6777811873381046  0.08460109127275216  1.0000
  H   H420      1.0  0.10649357142823869  0.7068280264059696  0.07325859725742924  1.0000
  H   H421      1.0  0.11127372862483675  0.7014064291173822  0.10573520623036425  1.0000
  H   H422      1.0  0.12044198472548623  0.7471466635880806  0.10094421936831241  1.0000
  H   H423      1.0  0.11562651758568172  0.7527506079423399  0.06838876765748479  1.0000
  H   H424      1.0  0.14732277400550664  0.7567820981523782  0.07611439661787192  1.0000
  N   N15       1.0  0.8442896420740595  0.7723012049925374  0.5677720962706423  1.0000
  C   C441      1.0  0.8207836647071317  0.7851487071476607  0.5539577969488703  1.0000
  C   C442      1.0  0.8334747687865981  0.7598702713525662  0.59337716102895  1.0000
  C   C443      1.0  0.8590043357271799  0.7929840179631901  0.5699620951366555  1.0000
  C   C444      1.0  0.8639670229442857  0.7511104958024029  0.5536688174305355  1.0000
  H   H425      1.0  0.8282655730227249  0.794512073596888  0.5344761199741801  1.0000
  H   H426      1.0  0.8052909794544963  0.8010163321099201  0.5642088604773331  1.0000
  H   H427      1.0  0.8094214002040284  0.7700246511278738  0.551849576149386  1.0000
  H   H428      1.0  0.8503894327863452  0.7516020613806612  0.6049418841649135  1.0000
  H   H429      1.0  0.8167674581179375  0.7747003704981681  0.6038775879640254  1.0000
  H   H430      1.0  0.8242019850773119  0.7427861727138514  0.5923851431583104  1.0000
  H   H431      1.0  0.8763636175832721  0.7841577481944803  0.5809965936195616  1.0000
  H   H432      1.0  0.8446232967195254  0.8097312337497335  0.5798583268867095  1.0000
  H   H433      1.0  0.8684893475310471  0.8019552403032949  0.5509967917823013  1.0000
  H   H434      1.0  0.8821147428646476  0.7409011208205807  0.5633857035327324  1.0000
  H   H435      1.0  0.8724378791431233  0.7597724910658954  0.5342395590065249  1.0000
  H   H436      1.0  0.8537543102101901  0.7351044965780914  0.551496052782098  1.0000
  N   N16       1.0  0.5140369402192803  0.5701822316969957  0.742647072343007  1.0000
  C   C445      1.0  0.5048139267822214  0.5914719720253949  0.722058291060072  1.0000
  C   C446      1.0  0.5192239169431877  0.543201849584566  0.7344576766181066  1.0000
  C   C447      1.0  0.4919053632865444  0.572244067955356  0.7653899513363807  1.0000
  C   C448      1.0  0.5400355436492461  0.5738226947557988  0.7488017103315634  1.0000
  H   H437      1.0  0.5008956783109114  0.6121430124657652  0.7275713476762213  1.0000
  H   H438      1.0  0.48498670366088953  0.5894183734063487  0.7173127659928806  1.0000
  H   H439      1.0  0.5207195288259696  0.5904362309863034  0.704400241150051  1.0000
  H   H440      1.0  0.525449458549226  0.5266551962709729  0.7498618381121236  1.0000
  H   H441      1.0  0.5001393298370406  0.5400219046835735  0.7291995655380615  1.0000
  H   H442      1.0  0.5361715372602675  0.5405897078446551  0.7176511083878707  1.0000
  H   H443      1.0  0.4984221834967888  0.5570813802832979  0.7815989563082056  1.0000
  H   H444      1.0  0.47219428834185273  0.5687287233254525  0.7617640880422398  1.0000
  H   H445      1.0  0.48673082118660393  0.5925880282250781  0.7716511078634573  1.0000
  H   H446      1.0  0.5475652156333367  0.558087022042489  0.7643129369473594  1.0000
  H   H447      1.0  0.5368177638122833  0.5939548028942246  0.7551231339649186  1.0000
  H   H448      1.0  0.5572550220522121  0.5724009168723894  0.7321378298455374  1.0000
  N   N17       1.0  0.6624819629965436  0.3190914703398185  0.11504135548489312  1.0000
  C   C449      1.0  0.667552099557131  0.33854145799991736  0.12947032722648535  1.0000
  C   C450      1.0  0.6482431006046702  0.29959917154300464  0.13277676268367117  1.0000
  C   C451      1.0  0.6894728264429018  0.30427494362498697  0.10184233243246096  1.0000
  C   C452      1.0  0.6448035186387703  0.33397443025389045  0.0960770519884497  1.0000
  H   H449      1.0  0.6786122817902005  0.35322721060468854  0.11673654954679633  1.0000
  H   H450      1.0  0.6810906114186724  0.3281317070141948  0.1438067863353357  1.0000
  H   H451      1.0  0.6476736743367572  0.35045861619631014  0.13941444120891985  1.0000
  H   H452      1.0  0.6450991725849632  0.2838950149662966  0.12280732785122436  1.0000
  H   H453      1.0  0.6608192496779774  0.28865955415945216  0.1476772898934402  1.0000
  H   H454      1.0  0.6273415656020219  0.3098719463671985  0.142427728322434  1.0000
  H   H455      1.0  0.7006015279659226  0.31835926615667176  0.08802680669523061  1.0000
  H   H456      1.0  0.6865084946524141  0.2890416973170319  0.09112120163011765  1.0000
  H   H457      1.0  0.7037724708740651  0.29343936424760764  0.1154253464528125  1.0000
  H   H458      1.0  0.6242191342011485  0.3454147517856631  0.10522129924361455  1.0000
  H   H459      1.0  0.6408888310910182  0.3200023922783536  0.08454019040218794  1.0000
  H   H460      1.0  0.6550772778917759  0.34892662199106095  0.08255317065353858  1.0000
  N   N18       1.0  0.7800840631459199  0.48203357721434803  0.06698064190008712  1.0000
  C   C453      1.0  0.7961279965360044  0.4932030565006578  0.08071829951698994  1.0000
  C   C454      1.0  0.7936375882947134  0.4532271277859969  0.06482810806787453  1.0000
  C   C455      1.0  0.779337197379847  0.4973630638598606  0.04130051422806447  1.0000
  C   C456      1.0  0.7511704476488527  0.48426907572938677  0.08108665591944919  1.0000
  H   H461      1.0  0.7865992332935524  0.5149347089213164  0.08270858637647005  1.0000
  H   H462      1.0  0.8182063794063174  0.4915388967320363  0.07088061216529828  1.0000
  H   H463      1.0  0.7967887637044309  0.4821450240335004  0.10021839707108815  1.0000
  H   H464      1.0  0.781964505597855  0.4441254919917135  0.05464533290620688  1.0000
  H   H465      1.0  0.8154927485169146  0.4507611951450652  0.05426414906458277  1.0000
  H   H466      1.0  0.7946004100081635  0.441059019912194  0.08388073593003953  1.0000
  H   H467      1.0  0.76737579021153  0.48925706059193  0.030514544851751424  1.0000
  H   H468      1.0  0.800803928400617  0.4961348215237894  0.030082552063905865  1.0000
  H   H469      1.0  0.7690897701304144  0.5191633335039898  0.0421985723609446  1.0000
  H   H470      1.0  0.7382579396530199  0.4765779681148847  0.07102897844577649  1.0000
  H   H471      1.0  0.7404986848870176  0.5056078665671272  0.08378967033350304  1.0000
  H   H472      1.0  0.7508623607008437  0.4722968982885634  0.10024693596312528  1.0000
  N   N19       1.0  0.916871938633774  0.05605521767196806  0.9562772744748127  1.0000
  C   C457      1.0  0.9092845222871296  0.07958057208610708  0.9704954878278838  1.0000
  C   C458      1.0  0.9466592767785477  0.042418303365323526  0.9563840957057609  1.0000
  C   C459      1.0  0.9124601532992767  0.06538543865884767  0.9297974169311931  1.0000
  C   C460      1.0  0.899093299523414  0.03685801391243833  0.9683183256751393  1.0000
  H   H473      1.0  0.922565483450173  0.09431282546467186  0.9620782801689823  1.0000
  H   H474      1.0  0.9119503848741918  0.0733572494344921  0.9906830474154402  1.0000
  H   H475      1.0  0.887059445377199  0.09066805314824916  0.9703926985545026  1.0000
  H   H476      1.0  0.9529843121681246  0.02430872770479847  0.9461225731061399  1.0000
  H   H477      1.0  0.9606932450785778  0.05613333237162215  0.9466351682822588  1.0000
  H   H478      1.0  0.9510519267838038  0.03562142135778916  0.9760365999517738  1.0000
  H   H479      1.0  0.9253799481699075  0.0800659258813501  0.9202716640188869  1.0000
  H   H480      1.0  0.8901849619625398  0.075619959507552  0.9287642694713734  1.0000
  H   H481      1.0  0.9184749712396546  0.04819006701304536  0.9184011635135805  1.0000
  H   H482      1.0  0.9041783858742276  0.018962857008562192  0.957901748257545  1.0000
  H   H483      1.0  0.8764918815326421  0.04663941892153675  0.9685115819305609  1.0000
  H   H484      1.0  0.9019534236152195  0.029286868111176055  0.9883183479985195  1.0000
  N   N20       1.0  0.7023188824820833  0.898147236935152  0.36291832742984537  1.0000
  C   C461      1.0  0.6935441667963055  0.8756193955705603  0.38104372137481524  1.0000
  C   C462      1.0  0.7297541137249097  0.8877667570236892  0.3473832416499951  1.0000
  C   C463      1.0  0.7048547408507746  0.9190351166917824  0.3771083256467105  1.0000
  C   C464      1.0  0.6812358577187421  0.9101753411439341  0.3462538101494315  1.0000
  H   H485      1.0  0.672964840412108  0.8827475561666639  0.3931510745369315  1.0000
  H   H486      1.0  0.708979921577083  0.8663001083068316  0.3940080777465346  1.0000
  H   H487      1.0  0.6915630708151724  0.8593966079916574  0.3709922621260585  1.0000
  H   H488      1.0  0.7460759818860604  0.87840144821514  0.35945952206822496  1.0000
  H   H489      1.0  0.7286192909980256  0.872328812725992  0.3359739844076568  1.0000
  H   H490      1.0  0.7372297129495694  0.9043178901045161  0.33380349045267277  1.0000
  H   H491      1.0  0.7104451481518823  0.9367734103475077  0.3640841670691024  1.0000
  H   H492      1.0  0.7215129918218186  0.9108951908304576  0.3889357413634746  1.0000
  H   H493      1.0  0.6849253456428697  0.926696547697678  0.389848177373183  1.0000
  H   H494      1.0  0.6791609396056095  0.8952081882719192  0.33475497910474084  1.0000
  H   H495      1.0  0.687053270558727  0.9275248195241894  0.33266967088277855  1.0000
  H   H496      1.0  0.6602334568687386  0.9180158737635129  0.3573687860550741  1.0000
  N   N21       1.0  0.31170669868902695  0.899367880007615  0.8966614720922963  1.0000
  C   C465      1.0  0.33949186909183343  0.9034746323742464  0.8977016409328092  1.0000
  C   C466      1.0  0.3151807712830813  0.8733840240836673  0.8870680091549995  1.0000
  C   C467      1.0  0.29750002493613287  0.9218731854423272  0.8795078804027826  1.0000
  C   C468      1.0  0.29465378590117136  0.898729562524889  0.9224047480446415  1.0000
  H   H497      1.0  0.35072144162544167  0.8869007873569376  0.9106045189171379  1.0000
  H   H498      1.0  0.3376457386692812  0.9228936682161315  0.9048649186702953  1.0000
  H   H499      1.0  0.35301511669567753  0.9038146644746364  0.8786381064534279  1.0000
  H   H500      1.0  0.2945975478910568  0.8694339641096513  0.8864067905975447  1.0000
  H   H501      1.0  0.3275886557031466  0.8731936568175547  0.8675357133258004  1.0000
  H   H502      1.0  0.3261581937062354  0.8559966565086442  0.8994077215081708  1.0000
  H   H503      1.0  0.30971486965324035  0.9230364730973034  0.8598870805027029  1.0000
  H   H504      1.0  0.29411660727196803  0.9417905326775838  0.8863183128605165  1.0000
  H   H505      1.0  0.2765487501831984  0.919355105403446  0.8782263316898709  1.0000
  H   H506      1.0  0.3049650637557685  0.882141116210597  0.9358798506106053  1.0000
  H   H507      1.0  0.27362260398243565  0.8953871409667661  0.9223506633583625  1.0000
  H   H508      1.0  0.29131227532374465  0.9181002114019176  0.9301780812148565  1.0000
  N   N22       1.0  0.6072363552834086  0.5646056281832336  0.6517343411900731  1.0000
  C   C469      1.0  0.6178644586959896  0.589610453181246  0.6445411243896872  1.0000
  C   C470      1.0  0.5976344176694088  0.5586685528557357  0.6298638253699032  1.0000
  C   C471      1.0  0.5836044452652649  0.5683155905632973  0.6731706586091148  1.0000
  C   C472      1.0  0.6298332541980336  0.5417674747723744  0.6595078901763216  1.0000
  H   H509      1.0  0.6250046677743809  0.5948156455123963  0.6607379493222328  1.0000
  H   H510      1.0  0.601377923900021  0.6072545254561227  0.6384264295609021  1.0000
  H   H511      1.0  0.635919466430717  0.5873855058707194  0.6285766659888994  1.0000
  H   H512      1.0  0.5809734479919143  0.57575525112975  0.623114796343678  1.0000
  H   H513      1.0  0.6151355016356238  0.5548218222384999  0.6135817876736839  1.0000
  H   H514      1.0  0.5888024814503169  0.5403224089358603  0.634869502263073  1.0000
  H   H515      1.0  0.5752745446099674  0.5497086550794182  0.6791221813323705  1.0000
  H   H516      1.0  0.566081444236343  0.5852872520266714  0.6678358928986978  1.0000
  H   H517      1.0  0.5902182472462957  0.5729206516334361  0.6899295372628453  1.0000
  H   H518      1.0  0.6224332565270125  0.5226653897770428  0.6654214973993225  1.0000
  H   H519      1.0  0.6377889993434087  0.5457076232009794  0.6757644429307805  1.0000
  H   H520      1.0  0.6479183615006135  0.5378734734295896  0.6436968107064763  1.0000
  N   N23       1.0  0.1411081023943056  0.5632151399023893  0.18696329807580914  1.0000
  C   C473      1.0  0.16914192209731913  0.5686718800270568  0.17692222686897358  1.0000
  C   C474      1.0  0.12284086584687152  0.5744413117241627  0.16768482066182777  1.0000
  C   C475      1.0  0.1288702832961629  0.5761254730806047  0.21025198253934274  1.0000
  C   C476      1.0  0.14352233591083713  0.5336499734795728  0.1930059953839678  1.0000
  H   H521      1.0  0.18337821500051907  0.5610587448901846  0.19112902131624615  1.0000
  H   H522      1.0  0.16786818201182258  0.5907844555807379  0.1718756720344152  1.0000
  H   H523      1.0  0.17918548798143635  0.5590613708468428  0.15946763975117478  1.0000
  H   H524      1.0  0.10176084694034945  0.5700517939469582  0.17436491473743834  1.0000
  H   H525      1.0  0.11974773341919812  0.5968264693508301  0.1632305693234432  1.0000
  H   H526      1.0  0.13172876095384056  0.5657544027723606  0.14958897567286603  1.0000
  H   H527      1.0  0.12671666572738405  0.5984654656109347  0.20638363670757123  1.0000
  H   H528      1.0  0.14209749619619386  0.5681729864067574  0.22521771909394098  1.0000
  H   H529      1.0  0.10767035782659555  0.5724257472918686  0.21832157393298668  1.0000
  H   H530      1.0  0.1523524358656153  0.5232749753575507  0.17581064394464477  1.0000
  H   H531      1.0  0.12265215618284939  0.5289443717915591  0.20078078383420828  1.0000
  H   H532      1.0  0.15721185923751843  0.5244567588808652  0.2074473764610378  1.0000
  N   N24       1.0  0.5787355248863997  0.40680573570246004  0.7047422435934008  1.0000
  C   C477      1.0  0.5734760827112978  0.3813946868507599  0.6999630273970252  1.0000
  C   C478      1.0  0.5635584607871027  0.4299730217425827  0.688911175777981  1.0000
  C   C479      1.0  0.6090667806193849  0.405734750833192  0.6982078623696855  1.0000
  C   C480      1.0  0.5687576924166606  0.4101466883036409  0.7318609418408564  1.0000
  H   H533      1.0  0.5507354542343511  0.381581401368477  0.704810121348482  1.0000
  H   H534      1.0  0.5846933661930165  0.3634969525989598  0.7116100089616535  1.0000
  H   H535      1.0  0.5805619681171326  0.3783694838602942  0.67963333002056  1.0000
  H   H536      1.0  0.5656666481821285  0.44960250326017637  0.6932021300745251  1.0000
  H   H537      1.0  0.5713654894344145  0.4289867584287812  0.6682725625789921  1.0000
  H   H538      1.0  0.5407753276190698  0.43057727355930386  0.6925390892402116  1.0000
  H   H539      1.0  0.6172532473083856  0.4037189968623618  0.6777832617191654  1.0000
  H   H540      1.0  0.6212290057873359  0.3883896412077822  0.7097129049287756  1.0000
  H   H541      1.0  0.6137109636575222  0.424427973579145  0.7019933019518881  1.0000
  H   H542      1.0  0.5722449879747868  0.42922442874022354  0.7361839593567278  1.0000
  H   H543      1.0  0.5798163709770529  0.39313074331254866  0.7444632861204885  1.0000
  H   H544      1.0  0.5458987097428908  0.41114551011048645  0.7374244300557782  1.0000
  N   N25       1.0  0.9869671747550097  0.611074205703991  0.35911212283522725  1.0000
  C   C481      1.0  0.01711691129298002  0.5980565587513238  0.3571875340676288  1.0000
  C   C482      1.0  0.9756877916155351  0.6185533365340251  0.3849299527123921  1.0000
  C   C483      1.0  0.9719741305580021  0.5919533348374096  0.3540371281021373  1.0000
  C   C484      1.0  0.9830960718577628  0.6356893438392217  0.3402501067227145  1.0000
  H   H545      1.0  0.02627176678220049  0.5924629299848255  0.33782733463313364  1.0000
  H   H546      1.0  0.02076032787079655  0.5789712446467035  0.3706566633797603  1.0000
  H   H547      1.0  0.029100556603260698  0.6117049068719533  0.36126453716531604  1.0000
  H   H548      1.0  0.9529577486064439  0.6282706987520584  0.38707956913682284  1.0000
  H   H549      1.0  0.9784729817121055  0.6005118277787308  0.3996733593483099  1.0000
  H   H550      1.0  0.986199521434986  0.6332931633014558  0.38934623081424896  1.0000
  H   H551      1.0  0.9747799040012513  0.572872155922709  0.36755130916159817  1.0000
  H   H552      1.0  0.9798915292621615  0.5859852538848225  0.33464429731435985  1.0000
  H   H553      1.0  0.9491752804483583  0.6010736214154422  0.3552284337713023  1.0000
  H   H554      1.0  0.9605206718552453  0.6456362559834923  0.34067109723939126  1.0000
  H   H555      1.0  0.9919382836343312  0.6308012752869335  0.3206024032307764  1.0000
  H   H556      1.0  0.9936200311060115  0.6508660093627346  0.34376441240156635  1.0000
  N   N26       1.0  0.7519392255181965  0.3691461991376089  0.99250030804686  1.0000
  C   C485      1.0  0.739010271707633  0.3740235731051861  0.018813977075792854  1.0000
  C   C486      1.0  0.7526853645202959  0.34106700732274775  0.9894767466768284  1.0000
  C   C487      1.0  0.7808019230628253  0.37320675046406315  0.9869216529321057  1.0000
  C   C488      1.0  0.7351981970211363  0.38824244562253424  0.974713439938422  1.0000
  H   H557      1.0  0.7390841132501591  0.39468089077877583  0.022079999504081876  1.0000
  H   H558      1.0  0.7503832772577527  0.3592515883393179  0.03279419828517887  1.0000
  H   H559      1.0  0.7168423937634354  0.37211097970123785  0.023235900014788563  1.0000
  H   H560      1.0  0.7625650167810284  0.3365868646494843  0.9699071753832592  1.0000
  H   H561      1.0  0.7651362480005476  0.3261235286632844  0.00272881442500476  1.0000
  H   H562      1.0  0.7312282168903035  0.33748372129166393  0.9934341971538228  1.0000
  H   H563      1.0  0.7812306022631276  0.3938066945960055  0.9901353390403093  1.0000
  H   H564      1.0  0.7905152884964485  0.37098163800215056  0.9667707714041668  1.0000
  H   H565      1.0  0.7944976199878658  0.358060739279601  0.9989720557030247  1.0000
  H   H566      1.0  0.7129343418964368  0.38667673457458446  0.9789577877230227  1.0000
  H   H567      1.0  0.7437285965144805  0.3844234905978707  0.9547827332394476  1.0000
  H   H568      1.0  0.7354556814598484  0.40951940613122023  0.9756241406094225  1.0000
  N   N27       1.0  0.36855150920972346  0.5484278261444525  0.6487588158091314  1.0000
  C   C489      1.0  0.33867688744578034  0.5562247982360012  0.6602250696373332  1.0000
  C   C490      1.0  0.38130051669777293  0.5215244527562857  0.6613305539449164  1.0000
  C   C491      1.0  0.3832850942038239  0.5686005898473551  0.6521195956328859  1.0000
  C   C492      1.0  0.3710399352208711  0.547269654432229  0.6213651771908035  1.0000
  H   H569      1.0  0.3270672559397822  0.541324283079524  0.6579448639117162  1.0000
  H   H570      1.0  0.32835754820141055  0.5764591543135346  0.6512051981117228  1.0000
  H   H571      1.0  0.33610551336774236  0.5571988104000336  0.6809205825689384  1.0000
  H   H572      1.0  0.40379025167948884  0.5150065129979123  0.6530657350864777  1.0000
  H   H573      1.0  0.38006456840993064  0.5215453591076112  0.6820133563502139  1.0000
  H   H574      1.0  0.37092324502927315  0.5056169892111935  0.6591308075463099  1.0000
  H   H575      1.0  0.4058573210947651  0.5634070334919596  0.6434254597080257  1.0000
  H   H576      1.0  0.3824581726167367  0.5696597824570645  0.67257280073054  1.0000
  H   H577      1.0  0.37414636387830097  0.589270087451948  0.6431533687148366  1.0000
  H   H578      1.0  0.3933755957787117  0.5421063844193497  0.6120411250095058  1.0000
  H   H579      1.0  0.3610437990939982  0.567013103896682  0.6112887690798388  1.0000
  H   H580      1.0  0.36095858328247293  0.5316045179869241  0.6180587212631476  1.0000
  N   N28       1.0  0.94510287150233  0.07451728639092724  0.7030029651026374  1.0000
  C   C493      1.0  0.9343943387003697  0.10311179236496985  0.707556954935069  1.0000
  C   C494      1.0  0.9540812523586318  0.07332480694584544  0.6754514640383796  1.0000
  C   C495      1.0  0.9227039298288698  0.059653427113453374  0.7129314333198282  1.0000
  C   C496      1.0  0.9692701795530767  0.061970152267205564  0.7160719188576011  1.0000
  H   H581      1.0  0.9163062316532843  0.113286571039413  0.6978036930170561  1.0000
  H   H582      1.0  0.9508646161256887  0.11491219590882129  0.7004930896501467  1.0000
  H   H583      1.0  0.9272495470731787  0.10468678380116853  0.728212552150101  1.0000
  H   H584      1.0  0.9710079408635878  0.08441376496281186  0.667472249386162  1.0000
  H   H585      1.0  0.9623162558399958  0.0519676538454231  0.6714091132870812  1.0000
  H   H586      1.0  0.936437934469921  0.08263494202702765  0.6649145655184829  1.0000
  H   H587      1.0  0.9152967597142339  0.06044446164303396  0.7336927417432267  1.0000
  H   H588      1.0  0.9301675454342471  0.037884686616299845  0.7101123933098812  1.0000
  H   H589      1.0  0.9042194937632058  0.0684024216972083  0.703363800679753  1.0000
  H   H590      1.0  0.986671625579874  0.07254634298979673  0.7088717666652462  1.0000
  H   H591      1.0  0.9777278865585075  0.04029061981334799  0.7132043197217085  1.0000
  H   H592      1.0  0.9633510640663862  0.06278687239867081  0.7368983154033437  1.0000
  N   N29       1.0  0.21327099045670764  0.32801666138860647  0.4675908630075672  1.0000
  C   C497      1.0  0.21046166371213615  0.3033591251344673  0.4590406318585057  1.0000
  C   C498      1.0  0.20149404032820892  0.35217623883708393  0.4506503808322315  1.0000
  C   C499      1.0  0.24319475850596278  0.32668995445248666  0.46680699941722636  1.0000
  C   C500      1.0  0.19798012607052667  0.32986248993556905  0.49385416938921944  1.0000
  H   H593      1.0  0.21874700163530603  0.284803105366876  0.4717280946468959  1.0000
  H   H594      1.0  0.222206262662548  0.30106165261382306  0.4394353533563442  1.0000
  H   H595      1.0  0.1881724077848069  0.30386785108349407  0.45906210897073774  1.0000
  H   H596      1.0  0.21231904703184684  0.3513228491640207  0.4306136934240656  1.0000
  H   H597      1.0  0.1788185067748334  0.3541651525778908  0.4509812880654477  1.0000
  H   H598      1.0  0.20371855081851054  0.37105386165275583  0.45640145945047705  1.0000
  H   H599      1.0  0.25258726096134926  0.3090532990122571  0.4798677226045168  1.0000
  H   H600      1.0  0.24606864119784028  0.3453826692402488  0.47245437079623154  1.0000
  H   H601      1.0  0.2554189864607778  0.32452906090273154  0.4473414362052159  1.0000
  H   H602      1.0  0.17516162590645037  0.33178388404582143  0.4950939139501697  1.0000
  H   H603      1.0  0.2004573830993019  0.34767449041764087  0.5012562643218056  1.0000
  H   H604      1.0  0.20577981696533057  0.31156146009525626  0.506990570508006  1.0000
  N   N30       1.0  0.7007106656947203  0.16785312266606742  0.0874902677869873  1.0000
  C   C501      1.0  0.6946619688901572  0.14303405287993048  0.08214881307392284  1.0000
  C   C502      1.0  0.6821285774449899  0.19195862048735504  0.07572355756937135  1.0000
  C   C503      1.0  0.730302170498708  0.16810146956988564  0.07700299744380182  1.0000
  C   C504      1.0  0.6957581812136404  0.16829411883422962  0.11517914474552997  1.0000
  H   H605      1.0  0.6978486193088168  0.1423119307611102  0.061377188205249435  1.0000
  H   H606      1.0  0.6726790659886398  0.14180441312706643  0.09024489681636295  1.0000
  H   H607      1.0  0.7084101471113339  0.12443729530942407  0.09064741498864166  1.0000
  H   H608      1.0  0.6860067221564354  0.21108244106447613  0.07950820492489674  1.0000
  H   H609      1.0  0.6854334235040481  0.19257499796528882  0.05475054858538012  1.0000
  H   H610      1.0  0.6596382622318875  0.19235387068796125  0.08330743108159637  1.0000
  H   H611      1.0  0.7355465824209885  0.1867443867923673  0.08036914763780523  1.0000
  H   H612      1.0  0.7348907359227559  0.1676651917895915  0.05610515736496661  1.0000
  H   H613      1.0  0.7447978354524513  0.1503199660421768  0.0857239041451429  1.0000
  H   H614      1.0  0.6736247260994257  0.16833187199285904  0.12356378047715559  1.0000
  H   H615      1.0  0.7000830646130943  0.1868215221619989  0.1198088676096413  1.0000
  H   H616      1.0  0.7090290312806891  0.15021167601620522  0.124871562021602  1.0000
  N   N31       1.0  0.08996788170442627  0.3150452903381018  0.6162601791733655  1.0000
  C   C505      1.0  0.09259289749239946  0.3303734053885018  0.5904547557905373  1.0000
  C   C506      1.0  0.06209495848293211  0.32566627975981277  0.630936978033673  1.0000
  C   C507      1.0  0.11186930132946728  0.31812264121400063  0.6291988449205788  1.0000
  C   C508      1.0  0.09331233285293351  0.28603701152465805  0.6145006517136508  1.0000
  H   H617      1.0  0.11330479039372215  0.3227654979493874  0.5787662683821458  1.0000
  H   H618      1.0  0.09081939839767324  0.3522827209251266  0.5909841890760925  1.0000
  H   H619      1.0  0.07624177694206709  0.32880879874540403  0.580166779020915  1.0000
  H   H620      1.0  0.059475205024326266  0.31454654605219307  0.6505283283825034  1.0000
  H   H621      1.0  0.05894643142995391  0.3475313064552024  0.6325866399003081  1.0000
  H   H622      1.0  0.045037566396470885  0.32364114323498566  0.621741925355345  1.0000
  H   H623      1.0  0.11064370082952657  0.30678600115260796  0.6487341029866133  1.0000
  H   H624      1.0  0.11042991371974878  0.3397825639261161  0.6304699519758931  1.0000
  H   H625      1.0  0.13310799126191394  0.3100210762158473  0.6188267104364458  1.0000
  H   H626      1.0  0.09176559329109882  0.2738178012927467  0.6336259180507975  1.0000
  H   H627      1.0  0.11413714802647763  0.2773822011643787  0.6035203586737498  1.0000
  H   H628      1.0  0.07714164321299861  0.28280827958917476  0.604914773859681  1.0000
  N   N32       1.0  0.1126580985688277  0.9877232136163395  0.7231651655377364  1.0000
  C   C509      1.0  0.08605060211378344  0.008502743941867452  0.7238386146379959  1.0000
  C   C510      1.0  0.13396943185644486  0.9964108000280424  0.7023183421894958  1.0000
  C   C511      1.0  0.10809668611082847  0.9618257987373313  0.7189408655336589  1.0000
  C   C512      1.0  0.12249489212472663  0.9840357387001608  0.7476167382862662  1.0000
  H   H629      1.0  0.06923818791487436  0.0020603765152700237  0.7386850022166781  1.0000
  H   H630      1.0  0.07856379513503174  0.012384816454671377  0.7053856941649481  1.0000
  H   H631      1.0  0.08858440173330026  0.02813963399614705  0.7276352075581948  1.0000
  H   H632      1.0  0.12898801428057308  0.9960933947488524  0.6834336031499754  1.0000
  H   H633      1.0  0.1353364068068591  0.0174755676061511  0.7028815836951224  1.0000
  H   H634      1.0  0.15513236609042919  0.9829025570782566  0.7031130352529023  1.0000
  H   H635      1.0  0.1001828340559323  0.9637494333601941  0.7009588323442757  1.0000
  H   H636      1.0  0.09245780363279911  0.9544515419017107  0.7344926702489745  1.0000
  H   H637      1.0  0.12782683187398972  0.9457380232070169  0.7177848881228173  1.0000
  H   H638      1.0  0.1426076286892421  0.9684931981642293  0.747730021425458  1.0000
  H   H639      1.0  0.10714136156995607  0.9771641669394923  0.7637819647111254  1.0000
  H   H640      1.0  0.12636956498888166  0.003148569706122206  0.751364026223318  1.0000
  N   N33       1.0  0.4567955687367743  0.14713214318089285  0.18187274408213286  1.0000
  C   C513      1.0  0.4329620673131847  0.16371149609467192  0.19751596903184288  1.0000
  C   C514      1.0  0.4821951337478841  0.14215932781668764  0.19329045749333296  1.0000
  C   C515      1.0  0.46174240110679626  0.16170938552871325  0.15590684872178243  1.0000
  C   C516      1.0  0.4503398312654683  0.12098320925611464  0.18080410183300555  1.0000
  H   H641      1.0  0.41345077833780225  0.16814944503908108  0.1893695961001291  1.0000
  H   H642      1.0  0.43732108369594574  0.18338490193570745  0.19921038915307243  1.0000
  H   H643      1.0  0.4285604040734862  0.1531817792639216  0.2171996899645644  1.0000
  H   H644      1.0  0.5005017831744031  0.1296066066093797  0.1820530990919603  1.0000
  H   H645      1.0  0.4878511949351876  0.16150289482873642  0.19404899988445784  1.0000
  H   H646      1.0  0.47917025803425506  0.13171429812531674  0.2130803807920342  1.0000
  H   H647      1.0  0.4431552673546362  0.16568567534189174  0.1465091942393408  1.0000
  H   H648      1.0  0.4798970007196754  0.14990492253309798  0.14371928272802603  1.0000
  H   H649      1.0  0.46666197634128137  0.1815372148658953  0.1560809412870213  1.0000
  H   H650      1.0  0.4311727583671967  0.12397620328808762  0.17240546958475073  1.0000
  H   H651      1.0  0.44651834717008027  0.10951054669772581  0.200092913788459  1.0000
  H   H652      1.0  0.4677416856725573  0.1078753092626782  0.16909664907714556  1.0000
  N   N34       1.0  0.17013425759485706  0.8535737084801563  0.8545995277279211  1.0000
  C   C517      1.0  0.17849727679631255  0.8687059828960253  0.8295721256442672  1.0000
  C   C518      1.0  0.1669727867900964  0.8706153685288437  0.8746835084158442  1.0000
  C   C519      1.0  0.19188060982360394  0.8284448088798005  0.8587503856154952  1.0000
  C   C520      1.0  0.14319369364625978  0.8465922751747446  0.8553193815339651  1.0000
  H   H653      1.0  0.1987443293357473  0.874349143018645  0.8283874787103521  1.0000
  H   H654      1.0  0.16259472273417794  0.887804829692496  0.8259800872800899  1.0000
  H   H655      1.0  0.18087928328707636  0.8566631424372659  0.8138534955207872  1.0000
  H   H656      1.0  0.18677820280931268  0.8765502940341391  0.8744800519849915  1.0000
  H   H657      1.0  0.15061512494904594  0.8897133907721755  0.872145207784851  1.0000
  H   H658      1.0  0.1609777714883287  0.8598401811401479  0.8939115961936155  1.0000
  H   H659      1.0  0.18710050580223758  0.817082266572869  0.8779625873984401  1.0000
  H   H660      1.0  0.21271552415504674  0.8329146076185121  0.8571637187924178  1.0000
  H   H661      1.0  0.19411168110676105  0.8146813928303216  0.8444713609087584  1.0000
  H   H662      1.0  0.1363742484453941  0.8349785882751162  0.8738871296167348  1.0000
  H   H663      1.0  0.14463002481444662  0.8341763215168483  0.8401089511759918  1.0000
  H   H664      1.0  0.12625429010599123  0.8651117730561833  0.8524794320154754  1.0000
  N   N35       1.0  0.6337608439207624  0.514659707466604  0.8237541439525299  1.0000
  C   C521      1.0  0.6354391932694229  0.5076357359275355  0.8510519681413771  1.0000
  C   C522      1.0  0.6041770058450777  0.5243249282462157  0.8207534449034544  1.0000
  C   C523      1.0  0.6463578578125173  0.49036667190570404  0.8107957184378471  1.0000
  C   C524      1.0  0.6487432064007603  0.5363112146004462  0.8124120341857245  1.0000
  H   H665      1.0  0.6575989325286741  0.5004725048312731  0.8539807533723016  1.0000
  H   H666      1.0  0.6245157054281675  0.4911234524613839  0.8600016644826415  1.0000
  H   H667      1.0  0.6257722391013527  0.5254244282329077  0.861458300982386  1.0000
  H   H668      1.0  0.6020182001283529  0.5299086425088338  0.800428704242179  1.0000
  H   H669      1.0  0.5924633282948268  0.5083743543059451  0.8289244440457135  1.0000
  H   H670      1.0  0.5938863171191946  0.5425587417165051  0.830327248048353  1.0000
  H   H671      1.0  0.6455570009018804  0.4951250369284959  0.7901478936441904  1.0000
  H   H672      1.0  0.635205268845713  0.4738362571522102  0.8187190613450699  1.0000
  H   H673      1.0  0.6686005444343914  0.4821884437330842  0.8128966104725027  1.0000
  H   H674      1.0  0.6492261329893416  0.5408859312093419  0.7914928525779279  1.0000
  H   H675      1.0  0.6707378967383548  0.5304271461793613  0.8157904956618148  1.0000
  H   H676      1.0  0.6385330703321582  0.5554642728369152  0.820656944827716  1.0000
  N   N36       1.0  0.06731730773680615  0.08937758134433603  0.7874331213230288  1.0000
  C   C525      1.0  0.04586683489892579  0.07938155359779776  0.779401989519971  1.0000
  C   C526      1.0  0.08836903958480011  0.06606621411012853  0.797078501593477  1.0000
  C   C527      1.0  0.05396572786974932  0.10668797440137172  0.8076570978763641  1.0000
  C   C528      1.0  0.08112400701913461  0.10537321451810858  0.7654874582482225  1.0000
  H   H677      1.0  0.05522437404321854  0.0664654013813428  0.7640125908325377  1.0000
  H   H678      1.0  0.02981205743897136  0.09646950551535281  0.7719372758243557  1.0000
  H   H679      1.0  0.03474370687415902  0.06748748901927151  0.795563048383857  1.0000
  H   H680      1.0  0.0785725646257236  0.05337738899676976  0.8134814018637362  1.0000
  H   H681      1.0  0.09949610407691066  0.0529551167608207  0.7821566168311629  1.0000
  H   H682      1.0  0.10462574692421411  0.07285301372053388  0.8038193917355894  1.0000
  H   H683      1.0  0.04034377271308881  0.1259678744543135  0.8002860518653602  1.0000
  H   H684      1.0  0.06979944810113484  0.11214250047520943  0.8161329445635599  1.0000
  H   H685      1.0  0.040481816563795264  0.09648266664470179  0.8232308550903326  1.0000
  H   H686      1.0  0.06598606746399656  0.12323521804998792  0.7576806552107258  1.0000
  H   H687      1.0  0.09115793413392917  0.09300876321658497  0.7498010135241748  1.0000
  H   H688      1.0  0.09763576898222882  0.11311721153530098  0.7707292506410598  1.0000
  N   N37       1.0  0.025084675094177385  0.9606184978530588  0.6100817328464396  1.0000
  C   C529      1.0  0.006550943719131828  0.9548585184166138  0.5949472120544039  1.0000
  C   C530      1.0  0.0203628619701114  0.946203584573643  0.6361028362900272  1.0000
  C   C531      1.0  0.018842024885195572  0.9900956226132234  0.6111380963402655  1.0000
  C   C532      1.0  0.054624648608225856  0.9512431231468174  0.5982410497717267  1.0000
  H   H689      1.0  0.010682228372394622  0.9327516295075253  0.5938087352315831  1.0000
  H   H690      1.0  0.009397952272605014  0.9653685692447815  0.5751577718760712  1.0000
  H   H691      1.0  0.9840646569642185  0.9614176030041585  0.6034431042909829  1.0000
  H   H692      1.0  0.9985635582937247  0.9534048953192291  0.6460325430329946  1.0000
  H   H693      1.0  0.02413732673802381  0.923914412766255  0.6361363193600866  1.0000
  H   H694      1.0  0.03443859985359612  0.9496249920135366  0.647808535647383  1.0000
  H   H695      1.0  0.021530622727888558  0.0017392556075697119  0.591808101297759  1.0000
  H   H696      1.0  0.03290407374960794  0.9951555886127724  0.6219762064713218  1.0000
  H   H697      1.0  0.9969650339235254  0.9976179421836416  0.6207775668170433  1.0000
  H   H698      1.0  0.06917143536771411  0.9553171325927593  0.6092232499629947  1.0000
  H   H699      1.0  0.05896200127464833  0.9616303880428518  0.5785191537598438  1.0000
  H   H700      1.0  0.06000531596128446  0.9290150952364314  0.5973387192314971  1.0000
  N   N38       1.0  0.4352574455135807  0.9957090654580141  0.2821189202621218  1.0000
  C   C533      1.0  0.4333740559922745  0.9959107285428238  0.25530151449229155  1.0000
  C   C534      1.0  0.4164789546167291  0.9795161489490759  0.2987916867584179  1.0000
  C   C535      1.0  0.42673445098710694  0.023756663334379962  0.2883080017554819  1.0000
  C   C536      1.0  0.464403201648007  0.9837186863859805  0.2861529378416053  1.0000
  H   H701      1.0  0.4485546302703079  0.006560131945514278  0.24215653290709346  1.0000
  H   H702      1.0  0.41207150023048467  0.0062577941228725426  0.25120926073908656  1.0000
  H   H703      1.0  0.4382535649005917  0.9749471258995123  0.25034459220671673  1.0000
  H   H704      1.0  0.4174636969767289  0.9789840375834176  0.3191614302178781  1.0000
  H   H705      1.0  0.3943108557054795  0.9880955016484948  0.2962793337621033  1.0000
  H   H706      1.0  0.422360777944681  0.9581801051390796  0.29461691783544386  1.0000
  H   H707      1.0  0.4277181476367192  0.024328341791738803  0.30848358291559685  1.0000
  H   H708      1.0  0.40501013290266885  0.03380453681075102  0.28512641995636684  1.0000
  H   H709      1.0  0.44090552402570726  0.036310269136105786  0.2764802628175899  1.0000
  H   H710      1.0  0.4668834161934895  0.9843434045655356  0.3059091322749701  1.0000
  H   H711      1.0  0.47933585761873637  0.9948681968496857  0.2732619062124383  1.0000
  H   H712      1.0  0.47127584227559033  0.9622322807318233  0.2824838877230505  1.0000
  N   N39       1.0  0.6861749733136727  0.7013565904518188  0.6686123063643199  1.0000
  C   C537      1.0  0.7032502736612148  0.6732348100255149  0.6694559179162006  1.0000
  C   C538      1.0  0.6684229942138029  0.7053904796180288  0.6936723768787413  1.0000
  C   C539      1.0  0.6680977542640796  0.7064684564956654  0.6492059507912868  1.0000
  C   C540      1.0  0.7049046739367136  0.7203821351074864  0.6620852618724112  1.0000
  H   H713      1.0  0.7169591264802416  0.6696161472073223  0.6508402661957723  1.0000
  H   H714      1.0  0.689841169855719  0.6582800115580693  0.6741778517559323  1.0000
  H   H715      1.0  0.7169503851817672  0.668613671124609  0.6840692509122117  1.0000
  H   H716      1.0  0.6812616028021506  0.7017290324000954  0.708848204169917  1.0000
  H   H717      1.0  0.6552821713384278  0.7264658377892204  0.6936198136483791  1.0000
  H   H718      1.0  0.6539454579883335  0.6913884441054894  0.6991348437402306  1.0000
  H   H719      1.0  0.6548580882477234  0.7274841024416969  0.6482152820572226  1.0000
  H   H720      1.0  0.6537090613744416  0.6923830468399413  0.6536108597190674  1.0000
  H   H721      1.0  0.6807186463821966  0.7038065223771568  0.6299916444341496  1.0000
  H   H722      1.0  0.6927138848015824  0.741747583033474  0.6616455217248731  1.0000
  H   H723      1.0  0.7183816232299504  0.7182060267902026  0.6431042843043986  1.0000
  H   H724      1.0  0.7190197499143823  0.7169904376695267  0.6761984546537594  1.0000
  N   N40       1.0  0.30873315087680625  0.3466531820633923  0.5136860495690717  1.0000
  C   C541      1.0  0.3009945358240801  0.36978890734345654  0.4940593199924163  1.0000
  C   C542      1.0  0.32610187124629947  0.35357127989851544  0.5292181871100182  1.0000
  C   C543      1.0  0.32474368886485455  0.3226499714679923  0.501374930403051  1.0000
  C   C544      1.0  0.2831645244496879  0.3404466209692904  0.5302119570839188  1.0000
  H   H725      1.0  0.2886238360212538  0.364953053458618  0.481455079257616  1.0000
  H   H726      1.0  0.31993102683945657  0.37551648434191554  0.48182807267978356  1.0000
  H   H727      1.0  0.28806982153878297  0.38800824066661677  0.5027535400726484  1.0000
  H   H728      1.0  0.33019719782487544  0.3375796594041382  0.5456031753335693  1.0000
  H   H729      1.0  0.3467120753595263  0.35576377770835776  0.5179530231292159  1.0000
  H   H730      1.0  0.31586141968346393  0.3730627020665435  0.536792406185282  1.0000
  H   H731      1.0  0.3325997605752496  0.30539188968174846  0.515527430668657  1.0000
  H   H732      1.0  0.34333655571875876  0.32687120398429764  0.48752818973615336  1.0000
  H   H733      1.0  0.31170434039301836  0.3155714319982952  0.490978011849665  1.0000
  H   H734      1.0  0.2689415099349235  0.33623011939386777  0.5190539805371257  1.0000
  H   H735      1.0  0.2713550138710929  0.35753934160488104  0.5409549348455075  1.0000
  H   H736      1.0  0.28826256331391187  0.32230378543016364  0.5445382697568447  1.0000
  N   N41       1.0  0.202406386087189  0.47907758013089335  0.5219555587604191  1.0000
  C   C545      1.0  0.17910815259737986  0.4664493753025391  0.5220115384357709  1.0000
  C   C546      1.0  0.20091065444948844  0.48554936199112464  0.5476909392474434  1.0000
  C   C547      1.0  0.2003192147720459  0.5042123452844595  0.5036822547620071  1.0000
  C   C548      1.0  0.22935041455143035  0.46001644077277515  0.5144524835619909  1.0000
  H   H737      1.0  0.18004006786890325  0.4606063278554388  0.5030927996719835  1.0000
  H   H738      1.0  0.15838353392215532  0.48042880995252607  0.5269968170480139  1.0000
  H   H739      1.0  0.17987528459050006  0.4476250555296544  0.53590189039803  1.0000
  H   H740      1.0  0.20183245045523057  0.46703141997834907  0.5619807499732523  1.0000
  H   H741      1.0  0.21879742622049214  0.4941699491807454  0.5486474884045498  1.0000
  H   H742      1.0  0.18116487530836475  0.5003880031529206  0.5537727571652833  1.0000
  H   H743      1.0  0.21811950587553794  0.5137741540899964  0.5026404025263483  1.0000
  H   H744      1.0  0.18052723172456328  0.5193722561993832  0.5089612811973682  1.0000
  H   H745      1.0  0.20067729015360058  0.5001091761004344  0.48418622705098846  1.0000
  H   H746      1.0  0.24742711171196818  0.46836582421040945  0.5153122443031275  1.0000
  H   H747      1.0  0.23164531670516622  0.45552701623549063  0.4947607418759707  1.0000
  H   H748      1.0  0.2312108083181289  0.4403986241464178  0.5272278109065595  1.0000
  N   N42       1.0  0.9167088786261074  0.6649628717212164  0.2123000263099648  1.0000
  C   C549      1.0  0.8999554143046045  0.6661760486274964  0.19259316581787456  1.0000
  C   C550      1.0  0.8989781525743974  0.6796730353315829  0.23312306697454055  1.0000
  C   C551      1.0  0.9405238461746763  0.6776666977777915  0.20115061255873545  1.0000
  C   C552      1.0  0.9273558199063998  0.6363484971946666  0.22239130116882455  1.0000
  H   H749      1.0  0.9126124379376173  0.6550035924888242  0.17667681519910738  1.0000
  H   H750      1.0  0.8917484087271514  0.6874296722975519  0.18437865420482846  1.0000
  H   H751      1.0  0.8816041416206079  0.6570680712736859  0.2004673208325909  1.0000
  H   H752      1.0  0.9110363103846904  0.67953561266289  0.24812777433948052  1.0000
  H   H753      1.0  0.8899870411745391  0.7011684851766483  0.22611334912032732  1.0000
  H   H754      1.0  0.8811398494088092  0.6703051559845408  0.2422803241620164  1.0000
  H   H755      1.0  0.9333063971152441  0.6992823564310995  0.19339879160989604  1.0000
  H   H756      1.0  0.9543479195278924  0.667154267993469  0.18533929141313132  1.0000
  H   H757      1.0  0.9536952744113978  0.6769284129809632  0.2154807873639748  1.0000
  H   H758      1.0  0.9407076693324412  0.6346509446900641  0.23684264101291252  1.0000
  H   H759      1.0  0.9402230705115551  0.6245661919733781  0.2069460888623169  1.0000
  H   H760      1.0  0.9098798579372063  0.6264254774729976  0.23157121073233422  1.0000
  N   N43       1.0  0.5228302237889786  0.38305521331576964  0.11292818866090804  1.0000
  C   C553      1.0  0.5144697094149939  0.40669868209643223  0.12705036522672808  1.0000
  C   C554      1.0  0.5524926081584929  0.3696426250371549  0.11396979350920636  1.0000
  C   C555      1.0  0.5192783642911222  0.39222768382530765  0.08618813468447899  1.0000
  C   C556      1.0  0.5051013156699847  0.36365998499837004  0.12448511963103741  1.0000
  H   H761      1.0  0.49223630209898317  0.4174228682522482  0.12657063305516747  1.0000
  H   H762      1.0  0.5275577284789926  0.42162821694045677  0.11879231298939495  1.0000
  H   H763      1.0  0.516901275448607  0.4005663555258634  0.14731287673818  1.0000
  H   H764      1.0  0.559326348417564  0.3514360410773132  0.10380119326213365  1.0000
  H   H765      1.0  0.5665200074946548  0.3836328175400187  0.10508556673430233  1.0000
  H   H766      1.0  0.5559844399556978  0.36276785456592603  0.13387848590286405  1.0000
  H   H767      1.0  0.4972354366927068  0.40273172991722234  0.084632292317253  1.0000
  H   H768      1.0  0.5250448141883812  0.37487088900494636  0.07502576311972303  1.0000
  H   H769      1.0  0.5326678578176728  0.4065582260370162  0.07671315164749817  1.0000
  H   H770      1.0  0.5109629619542783  0.34554952195176564  0.11423867602135877  1.0000
  H   H771      1.0  0.4825902021822434  0.37300480540796066  0.1238605827126923  1.0000
  H   H772      1.0  0.5072634769094664  0.35622413163494066  0.14465279761943073  1.0000
  N   N44       1.0  0.8490505010375657  0.4027937945775198  0.2146002340729873  1.0000
  C   C557      1.0  0.8784167391218526  0.40490753124616635  0.20569415010511813  1.0000
  C   C558      1.0  0.8410933437381115  0.38797817427368514  0.19742189199153126  1.0000
  C   C559      1.0  0.8305551272444361  0.4302381641041667  0.21450912827212967  1.0000
  C   C560      1.0  0.8461661447048644  0.38826125269974093  0.24071400609577134  1.0000
  H   H773      1.0  0.8930806410430597  0.38460019518021027  0.20577964225823886  1.0000
  H   H774      1.0  0.8849871349830498  0.4164215563319075  0.21798979690033032  1.0000
  H   H775      1.0  0.8813781020216207  0.41549487722600414  0.18587616525074632  1.0000
  H   H776      1.0  0.8188870927160095  0.38639481251321794  0.20325924607497264  1.0000
  H   H777      1.0  0.84336016397656  0.3985583114479767  0.17755212518933108  1.0000
  H   H778      1.0  0.8545163473609444  0.36710476489793115  0.1970304747991171  1.0000
  H   H779      1.0  0.8081726386118957  0.4295403457325267  0.22097240220023096  1.0000
  H   H780      1.0  0.8323067161210879  0.44172439786387696  0.1950942840871973  1.0000
  H   H781      1.0  0.8360277880919808  0.44209247066459445  0.22717426914613112  1.0000
  H   H782      1.0  0.8599480032950831  0.36748462668931386  0.24157800103909005  1.0000
  H   H783      1.0  0.8242329914673008  0.38637079764848076  0.24809614622454854  1.0000
  H   H784      1.0  0.8520434845205135  0.39919977723240435  0.25397757264759135  1.0000
  N   N45       1.0  0.8019243776351586  0.547564003335397  0.2677992863803133  1.0000
  C   C561      1.0  0.7745436763957418  0.5480171067176802  0.2845527597176091  1.0000
  C   C562      1.0  0.8087565304283398  0.5742556943825816  0.2650884858231362  1.0000
  C   C563      1.0  0.8006078559812027  0.541667862051847  0.24254734517740115  1.0000
  C   C564      1.0  0.8238475406079396  0.5263183537432017  0.2788583343853396  1.0000
  H   H785      1.0  0.7576663598141564  0.5641224704199206  0.2769229546621857  1.0000
  H   H786      1.0  0.7749910578344712  0.5520778650202441  0.3038976268706705  1.0000
  H   H787      1.0  0.7686296212464032  0.5282571004893936  0.28678900882395764  1.0000
  H   H788      1.0  0.8302168613421361  0.5738659320556161  0.2542751926397431  1.0000
  H   H789      1.0  0.7939952911134536  0.5904804344517448  0.25488764083045984  1.0000
  H   H790      1.0  0.8077959229061806  0.580418177617676  0.28386771393469135  1.0000
  H   H791      1.0  0.8208068005541577  0.5417623197595932  0.22941120252220482  1.0000
  H   H792      1.0  0.7842572929120083  0.5571729097944857  0.23352219811589367  1.0000
  H   H793      1.0  0.7960123589570354  0.5214667154186612  0.2436676605253418  1.0000
  H   H794      1.0  0.8259921353187774  0.530309846239478  0.29768146351223096  1.0000
  H   H795      1.0  0.8447133462698062  0.524917181228807  0.26642820435311326  1.0000
  H   H796      1.0  0.8190773720757208  0.5059684769897568  0.28165476113901083  1.0000
  N   N46       1.0  0.8553582609649081  0.21356319457188191  0.8814090764582698  1.0000
  C   C565      1.0  0.8804301713130138  0.19609062250317652  0.8680108427205286  1.0000
  C   C566      1.0  0.8588125251593952  0.21319295285472972  0.9078151331316355  1.0000
  C   C567      1.0  0.8303678815992745  0.20335086171512506  0.881602600690211  1.0000
  C   C568      1.0  0.851754685741719  0.24165786396819117  0.8682715395626396  1.0000
  H   H797      1.0  0.878481406112803  0.19576035206029654  0.8480524114267324  1.0000
  H   H798      1.0  0.8836826281910052  0.17476339750468117  0.8774179646454962  1.0000
  H   H799      1.0  0.8997369716446627  0.20309012289917885  0.8675655883410006  1.0000
  H   H800      1.0  0.8405625312031089  0.2266819536846786  0.918194391715915  1.0000
  H   H801      1.0  0.8604969414670991  0.192575193770418  0.9186349087336021  1.0000
  H   H802      1.0  0.8778445074407955  0.22005653740690176  0.9085863454637041  1.0000
  H   H803      1.0  0.8271371374902954  0.20315921165399908  0.8620218391960734  1.0000
  H   H804      1.0  0.811060859262789  0.21605007523314912  0.891596173933444  1.0000
  H   H805      1.0  0.832303832496337  0.18225948735374656  0.8915319817188588  1.0000
  H   H806      1.0  0.8701092556094969  0.25008931328039236  0.8680331394625515  1.0000
  H   H807      1.0  0.8329309285270595  0.25534433086249686  0.8778922920834561  1.0000
  H   H808      1.0  0.8490980961890117  0.24275977913706545  0.8482737919218297  1.0000
  N   N47       1.0  0.6276275667205976  0.9430007604230618  0.16574321519680776  1.0000
  C   C569      1.0  0.6141664842054811  0.9222851271402798  0.18242254330459484  1.0000
  C   C570      1.0  0.6187915570095112  0.9684627169419939  0.17720404678261792  1.0000
  C   C571      1.0  0.6192090904353286  0.9480300444804002  0.14052280358397828  1.0000
  C   C572      1.0  0.6583927002487958  0.9333391870668498  0.1628348863829215  1.0000
  H   H809      1.0  0.6202179125066901  0.9180661132847722  0.20159840212544947  1.0000
  H   H810      1.0  0.6202213878402715  0.9027939080415246  0.17436097177505488  1.0000
  H   H811      1.0  0.5909139981539603  0.9290051271791502  0.18520547948188362  1.0000
  H   H812      1.0  0.6276922433993366  0.9849072165662155  0.16465366404287235  1.0000
  H   H813      1.0  0.5956212290982399  0.9757948508010438  0.18057617592687436  1.0000
  H   H814      1.0  0.6260485612586267  0.9657222756361573  0.1956408713636678  1.0000
  H   H815      1.0  0.628764180954664  0.9638963367144312  0.12768825359287606  1.0000
  H   H816      1.0  0.5961703103252257  0.9555410635212997  0.14194159486648353  1.0000
  H   H817      1.0  0.6255549176440807  0.9293499371279466  0.1311570358903893  1.0000
  H   H818      1.0  0.6691669465350817  0.9486028755791334  0.15043169654793562  1.0000
  H   H819      1.0  0.6658796276480649  0.9141005897134348  0.15433465002551042  1.0000
  H   H820      1.0  0.665581748296927  0.9297182693374475  0.18147453477064557  1.0000
  N   N48       1.0  0.30322654011113426  0.22568691479743477  0.3675444196397659  1.0000
  C   C573      1.0  0.3034177008175177  0.22060332727716095  0.3951677017861967  1.0000
  C   C574      1.0  0.31430626110723636  0.19984686584994413  0.35674608464027796  1.0000
  C   C575      1.0  0.32095138888990804  0.2448974276318734  0.3552973403816083  1.0000
  C   C576      1.0  0.274248113915139  0.23740617370335237  0.36298585367580133  1.0000
  H   H821      1.0  0.2948416625400208  0.23963691770898285  0.40401136734633325  1.0000
  H   H822      1.0  0.32506839839066864  0.21211737587279503  0.39925727618420803  1.0000
  H   H823      1.0  0.29055202494876775  0.20593955768376626  0.405021250410788  1.0000
  H   H824      1.0  0.31523081570296885  0.20289077318112816  0.3358187532886308  1.0000
  H   H825      1.0  0.3358868751242969  0.19019466755960923  0.36038665404249337  1.0000
  H   H826      1.0  0.30125403115267047  0.18495739141226583  0.3652649340385622  1.0000
  H   H827      1.0  0.3428646625733377  0.23686138886938493  0.35857701323338975  1.0000
  H   H828      1.0  0.3131339994962602  0.26468240218755856  0.3629068932471068  1.0000
  H   H829      1.0  0.3215793430150168  0.24905982717394942  0.3344124076133941  1.0000
  H   H830      1.0  0.2733461012154939  0.24150466986274055  0.34233260936437726  1.0000
  H   H831      1.0  0.2653533092740513  0.25700473602810536  0.37082906238386154  1.0000
  H   H832      1.0  0.26020133408856555  0.22358228390075413  0.3721354776799605  1.0000
  N   N49       1.0  0.4907336729721375  0.1981172026494054  0.32011067959167294  1.0000
  C   C577      1.0  0.509156878108627  0.18269798696761017  0.3382901474583532  1.0000
  C   C578      1.0  0.5079605598571327  0.20638286102293943  0.29579434685299494  1.0000
  C   C579      1.0  0.4724744412844007  0.22247005796333744  0.3306544029224878  1.0000
  C   C580      1.0  0.47333535291738876  0.18082508436325784  0.31571573437352557  1.0000
  H   H833      1.0  0.4966911939034944  0.1761029214077838  0.3568088635452016  1.0000
  H   H834      1.0  0.522565137874009  0.19513835083466097  0.34212374567706777  1.0000
  H   H835      1.0  0.5232152605016275  0.16413925165965798  0.33093017767261135  1.0000
  H   H836      1.0  0.49464217790758325  0.2173575418372521  0.28142492808521274  1.0000
  H   H837      1.0  0.5209385465344043  0.21997174316416462  0.29819203410576633  1.0000
  H   H838      1.0  0.5224223545274564  0.1884815994181563  0.28764743989508035  1.0000
  H   H839      1.0  0.4593595872010721  0.21698964841264418  0.3491643803165494  1.0000
  H   H840      1.0  0.457896567481177  0.23442171455002847  0.3176655572475737  1.0000
  H   H841      1.0  0.4847607654130972  0.23622117510354207  0.33401030034565343  1.0000
  H   H842      1.0  0.45978911879089024  0.17438300811195623  0.33361290258912757  1.0000
  H   H843      1.0  0.4864929692494977  0.16218055591774508  0.30797464020241755  1.0000
  H   H844      1.0  0.4593672195302277  0.191602072727476  0.3018068206503286  1.0000
  N   N50       1.0  0.7987860049435896  0.025373147057079302  0.3950163140541331  1.0000
  C   C581      1.0  0.8091992400677515  0.018892766215407312  0.4194376317701742  1.0000
  C   C582      1.0  0.7688740189091829  0.03958886908770864  0.3991418902849808  1.0000
  C   C583      1.0  0.8019464823887802  3.1369859946403357e-05  0.3844793862047894  1.0000
  C   C584      1.0  0.8151476133676494  0.042900678331665616  0.3769294421820613  1.0000
  H   H845      1.0  0.8315847715129234  0.007687380346805473  0.4171010605846776  1.0000
  H   H846      1.0  0.7973479437026614  0.005666543565532178  0.43356889935031656  1.0000
  H   H847      1.0  0.8073101650520954  0.03749194119041926  0.427972732351669  1.0000
  H   H848      1.0  0.760185430835648  0.044270400678154805  0.3811773025024382  1.0000
  H   H849      1.0  0.7558851194747678  0.02692702566725393  0.41269578218564734  1.0000
  H   H850      1.0  0.7655612454570035  0.058918642085248316  0.40695748004142024  1.0000
  H   H851      1.0  0.8241607927574677  0.9884301417107927  0.38143055304271395  1.0000
  H   H852      1.0  0.7940902002538  0.003992997138936082  0.36614547444039297  1.0000
  H   H853      1.0  0.7897698719637604  0.9865640668213126  0.3976559813275813  1.0000
  H   H854      1.0  0.807831519110224  0.04809446322665165  0.35829682758352865  1.0000
  H   H855      1.0  0.837796213982237  0.03268087505209207  0.3733783742805524  1.0000
  H   H856      1.0  0.8132637644472731  0.06223900157334838  0.3842671796544578  1.0000
  N   N51       1.0  0.5563627638737637  0.057752869391769046  0.21645831792964926  1.0000
  C   C585      1.0  0.5469047199370939  0.03423220028359997  0.23228008363218017  1.0000
  C   C586      1.0  0.5611036182580454  0.07544159508360138  0.2329106389181144  1.0000
  C   C587      1.0  0.5346819879415726  0.073275487399588  0.20144825752957538  1.0000
  C   C588      1.0  0.5827233640922239  0.048139418233350995  0.19915762782112803  1.0000
  H   H857      1.0  0.5431542636612438  0.020426551824450412  0.22046100717248038  1.0000
  H   H858      1.0  0.5270916426698781  0.04070229388005586  0.24568567717086923  1.0000
  H   H859      1.0  0.56274936366622  0.02208230123213606  0.24390707402994524  1.0000
  H   H860      1.0  0.5672378777841913  0.09392322619180904  0.22168896778978744  1.0000
  H   H861      1.0  0.5419030839103525  0.08226646022333717  0.2468435761516173  1.0000
  H   H862      1.0  0.5780867833119891  0.06470450784703363  0.24382894549831252  1.0000
  H   H863      1.0  0.5412816290712319  0.09110547940292912  0.18924612146190886  1.0000
  H   H864      1.0  0.5145179587681346  0.08078174449784248  0.2139526734678192  1.0000
  H   H865      1.0  0.5306899493940346  0.06057003615537182  0.1887207666202563  1.0000
  H   H866      1.0  0.5903099966447916  0.06531514885250855  0.18668078615376016  1.0000
  H   H867      1.0  0.5800244196998334  0.03449639118759995  0.18661131090124428  1.0000
  H   H868      1.0  0.5996248329887894  0.03665307529213657  0.20985645396949462  1.0000
  N   N52       1.0  0.023537888470984925  0.9792104098934776  0.8268042341093832  1.0000
  C   C589      1.0  0.0519036108779698  0.9796010797706133  0.8300930336183194  1.0000
  C   C590      1.0  0.020705592017159047  0.9508710540224402  0.8303550068497098  1.0000
  C   C591      1.0  0.018964814375767247  0.9922744056264894  0.8010354596320053  1.0000
  C   C592      1.0  0.002517217609039779  0.9941725615507145  0.8457991363184072  1.0000
  H   H869      1.0  0.05472111865848861  0.0006535339687787634  0.8279221403606654  1.0000
  H   H870      1.0  0.06831467041384043  0.9683601367432  0.8161264403150964  1.0000
  H   H871      1.0  0.0560849203382201  0.9698105998142501  0.849354556220418  1.0000
  H   H872      1.0  0.9986839974789027  0.9498681072611282  0.8312167426831145  1.0000
  H   H873      1.0  0.03345431481627159  0.9398707408741221  0.8144156815663308  1.0000
  H   H874      1.0  0.027323811205489656  0.9393814855565236  0.8482984111718441  1.0000
  H   H875      1.0  0.034363736333441475  0.9814163399293448  0.7861804646135852  1.0000
  H   H876      1.0  0.020510290994013802  0.013794521583441632  0.7978816353630739  1.0000
  H   H877      1.0  0.9978034277977248  0.992181649565638  0.7979790090701797  1.0000
  H   H878      1.0  0.9807960834024381  0.9948992970834862  0.8436304463089719  1.0000
  H   H879      1.0  0.004386814328081412  0.015479135207160821  0.8440229115373581  1.0000
  H   H880      1.0  0.004875541125101579  0.9845554824076932  0.8654966349915908  1.0000
  N   N53       1.0  0.5089832773348989  0.7089575352303263  0.5948381876633994  1.0000
  C   C593      1.0  0.492240348939536  0.6891792290259632  0.6080597753045519  1.0000
  C   C594      1.0  0.5001050171408986  0.7336621187412936  0.6075523562897935  1.0000
  C   C595      1.0  0.5047892127364354  0.7160988530885044  0.5681326054005471  1.0000
  C   C596      1.0  0.5389299434255147  0.6968248786298317  0.595575907138309  1.0000
  H   H881      1.0  0.4695110645645906  0.6974374441498156  0.607752576676692  1.0000
  H   H882      1.0  0.49481786644490044  0.6833702161518039  0.6282884471295445  1.0000
  H   H883      1.0  0.4988613800093668  0.6700325164913123  0.5992952922772768  1.0000
  H   H884      1.0  0.5031776375650563  0.7290489363318046  0.6277082689472832  1.0000
  H   H885      1.0  0.5125784358540153  0.7488736087969088  0.5982628330747433  1.0000
  H   H886      1.0  0.4775896080157168  0.7434332182727801  0.6074718118808039  1.0000
  H   H887      1.0  0.5172441069083706  0.7308835286473748  0.5575736278484  1.0000
  H   H888      1.0  0.48239132433004434  0.7253343319599879  0.566844487656797  1.0000
  H   H889      1.0  0.5113364891006003  0.6978433325317577  0.5580594444690558  1.0000
  H   H890      1.0  0.5464700287567599  0.6780334848614379  0.586279205509686  1.0000
  H   H891      1.0  0.5426112685121156  0.6910271984271963  0.6154452549098143  1.0000
  H   H892      1.0  0.5522967858821818  0.7112042404532913  0.586143968752617  1.0000
  N   N54       1.0  0.8854000434223903  0.577598717155534  0.41109328238522475  1.0000
  C   C597      1.0  0.8583091262804177  0.5975825117120822  0.4110010403951353  1.0000
  C   C598      1.0  0.8973868044148321  0.5713762655287118  0.3849655607036629  1.0000
  C   C599      1.0  0.8809092537141273  0.5525286100775487  0.4277494447100675  1.0000
  C   C600      1.0  0.9049267191980664  0.5888765107180604  0.4206102566965937  1.0000
  H   H893      1.0  0.8608220107193473  0.6164541327453963  0.39813779759381185  1.0000
  H   H894      1.0  0.8488671905093645  0.6033441686444339  0.43025856361240766  1.0000
  H   H895      1.0  0.8429463788452629  0.5894954380416716  0.40427617144851924  1.0000
  H   H896      1.0  0.9170925191747981  0.5552361119862663  0.3843419890733135  1.0000
  H   H897      1.0  0.8825918035359298  0.5639388327356343  0.37693855388371744  1.0000
  H   H898      1.0  0.9018703923837277  0.5895982060128179  0.37192667709641847  1.0000
  H   H899      1.0  0.9008699953674094  0.5368157426818818  0.4281249655765975  1.0000
  H   H900      1.0  0.8664384484142432  0.5433783004183312  0.4209492021076941  1.0000
  H   H901      1.0  0.8718102804922764  0.5563995314857938  0.4476135884129442  1.0000
  H   H902      1.0  0.9253941137062985  0.5740723160131812  0.4212953889107452  1.0000
  H   H903      1.0  0.8962969216258878  0.5943840762343688  0.44009346151753803  1.0000
  H   H904      1.0  0.9090068734322352  0.6076260694228178  0.4083022139944364  1.0000
  N   N55       1.0  0.4140689285903347  0.7700969226758271  0.9976348817731908  1.0000
  C   C601      1.0  0.43822435835932094  0.7505947140338525  0.985559116560318  1.0000
  C   C602      1.0  0.42248344414180194  0.7953998194561352  0.9981204389195418  1.0000
  C   C603      1.0  0.40459939344466317  0.7582519927668712  0.023875494063216547  1.0000
  C   C604      1.0  0.3910170300646205  0.7760797394991037  0.9829699421621858  1.0000
  H   H905      1.0  0.4560409993303693  0.7454467624314745  0.9961029912131617  1.0000
  H   H906      1.0  0.44602227586089094  0.7587316059215408  0.9656900209947664  1.0000
  H   H907      1.0  0.432574299651438  0.7312961493431228  0.9848823607097686  1.0000
  H   H908      1.0  0.42806721065697195  0.8057803271205539  0.9786013576371319  1.0000
  H   H909      1.0  0.405418857903806  0.8098529320326109  0.008744256145973446  1.0000
  H   H910      1.0  0.4410254214547659  0.7913961630713812  0.00754007750394257  1.0000
  H   H911      1.0  0.42132322002503664  0.7541045799102697  0.03556861605633252  1.0000
  H   H912      1.0  0.398904037936994  0.7386998495873147  0.02424687033522562  1.0000
  H   H913      1.0  0.38603725805205297  0.7722109363495581  0.03343369657184264  1.0000
  H   H914      1.0  0.3974319475574879  0.785081602699567  0.9630394524377667  1.0000
  H   H915      1.0  0.3724494719905633  0.7908750619805189  0.991465628410368  1.0000
  H   H916      1.0  0.3842418279112778  0.7574207126874346  0.9820250336445572  1.0000
  N   N56       1.0  0.5003476185368433  0.831564528331018  0.09594671837675753  1.0000
  C   C605      1.0  0.49910522254838247  0.8030219695989215  0.09696489691693914  1.0000
  C   C606      1.0  0.4859482449310381  0.8414797647022545  0.12033481082223785  1.0000
  C   C607      1.0  0.4865099819724891  0.8483474869619926  0.0750811339313296  1.0000
  C   C608      1.0  0.5299132142984063  0.833454539270753  0.0913101372690619  1.0000
  H   H917      1.0  0.5094451645095635  0.7950276445783772  0.07871554787578078  1.0000
  H   H918      1.0  0.47711068901655457  0.8008716481752632  0.10034175532195015  1.0000
  H   H919      1.0  0.509424260194197  0.789630313126743  0.11238894731600822  1.0000
  H   H920      1.0  0.46324561428073363  0.8415854903657404  0.12398697030297033  1.0000
  H   H921      1.0  0.4951213225082752  0.8286635624830601  0.1366386764250608  1.0000
  H   H922      1.0  0.4874768887958818  0.8625962761708195  0.12055871488240234  1.0000
  H   H923      1.0  0.4638720029631745  0.8483011447582207  0.07842001278570494  1.0000
  H   H924      1.0  0.49602208787407137  0.8406846335618784  0.05655172751810879  1.0000
  H   H925      1.0  0.48814081195346837  0.869743888921914  0.07294378229321492  1.0000
  H   H926      1.0  0.531563344902867  0.8547761988865555  0.09046794361338938  1.0000
  H   H927      1.0  0.5413552389837588  0.8262708397296612  0.07298392029649763  1.0000
  H   H928      1.0  0.5410521440844542  0.8209964751113543  0.10666267638591666  1.0000
  N   N57       1.0  0.5561422083265392  0.4467215337014535  0.9389605232881342  1.0000
  C   C609      1.0  0.5510876530187043  0.41915040082315286  0.9458340297331778  1.0000
  C   C610      1.0  0.536729225090304  0.46274783327652824  0.9219441074288283  1.0000
  C   C611      1.0  0.5853555932183443  0.4452774472332627  0.9257700914354458  1.0000
  C   C612      1.0  0.5512288716691988  0.45971925619512083  0.962155489545208  1.0000
  H   H929      1.0  0.5291314618349098  0.41945050703144887  0.9553731492004507  1.0000
  H   H930      1.0  0.5649335815732932  0.4064615423180258  0.9589641119950408  1.0000
  H   H931      1.0  0.5551086685129798  0.4085857660401384  0.9287591216009985  1.0000
  H   H932      1.0  0.514464403255632  0.4643604324084904  0.9312116122499532  1.0000
  H   H933      1.0  0.5397856157043549  0.48368953148373056  0.9163743091251264  1.0000
  H   H934      1.0  0.5399872785162818  0.45342162276034625  0.9042456106159102  1.0000
  H   H935      1.0  0.5893776240726156  0.4658109989949548  0.9189266286129704  1.0000
  H   H936      1.0  0.5902140440349894  0.4343182006920105  0.908852523297718  1.0000
  H   H937      1.0  0.6006898671667789  0.43458573010159013  0.9384676079009147  1.0000
  H   H938      1.0  0.5657355200113955  0.44817849301425594  0.9753488209990977  1.0000
  H   H939      1.0  0.5294723145583621  0.4609024381115196  0.9727187800999502  1.0000
  H   H940      1.0  0.55437487952822  0.48075158737738977  0.9575244714868357  1.0000
  N   N58       1.0  0.7824572175557856  0.8869546452284441  0.5492216972407767  1.0000
  C   C613      1.0  0.7798128983388953  0.8947887932860364  0.5222099265617594  1.0000
  C   C614      1.0  0.7671580673042055  0.8655577949344103  0.5604029726484597  1.0000
  C   C615      1.0  0.770513709208542  0.9108254353761215  0.5629310190490298  1.0000
  C   C616      1.0  0.8123181590063685  0.876589698587943  0.5513039012616937  1.0000
  H   H941      1.0  0.7889911810926344  0.8774422154967298  0.511143317163662  1.0000
  H   H942      1.0  0.7904600472264982  0.9114264027815554  0.5133052163767119  1.0000
  H   H943      1.0  0.7575086528911181  0.9021676635542809  0.5199592559114847  1.0000
  H   H944      1.0  0.7702657458231833  0.8579260726606753  0.5802924353653949  1.0000
  H   H945      1.0  0.7442743364449451  0.8732866799385228  0.5608926421337735  1.0000
  H   H946      1.0  0.7740242131930084  0.8480675313286634  0.5493941504058342  1.0000
  H   H947      1.0  0.7828277201607333  0.9266380251908247  0.5562242429574352  1.0000
  H   H948      1.0  0.7703152578497795  0.9052319350592335  0.5837086801321163  1.0000
  H   H949      1.0  0.7485354400074898  0.9203068175411167  0.5602102489562054  1.0000
  H   H950      1.0  0.8216517459042709  0.8578349690755469  0.5422641174730507  1.0000
  H   H951      1.0  0.8152416191717891  0.8720376431728059  0.5714834096019464  1.0000
  H   H952      1.0  0.8246758815007278  0.8917794825642733  0.5418570651360514  1.0000
  N   N59       1.0  0.7035892919048433  0.3852610570381303  0.7903612680090282  1.0000
  C   C617      1.0  0.7292205805093329  0.3758743230607967  0.8018288414573872  1.0000
  C   C618      1.0  0.6879292255848047  0.36365933503820774  0.7956917607325239  1.0000
  C   C619      1.0  0.7113801690051585  0.3918562947663525  0.7626137314626733  1.0000
  C   C620      1.0  0.6858747659829115  0.4097358886023528  0.8011103800638268  1.0000
  H   H953      1.0  0.724154320821256  0.3701700902859931  0.8227055697056719  1.0000
  H   H954      1.0  0.7411038149644521  0.39200870282811123  0.7985953233112089  1.0000
  H   H955      1.0  0.7434511553140342  0.35785548655446886  0.7937423924146894  1.0000
  H   H956      1.0  0.669207369596424  0.36975669600233985  0.7862610703241829  1.0000
  H   H957      1.0  0.7011009899676566  0.3445736199807377  0.7888059013737445  1.0000
  H   H958      1.0  0.6803622509891896  0.35901583215679056  0.8163605287733835  1.0000
  H   H959      1.0  0.7248075273719022  0.37397859268452954  0.7537441254231699  1.0000
  H   H960      1.0  0.7232438972782961  0.40799387900540146  0.7579351962851265  1.0000
  H   H961      1.0  0.6925475024295507  0.39921110716343494  0.7533280420886523  1.0000
  H   H962      1.0  0.679763577396868  0.40562399547861194  0.8220675410308358  1.0000
  H   H963      1.0  0.6661844654212716  0.41708317683802554  0.7931695702388684  1.0000
  H   H964      1.0  0.6969480635004625  0.42658561541225615  0.7969912748880221  1.0000
  N   N60       1.0  0.6001900700957958  0.8579148530220865  0.5979797982216405  1.0000
  C   C621      1.0  0.6108641397687957  0.8333894061407476  0.585085261521532  1.0000
  C   C622      1.0  0.572085871921444  0.8718228066921321  0.592221991760782  1.0000
  C   C623      1.0  0.6194079568897523  0.8763403668826164  0.588800905036696  1.0000
  C   C624      1.0  0.5984392744330997  0.8500901310723747  0.625730812083395  1.0000
  H   H965      1.0  0.6316685054421616  0.8219411688363673  0.5896868993685888  1.0000
  H   H966      1.0  0.6137909689724778  0.8385743780496948  0.5640387843698283  1.0000
  H   H967      1.0  0.5964328239157416  0.8194230558433153  0.5907753485299853  1.0000
  H   H968      1.0  0.5634758418985597  0.8905237651845218  0.6015495684551675  1.0000
  H   H969      1.0  0.5727200267175656  0.8778563649360859  0.5714114244918486  1.0000
  H   H970      1.0  0.5570312219404928  0.8584839447677748  0.5989796394076028  1.0000
  H   H971      1.0  0.6121935680695161  0.8951434853243819  0.5980254367866686  1.0000
  H   H972      1.0  0.6216576262659154  0.8823152630890332  0.5678497464836613  1.0000
  H   H973      1.0  0.6407446861999022  0.8663657198504175  0.5927877071225125  1.0000
  H   H974      1.0  0.5905829052448528  0.8680736120267742  0.6361205182869293  1.0000
  H   H975      1.0  0.619298369968108  0.8394802576272341  0.630788744188106  1.0000
  H   H976      1.0  0.584197139259922  0.8360538119509258  0.6333083901050587  1.0000
  N   N61       1.0  0.7918567859203107  0.756536834866349  0.396763653245561  1.0000
  C   C625      1.0  0.7759785590683093  0.7392580701199808  0.38985523623410717  1.0000
  C   C626      1.0  0.7908308213889198  0.7517284043907714  0.42455837566060944  1.0000
  C   C627      1.0  0.7792986086014778  0.7853387683978861  0.38887388415054847  1.0000
  C   C628      1.0  0.8213063633246185  0.7498190341773006  0.38376593516920376  1.0000
  H   H977      1.0  0.7778710391314996  0.7406857471133729  0.368894975529481  1.0000
  H   H978      1.0  0.7533765932954187  0.7447908105893613  0.3981956969080499  1.0000
  H   H979      1.0  0.783875160735476  0.7175472088013708  0.39690025414730246  1.0000
  H   H980      1.0  0.8023530243332878  0.764462544560751  0.430661810279694  1.0000
  H   H981      1.0  0.7689941448416462  0.7563399288291086  0.43514168847255613  1.0000
  H   H982      1.0  0.8004856023509405  0.7302374786163598  0.4311566250130733  1.0000
  H   H983      1.0  0.7917682379487048  0.7987935761286071  0.3924677562103013  1.0000
  H   H984      1.0  0.7576713198109833  0.7917171415652571  0.39947850520489103  1.0000
  H   H985      1.0  0.7784339905669942  0.7892586580726138  0.36821890744764674  1.0000
  H   H986      1.0  0.8338265745676156  0.7627052737342884  0.38839795529155474  1.0000
  H   H987      1.0  0.8228860526968343  0.7526113851299705  0.36277240688600815  1.0000
  H   H988      1.0  0.8316375586201563  0.7283765676544918  0.3894719789094783  1.0000
  N   N62       1.0  0.6621660747204807  0.09157706313919389  0.24625715932609885  1.0000
  C   C629      1.0  0.6601658205809132  0.12015200213439753  0.24871595696762497  1.0000
  C   C630      1.0  0.6854230760080255  0.08268838146680756  0.22561095730314207  1.0000
  C   C631      1.0  0.6356235288113065  0.08915922860402245  0.240271595464799  1.0000
  C   C632      1.0  0.6672789056271216  0.07436087482589843  0.27044393032928177  1.0000
  H   H989      1.0  0.6425286824556863  0.12751065089737096  0.26394116856939137  1.0000
  H   H990      1.0  0.6560862907640798  0.13373652740905184  0.2308351224617117  1.0000
  H   H991      1.0  0.6797441318816225  0.12286318474038738  0.2533290246609436  1.0000
  H   H992      1.0  0.7058524541320748  0.08401181692450328  0.22956075169859383  1.0000
  H   H993      1.0  0.6872919969573331  0.061254197248956484  0.22309052482858951  1.0000
  H   H994      1.0  0.6822799320007518  0.09536501225008727  0.20708323656257552  1.0000
  H   H995      1.0  0.617721264633884  0.09501895093616607  0.2558003758249607  1.0000
  H   H996      1.0  0.636558010331972  0.06802160051403423  0.23758655563923323  1.0000
  H   H997      1.0  0.6305559263497781  0.10271813215797644  0.2227475332753403  1.0000
  H   H998      1.0  0.668721469667096  0.05268806844323308  0.2693062337704232  1.0000
  H   H999      1.0  0.6498582816938527  0.08028726786294832  0.2863374263069447  1.0000
  H   H1000     1.0  0.6870783592494387  0.0756527503084991  0.2757227800073463  1.0000
  N   N63       1.0  0.9568857765426322  0.5329573474117135  0.2443539382690087  1.0000
  C   C633      1.0  0.9780086999334843  0.5110770166418102  0.2321534288375261  1.0000
  C   C634      1.0  0.9436107720622097  0.552802532456833  0.22472551040385494  1.0000
  C   C635      1.0  0.9705927916153166  0.5466376829267273  0.2580657010048169  1.0000
  C   C636      1.0  0.9353020609726743  0.5213155070253577  0.26253046144896214  1.0000
  H   H1001     1.0  0.9881962027298357  0.4954821141903656  0.24646558691223466  1.0000
  H   H1002     1.0  0.994799945503722  0.5191185997982783  0.2184897980423555  1.0000
  H   H1003     1.0  0.9684107688895511  0.5004909281284247  0.2213696570315002  1.0000
  H   H1004     1.0  0.9337484757960389  0.5428858906633952  0.21359574414977284  1.0000
  H   H1005     1.0  0.9270794007406138  0.569240856854511  0.23324901199256654  1.0000
  H   H1006     1.0  0.9592788567975736  0.5623585745715197  0.211016398102698  1.0000
  H   H1007     1.0  0.9805264473235442  0.5322142598138424  0.27320227268125774  1.0000
  H   H1008     1.0  0.9552317144079805  0.5632803233750178  0.2674533959422246  1.0000
  H   H1009     1.0  0.987311741666402  0.5554300866570232  0.2450655728226173  1.0000
  H   H1010     1.0  0.9189228739770753  0.5372191040907781  0.2720335278157557  1.0000
  H   H1011     1.0  0.9446871448320374  0.5065376224756543  0.27775631213587054  1.0000
  H   H1012     1.0  0.9248216779037821  0.5103708358644513  0.25296624487614044  1.0000
  N   N64       1.0  0.43027586775647025  0.41241347156918445  0.5560520075207882  1.0000
  C   C637      1.0  0.4066447256430106  0.40228078316601007  0.5724823483258931  1.0000
  C   C638      1.0  0.4490170771305632  0.39051736604591464  0.5421526052138544  1.0000
  C   C639      1.0  0.44594283633272586  0.42132183722888245  0.5718818081407354  1.0000
  C   C640      1.0  0.41941344001259734  0.4355530743051635  0.5376449445078  1.0000
  H   H1013     1.0  0.4140289360975018  0.384796917500362  0.5866162137133553  1.0000
  H   H1014     1.0  0.39433225478056694  0.3954251642259919  0.5611119801316965  1.0000
  H   H1015     1.0  0.39203030065047606  0.41831280629876944  0.5832177356344824  1.0000
  H   H1016     1.0  0.4669379274271085  0.3975299041904874  0.5293632672385188  1.0000
  H   H1017     1.0  0.4576338239504389  0.3726867012429754  0.5554090106169448  1.0000
  H   H1018     1.0  0.43764759625376487  0.38334931942661027  0.5301022996786883  1.0000
  H   H1019     1.0  0.4639205469100919  0.4291677504637737  0.5601607805266178  1.0000
  H   H1020     1.0  0.45423637618718743  0.40449234346933505  0.5862099358028567  1.0000
  H   H1021     1.0  0.4323052662303551  0.43790258135399224  0.5824424208516098  1.0000
  H   H1022     1.0  0.4364999619831052  0.4444127466887083  0.5254854044814035  1.0000
  H   H1023     1.0  0.404265754596718  0.45207684934509873  0.5473488094167446  1.0000
  H   H1024     1.0  0.40839055301385724  0.42925710413551593  0.5248035647833182  1.0000
