data_image0
_chemical_formula_structural       FeS2FeS2FeSFeS3FeS2FeS2FeSFeS3FeS2FeS2FeSFeS3FeS2FeS2FeSFeS3C6H4C6H4C6H4C6H4C6H4C6H4C6H4C6H4FeS2FeS2FeSFeS3FeS2FeS2FeSFeS3FeS2FeS2FeSFeS3FeS2FeS2FeSFeS3C6H4C6H4C6H4C6H4C6H4C6H4C6H4C6H4FeS2FeS2FeSFeS3FeS2FeS2FeSFeS3FeS2FeS2FeSFeS3FeS2FeS2FeSFeS3C6H4C6H4C6H4C6H4C6H4C6H4C6H4C6H4FeS2FeS2FeSFeS3FeS2FeS2FeSFeS3FeS2FeS2FeSFeS3FeS2FeS2FeSFeS3C6H4C6H4C6H4C6H4C6H4C6H4C6H4C6H4NC4H12NC4H12NC4H12NC4H12NC4H12NC4H12NC4H12NC4H12NC4H12NC4H12NC4H12NC4H12NC4H12NC4H12NC4H12NC4H12NC4H12NC4H12NC4H12NC4H12NC4H12NC4H12NC4H12NC4H12NC4H12NC4H12NC4H12NC4H12NC4H12NC4H12NC4H12NC4H12
_chemical_formula_sum              "Fe64 S128 C320 H512 N32"
_cell_length_a       33.502813120503156
_cell_length_b       24.02520239128463
_cell_length_c       24.884818854807346
_cell_angle_alpha    89.8755093512176
_cell_angle_beta     89.62776021253119
_cell_angle_gamma    90.24946933558073

_space_group_name_H-M_alt    "P 1"
_space_group_IT_number       1

loop_
  _space_group_symop_operation_xyz
  'x, y, z'

loop_
  _atom_site_type_symbol
  _atom_site_label
  _atom_site_symmetry_multiplicity
  _atom_site_fract_x
  _atom_site_fract_y
  _atom_site_fract_z
  _atom_site_occupancy
  Fe  Fe1       1.0  0.6320565765168213  0.19352342972950703  0.3845236823103998  1.0000
  S   S1        1.0  0.6271579352494836  0.23514290369783272  0.46494797469262783  1.0000
  S   S2        1.0  0.6702504719994797  0.1180449687610219  0.3719508174701192  1.0000
  Fe  Fe2       1.0  0.5683759641741478  0.26426623641855757  0.33474740522343893  1.0000
  S   S3        1.0  0.5566868956852894  0.3115658833496282  0.410758654998553  1.0000
  S   S4        1.0  0.5377485433520445  0.2749035057323022  0.25594447820836935  1.0000
  Fe  Fe3       1.0  0.6233437000886187  0.3142030497588603  0.4172829555709816  1.0000
  S   S5        1.0  0.648854313689002  0.3971396491505322  0.4412680022525046  1.0000
  Fe  Fe4       1.0  0.5612048033348391  0.229023358352245  0.45156668464934435  1.0000
  S   S6        1.0  0.5214202706825232  0.2101126412294955  0.5221809511425922  1.0000
  S   S7        1.0  0.6347464781893443  0.2734017984354585  0.33759052404762424  1.0000
  S   S8        1.0  0.566321755856427  0.18115303523361548  0.37470795014090935  1.0000
  Fe  Fe5       1.0  0.8776172540324665  0.6239338641171935  0.41741461500318855  1.0000
  S   S9        1.0  0.8342375315046585  0.5743423039889631  0.4673485161710519  1.0000
  S   S10       1.0  0.8558510423084758  0.7012222109965273  0.37820880060736456  1.0000
  Fe  Fe6       1.0  0.9466604896849048  0.5498467415112888  0.44168870496742935  1.0000
  S   S11       1.0  0.9097776072638185  0.4929621083912901  0.49357420347371245  1.0000
  S   S12       1.0  0.011908279288074697  0.5337894345207198  0.43137017568038905  1.0000
  Fe  Fe7       1.0  0.863780040200766  0.5006228630180537  0.4290441264728703  1.0000
  S   S13       1.0  0.8345278953236719  0.4218284378075343  0.39964076996556175  1.0000
  Fe  Fe8       1.0  0.8839673893936222  0.5714220847247875  0.5264728470868668  1.0000
  S   S14       1.0  0.8754463213489361  0.5908891681751923  0.6134067100089656  1.0000
  S   S15       1.0  0.9031792378017017  0.5508295703064492  0.37378518496164637  1.0000
  S   S16       1.0  0.9247219974179575  0.6279904699352302  0.4800876215483451  1.0000
  Fe  Fe9       1.0  0.07699280755145056  0.2561175883840885  0.3733288401489337  1.0000
  S   S17       1.0  0.08985617993727978  0.3055807681918204  0.29881596686419254  1.0000
  S   S18       1.0  0.020491012550965193  0.2725975114957674  0.41809348801650276  1.0000
  Fe  Fe10      1.0  0.15296678386758847  0.19092443316976168  0.36615040193862836  1.0000
  S   S19       1.0  0.1733169746452212  0.23446390346281185  0.2911676002214349  1.0000
  S   S20       1.0  0.19008331007102128  0.12253045371118289  0.40057726071211647  1.0000
  Fe  Fe11      1.0  0.1516377297363694  0.3121191453927813  0.3315670824269934  1.0000
  S   S21       1.0  0.18258154170400615  0.39531367870201783  0.3309300915881544  1.0000
  Fe  Fe12      1.0  0.10997496312249831  0.22399869509252793  0.2651067123723299  1.0000
  S   S22       1.0  0.09576812024600125  0.19262986974422727  0.18274805340808628  1.0000
  S   S23       1.0  0.137170896755963  0.26939034017662616  0.4096494029688914  1.0000
  S   S24       1.0  0.09134216001774285  0.17363574402432982  0.3367111419629311  1.0000
  Fe  Fe13      1.0  0.36584614392656856  0.609465340730205  0.17612740606434535  1.0000
  S   S25       1.0  0.33488736428484245  0.5678764240037293  0.10764558421548977  1.0000
  S   S26       1.0  0.3433044806579128  0.6887913004723862  0.21094982159713596  1.0000
  Fe  Fe14      1.0  0.435168871410531  0.5307920012385962  0.17524551930195859  1.0000
  S   S27       1.0  0.41145920026438  0.48094213105497036  0.10602940134837223  1.0000
  S   S28       1.0  0.4936287372074657  0.5253442231135865  0.21783574700616154  1.0000
  Fe  Fe15      1.0  0.395443877019124  0.5632909215919928  0.07063115134513587  1.0000
  S   S29       1.0  0.4048862409690185  0.5875340729096052  0.9848654830553135  1.0000
  Fe  Fe16      1.0  0.3523369933382499  0.48869394279844636  0.1486293586034192  1.0000
  S   S30       1.0  0.31003033987339645  0.4160851032047495  0.1441081734801947  1.0000
  S   S31       1.0  0.42520748447486617  0.6124347157004243  0.13540846876108129  1.0000
  S   S32       1.0  0.3775109705660751  0.5306844132889326  0.22166401778929742  1.0000
  C   C1        1.0  0.21672874670817055  0.4028538780303764  0.27759493225479853  1.0000
  C   C2        1.0  0.21721884832314928  0.3645125937170821  0.23542749234524588  1.0000
  C   C3        1.0  0.24561018679411187  0.3695054005518591  0.19410172205572723  1.0000
  C   C4        1.0  0.27327800419226705  0.41328563019705883  0.1944509114700823  1.0000
  C   C5        1.0  0.272124176558499  0.45269016212447105  0.23568066084662362  1.0000
  C   C6        1.0  0.24377675055463885  0.4475062188520086  0.27722240587036534  1.0000
  H   H1        1.0  0.1955468286593393  0.3312481992889062  0.2343804384288031  1.0000
  H   H2        1.0  0.24620575998059946  0.3392486723876848  0.16197888669255836  1.0000
  H   H3        1.0  0.29324369151056195  0.48679834911677883  0.23600123333355513  1.0000
  H   H4        1.0  0.24318217610002335  0.477696122477359  0.309444189103978  1.0000
  C   C7        1.0  0.2392780228989048  0.14661565002932297  0.396432191262548  1.0000
  C   C8        1.0  0.2469859231521104  0.20367983814790003  0.39108632850351965  1.0000
  C   C9        1.0  0.2861392951083267  0.22283869104632015  0.3833003832418306  1.0000
  C   C10       1.0  0.2921780449114113  0.6805312809035334  0.22291562572800416  1.0000
  C   C11       1.0  0.27504224072301287  0.6273054425749381  0.22347211345067403  1.0000
  C   C12       1.0  0.23399524455407494  0.6208702317323606  0.23289818341424828  1.0000
  H   H5        1.0  0.22279469023461324  0.23323521314010598  0.39270693134754386  1.0000
  H   H6        1.0  0.2919374459540054  0.26695623158314674  0.3786461457350124  1.0000
  H   H7        1.0  0.29344443477067655  0.5910584158797854  0.21727070822168917  1.0000
  H   H8        1.0  0.22084757921574402  0.579664149730848  0.23388632563246578  1.0000
  C   C13       1.0  0.9224038220745612  0.5848419459738037  0.6432580493433773  1.0000
  C   C14       1.0  0.02592010121240107  0.6565813683535449  0.16832720679630242  1.0000
  C   C15       1.0  0.0298573079535185  0.7128103569211117  0.18141985131938707  1.0000
  C   C16       1.0  0.044247534004342004  0.1974878926624762  0.17164262072831246  1.0000
  C   C17       1.0  0.015555510942127926  0.2547438506979858  0.5943411607451653  1.0000
  C   C18       1.0  0.9819596383148552  0.22076067865062224  0.5873825943153178  1.0000
  H   H9        1.0  0.05226431778859131  0.6309879434442615  0.16434766851792995  1.0000
  H   H10       1.0  0.05928154501520489  0.7299557520121388  0.1874390938413001  1.0000
  H   H11       1.0  0.03150735746925437  0.27087221115066484  0.5597058705454028  1.0000
  H   H12       1.0  0.9727277024210558  0.21062000067731632  0.5474812083634224  1.0000
  C   C19       1.0  0.014988035034846137  0.4613166120760441  0.42658674036659766  1.0000
  C   C20       1.0  0.9808156028075768  0.4302915431429352  0.4141526771900479  1.0000
  C   C21       1.0  0.9823483818718475  0.37214927910883755  0.4128451643648733  1.0000
  C   C22       1.0  0.01828722709875019  0.3449935341514417  0.42266049435963554  1.0000
  C   C23       1.0  0.05285835390288919  0.3759911917795936  0.43315056854258827  1.0000
  C   C24       1.0  0.05116800452129633  0.434221247108363  0.4355411918402053  1.0000
  H   H13       1.0  0.9532668193115124  0.45100755964237127  0.40453431432922327  1.0000
  H   H14       1.0  0.9560762320784906  0.34827880612356554  0.4026643584086713  1.0000
  H   H15       1.0  0.08078426189545378  0.3551112752628174  0.4403763251003738  1.0000
  H   H16       1.0  0.07774421658549444  0.4580127648288943  0.44468077030253045  1.0000
  C   C25       1.0  0.502644190872683  0.14202335377537412  0.5234371570782952  1.0000
  C   C26       1.0  0.5281692261057722  0.6727696696505143  0.5431892084247703  1.0000
  C   C27       1.0  0.4895752274950413  0.6502906421275726  0.5427078294926903  1.0000
  C   C28       1.0  0.4172110291682055  0.6579124960407657  0.9912371402395265  1.0000
  C   C29       1.0  0.38414016515688365  0.22707039610049995  0.07507066657659878  1.0000
  C   C30       1.0  0.4014629769190005  0.2776529083286192  0.059271007671918056  1.0000
  H   H17       1.0  0.5375181590089697  0.7004488532500899  0.511326585484986  1.0000
  H   H18       1.0  0.4698716295935758  0.6590618174579873  0.5095503812418495  1.0000
  H   H19       1.0  0.3525919226559869  0.21991417292773116  0.06896816118463867  1.0000
  H   H20       1.0  0.3832364354309309  0.30954942718484446  0.04111167185373965  1.0000
  C   C31       1.0  0.5271720003899828  0.3448784799745971  0.2442537724810427  1.0000
  C   C32       1.0  0.5361151363567241  0.38489413422328916  0.283050678139251  1.0000
  C   C33       1.0  0.5260741356721799  0.44058523028069546  0.27447020597858474  1.0000
  C   C34       1.0  0.5069556015787544  0.45614195291644544  0.22710793660822776  1.0000
  C   C35       1.0  0.4984935174743509  0.4163979635145775  0.18787624785876478  1.0000
  C   C36       1.0  0.5087286658012352  0.3606855561198302  0.19647052708524793  1.0000
  H   H21       1.0  0.5512344068993926  0.3732585513036208  0.31928168578176097  1.0000
  H   H22       1.0  0.5325499850432839  0.4714905330914732  0.3047782903268152  1.0000
  H   H23       1.0  0.48446517956487917  0.4284944289054155  0.15065031337104445  1.0000
  H   H24       1.0  0.5022701219654421  0.32988262016527214  0.1660908680382919  1.0000
  C   C37       1.0  0.7005140239587602  0.40354884315379647  0.43027634020775624  1.0000
  C   C38       1.0  0.7186338976427542  0.45608409858941323  0.43380649383708053  1.0000
  C   C39       1.0  0.7597751774741681  0.4621899273749485  0.4243668317782607  1.0000
  C   C40       1.0  0.7829526104555184  0.41571091944123306  0.4117653240774433  1.0000
  C   C41       1.0  0.7647871883820422  0.36326624800015034  0.4081053665624359  1.0000
  C   C42       1.0  0.7235794686040726  0.35713468883491045  0.41701014242291184  1.0000
  H   H25       1.0  0.7008281336313594  0.49222420498887726  0.44349662885060837  1.0000
  H   H26       1.0  0.7733224882128431  0.5029388782940949  0.42625684967209254  1.0000
  H   H27       1.0  0.7827334801590674  0.3272294255633388  0.3991530522865382  1.0000
  H   H28       1.0  0.7098114245948677  0.31640551332994066  0.41438752530511525  1.0000
  C   C43       1.0  0.720798344305603  0.1364228987456717  0.37398747132904986  1.0000
  C   C44       1.0  0.7329868072390078  0.19041087251390357  0.3606311987778381  1.0000
  C   C45       1.0  0.7735796761867084  0.2044250625576356  0.3610068672892932  1.0000
  C   C46       1.0  0.8076846870604135  0.6827560985156397  0.3596512360322968  1.0000
  C   C47       1.0  0.7983838170753028  0.626758633669222  0.3503871923789747  1.0000
  C   C48       1.0  0.7588046055689944  0.6104851792302027  0.3419752504429743  1.0000
  H   H29       1.0  0.7112857687382146  0.22127584325625543  0.349391618211653  1.0000
  H   H30       1.0  0.7828595075185489  0.2460516915479797  0.35032597110565317  1.0000
  H   H31       1.0  0.8215967898541121  0.5956677127591786  0.3504935110853607  1.0000
  H   H32       1.0  0.7515418183256264  0.5669207405215522  0.33661617859470905  1.0000
  Fe  Fe17      1.0  0.6070393047501645  0.2856512057422166  0.02664432381527737  1.0000
  S   S33       1.0  0.5776249050403389  0.3363085170676188  0.09156271657678161  1.0000
  S   S34       1.0  0.6343273519182431  0.20345273264498082  0.048563489683794536  1.0000
  Fe  Fe18      1.0  0.5858358967972098  0.36635352874485266  0.9383058412128943  1.0000
  S   S35       1.0  0.5543734214774773  0.42359145453466907  0.9949710235852625  1.0000
  S   S36       1.0  0.5872291119579983  0.38491044790237633  0.8498457491926343  1.0000
  Fe  Fe19      1.0  0.6060027414637216  0.40867753897855597  0.04904626240840404  1.0000
  S   S37       1.0  0.6344334432076663  0.4820373800256278  0.08874719752282378  1.0000
  Fe  Fe20      1.0  0.5285518666888799  0.34661943770637377  0.0316478371364346  1.0000
  S   S38       1.0  0.46278666399512586  0.35100186930563826  0.04765806254364535  1.0000
  S   S39       1.0  0.6401779201089893  0.35754694471975  0.9894428215736103  1.0000
  S   S40       1.0  0.5552683000701985  0.2897181299356704  0.9701067313666903  1.0000
  Fe  Fe21      1.0  0.8570008302561818  0.6012137005686199  0.044244822647448334  1.0000
  S   S41       1.0  0.865919343125869  0.5681394543016035  0.1278689284265102  1.0000
  S   S42       1.0  0.8311050603162307  0.6868967870809307  0.03293818318008279  1.0000
  Fe  Fe22      1.0  0.9001848065087864  0.503836820749402  0.9917645108604368  1.0000
  S   S43       1.0  0.9130498036493789  0.4629918782703381  0.07060317880710354  1.0000
  S   S44       1.0  0.9189370436407175  0.469771140792561  0.9113573401460129  1.0000
  Fe  Fe23      1.0  0.8504806886662043  0.48563314924610873  0.0917030460835957  1.0000
  S   S45       1.0  0.8134087663898112  0.41965619621663447  0.13131076366419725  1.0000
  Fe  Fe24      1.0  0.9277195733857982  0.5486802108878042  0.09877337216238868  1.0000
  S   S46       1.0  0.9840024052481947  0.5631437072867738  0.14395623400269253  1.0000
  S   S47       1.0  0.8356493740533574  0.5199817625040942  0.010289523614534168  1.0000
  S   S48       1.0  0.9204853192819047  0.5883016786573414  0.018127370000057708  1.0000
  Fe  Fe25      1.0  0.07139495339049352  0.26247920270523156  0.8522982375692562  1.0000
  S   S49       1.0  0.07494749358213719  0.3394545539413428  0.8021654439483433  1.0000
  S   S50       1.0  0.01931663524621707  0.24835797159781528  0.9072536455956886  1.0000
  Fe  Fe26      1.0  0.15023589372034452  0.2189134668391985  0.8129440440460645  1.0000
  S   S51       1.0  0.16143508300077572  0.2920028761423947  0.7584487370752341  1.0000
  S   S52       1.0  0.19264907953741484  0.1476422026798081  0.8235401200430894  1.0000
  Fe  Fe27      1.0  0.13881176844620308  0.3432686122504998  0.827315053427057  1.0000
  S   S53       1.0  0.16332944380449763  0.4284466334006033  0.8455631225392664  1.0000
  Fe  Fe28      1.0  0.09693005933542058  0.28281658283988126  0.73776513946021  1.0000
  S   S54       1.0  0.0764709437219116  0.2971121711211015  0.6536845653570413  1.0000
  S   S55       1.0  0.13346180825241757  0.27124726028575913  0.8842666212063812  1.0000
  S   S56       1.0  0.08746841615137672  0.20441159998699523  0.7853556004576364  1.0000
  Fe  Fe29      1.0  0.36058164166358175  0.6426981572787042  0.7554803588664816  1.0000
  S   S57       1.0  0.34467392715302647  0.5731251759735744  0.699691295635048  1.0000
  S   S58       1.0  0.3212258137077837  0.7169378273715598  0.7631613879548308  1.0000
  Fe  Fe30      1.0  0.441982356454057  0.5955343770059509  0.7818394497786565  1.0000
  S   S59       1.0  0.4328611172008225  0.5217037866313867  0.7284638276186898  1.0000
  S   S60       1.0  0.49847925448220964  0.6119602869971594  0.8276401176016249  1.0000
  Fe  Fe31      1.0  0.4077300862912743  0.582956168017224  0.6703022246950942  1.0000
  S   S61       1.0  0.42804769295548106  0.5892958843666106  0.5846681563383337  1.0000
  Fe  Fe32      1.0  0.3712040704597805  0.5193644388627372  0.7640135999175159  1.0000
  S   S62       1.0  0.34735115114509546  0.4364178545030289  0.7911840567197566  1.0000
  S   S63       1.0  0.42150268635183025  0.6572111765206908  0.7208985323539945  1.0000
  S   S64       1.0  0.3821823778238039  0.5885084089027216  0.822619823103566  1.0000
  C   C49       1.0  0.21412121308969695  0.43136951803702545  0.8285929182302152  1.0000
  C   C50       1.0  0.23352026716781293  0.48285928678521023  0.8227541328527468  1.0000
  C   C51       1.0  0.27440800124889436  0.4849163077534289  0.8099636374117148  1.0000
  C   C52       1.0  0.2959211999863701  0.43546301156177886  0.8040416884730903  1.0000
  C   C53       1.0  0.27650972408031493  0.3841739628087469  0.8103008695254542  1.0000
  C   C54       1.0  0.23562645526698472  0.38210644760115464  0.8221782662638001  1.0000
  H   H33       1.0  0.21701369394462294  0.5211373848255415  0.8279657763737661  1.0000
  H   H34       1.0  0.2893515309923841  0.5246708232096442  0.8052266317121669  1.0000
  H   H35       1.0  0.29313319937896193  0.3458770351531686  0.8060103036870263  1.0000
  H   H36       1.0  0.2211136139588279  0.3422446837925667  0.8279222781804217  1.0000
  C   C55       1.0  0.2189763991428892  0.1321196394341062  0.7644987209687287  1.0000
  C   C56       1.0  0.20512431303811504  0.14995196529069713  0.7144369464804724  1.0000
  C   C57       1.0  0.22571184498004634  0.13488884735231688  0.6673994841750026  1.0000
  C   C58       1.0  0.2758946381128366  0.7042081122944285  0.7962548795462225  1.0000
  C   C59       1.0  0.27105194611135475  0.6582923470417689  0.8304690640628642  1.0000
  C   C60       1.0  0.23518533385703833  0.6511002253985212  0.8592094981808334  1.0000
  H   H37       1.0  0.17838764784019975  0.1748580420880878  0.7119626035248496  1.0000
  H   H38       1.0  0.215039957032296  0.14859332744813503  0.6286787801465402  1.0000
  H   H39       1.0  0.29503547771861793  0.6287705304494118  0.8351834200382464  1.0000
  H   H40       1.0  0.2312015710936262  0.6155654620092553  0.8854253336200733  1.0000
  C   C61       1.0  0.988175095684203  0.6337936648008597  0.1595704758403087  1.0000
  C   C62       1.0  0.933841189315626  0.6214588838209377  0.6840429021443439  1.0000
  C   C63       1.0  0.9732656062981768  0.6212229110890133  0.7027087832171327  1.0000
  C   C64       1.0  0.029594072932479287  0.2657343399374385  0.6459195240864646  1.0000
  C   C65       1.0  0.027391528028185563  0.1728107520411794  0.1261795758065971  1.0000
  C   C66       1.0  0.9857979068294842  0.17143815452383412  0.12012157479970287  1.0000
  H   H41       1.0  0.9127109473208727  0.6512646032718313  0.6998728310206731  1.0000
  H   H42       1.0  0.9823661389155315  0.6507787564148106  0.7330372196123504  1.0000
  H   H43       1.0  0.04640358320468563  0.15377032234264498  0.0961365168697732  1.0000
  H   H44       1.0  0.9729523388865723  0.15163915340363543  0.08526293694072096  1.0000
  C   C67       1.0  0.9454621967287704  0.40692867472096905  0.9106996150972134  1.0000
  C   C68       1.0  0.9560862859610225  0.38037698212015403  0.9584972629077505  1.0000
  C   C69       1.0  0.9776724469129056  0.33061947646760126  0.957264268489629  1.0000
  C   C70       1.0  0.9898170674819223  0.3081619225876084  0.9081344751167334  1.0000
  C   C71       1.0  0.9793101296245511  0.3345546793835862  0.8601300516653705  1.0000
  C   C72       1.0  0.9569164816555145  0.3837341071276719  0.8614359733106512  1.0000
  H   H45       1.0  0.9483270042409412  0.3983019247430572  0.9965306198933247  1.0000
  H   H46       1.0  0.9860978456635443  0.31044456820454575  0.994451234324902  1.0000
  H   H47       1.0  0.9881988309980634  0.31692954353166153  0.8219514116840497  1.0000
  H   H48       1.0  0.9487749917056838  0.40407875254210696  0.824240385136817  1.0000
  C   C73       1.0  0.44229316054794937  0.2868542708649916  0.06662489655447268  1.0000
  C   C74       1.0  0.4641786032414598  0.7330659960826166  0.9751079561237515  1.0000
  C   C75       1.0  0.44800438669014  0.6813533670639265  0.960481819657453  1.0000
  C   C76       1.0  0.47632310303936065  0.6171167457297463  0.5854211053698101  1.0000
  C   C77       1.0  0.47650035213276304  0.06387504530512735  0.5747873450353217  1.0000
  C   C78       1.0  0.4915447292719457  0.11831918183736567  0.5727196504456865  1.0000
  H   H49       1.0  0.4884143382702382  0.7503439932521879  0.9519875531099149  1.0000
  H   H50       1.0  0.46075916503718384  0.6582996112121111  0.9272898608291421  1.0000
  H   H51       1.0  0.4693258417456566  0.04514991529290424  0.6131681555608438  1.0000
  H   H52       1.0  0.4951989854683947  0.14178148355377607  0.6094663584453165  1.0000
  C   C79       1.0  0.5706741138287097  0.4529094354693218  0.8378484445428862  1.0000
  C   C80       1.0  0.5502322694657239  0.4651820828339813  0.7904454586193903  1.0000
  C   C81       1.0  0.530187708676597  0.5160823867566221  0.7852149766360965  1.0000
  C   C82       1.0  0.5304958083682423  0.5543760401269693  0.8274405021123449  1.0000
  C   C83       1.0  0.5545812520981401  0.5445901035803075  0.8720218687354958  1.0000
  C   C84       1.0  0.574531868410168  0.4937557918986124  0.8774273567553971  1.0000
  H   H53       1.0  0.5481690158385452  0.43425974906115583  0.7590220969219175  1.0000
  H   H54       1.0  0.5138415306622987  0.5249795528989796  0.7490932537200874  1.0000
  H   H55       1.0  0.5565100829216965  0.5754193385082611  0.9032221292235273  1.0000
  H   H56       1.0  0.592481301501937  0.48582446186007844  0.9124979677933418  1.0000
  C   C85       1.0  0.6843560185645899  0.4646885272156698  0.09875790046233623  1.0000
  C   C86       1.0  0.6948229159410363  0.4091957340344994  0.10814130216212603  1.0000
  C   C87       1.0  0.7344288651907619  0.3955086438470219  0.11960006045114069  1.0000
  C   C88       1.0  0.7637326016369612  0.43704839430423137  0.11960929422236832  1.0000
  C   C89       1.0  0.7534533276128226  0.49239323672260565  0.10907378558988357  1.0000
  C   C90       1.0  0.713587068962906  0.5063580744367957  0.09937571066980744  1.0000
  H   H57       1.0  0.672228174891608  0.37687289845987676  0.10756193382507684  1.0000
  H   H58       1.0  0.7423954896726056  0.35265727611359066  0.12737431064880766  1.0000
  H   H59       1.0  0.7762140168158473  0.5244125212811753  0.10854134733953025  1.0000
  H   H60       1.0  0.705476381728757  0.5490868308328306  0.09132392671231493  1.0000
  C   C91       1.0  0.6804493940802944  0.19020970065009485  0.01746555394628535  1.0000
  C   C92       1.0  0.693554794889806  0.2211910076158962  0.9730166698447148  1.0000
  C   C93       1.0  0.7302305133882729  0.20870933983168735  0.948265059051347  1.0000
  C   C94       1.0  0.780357559939571  0.6904461428249062  0.01556025851202203  1.0000
  C   C95       1.0  0.7574154915189715  0.6421116125619486  0.009654382764849423  1.0000
  C   C96       1.0  0.7159382047325249  0.6459068200126881  0.0030246755271661208  1.0000
  H   H61       1.0  0.6752773202356099  0.25417932191446935  0.9571327178815889  1.0000
  H   H62       1.0  0.7404174654428523  0.23296962872062227  0.914098443223481  1.0000
  H   H63       1.0  0.7713155724301818  0.601709107961389  0.011743929232321593  1.0000
  H   H64       1.0  0.6982149589023001  0.6083013888700645  0.9995008739045407  1.0000
  Fe  Fe33      1.0  0.6479348219341698  0.6931395824487455  0.3891963997885362  1.0000
  S   S65       1.0  0.6767996005249713  0.7267772018733469  0.4639287029945142  1.0000
  S   S66       1.0  0.6788769839875451  0.6302543248649126  0.3382868310520264  1.0000
  Fe  Fe34      1.0  0.5742834583118211  0.7624423467440351  0.4022305876819865  1.0000
  S   S67       1.0  0.5959775579697977  0.8020666590193114  0.47764817167427326  1.0000
  S   S68       1.0  0.5143681693197001  0.7900000730890365  0.3742195019588958  1.0000
  Fe  Fe35      1.0  0.6545544549240091  0.809195762525496  0.43432230422675755  1.0000
  S   S69       1.0  0.6832821717399609  0.893846892509221  0.43717066426192136  1.0000
  Fe  Fe36      1.0  0.6156217672448658  0.7164569072017144  0.49973386438813533  1.0000
  S   S70       1.0  0.6037490920583879  0.6834702365237384  0.582643569716523  1.0000
  S   S71       1.0  0.6312196742359627  0.7763611958152459  0.3562706503799412  1.0000
  S   S72       1.0  0.5888265784030141  0.6753867229871054  0.4274204556338655  1.0000
  Fe  Fe37      1.0  0.8847694628925017  0.12201499373140612  0.4296010493415176  1.0000
  S   S73       1.0  0.8575131594881911  0.08845526682968297  0.5057706404420124  1.0000
  S   S74       1.0  0.8524187828304913  0.18335497348119167  0.37806506858484773  1.0000
  Fe  Fe38      1.0  0.9645281963334419  0.0679504163107778  0.4505391824251943  1.0000
  S   S75       1.0  0.9441099088981032  0.03134936160569857  0.5289208973956946  1.0000
  S   S76       1.0  0.026761585670987964  0.05571403356643967  0.41983908504469364  1.0000
  Fe  Fe39      1.0  0.8888167283569305  0.008892249459033774  0.48304318523762524  1.0000
  S   S77       1.0  0.8677441679852488  0.9192573290507947  0.481574144033309  1.0000
  Fe  Fe40      1.0  0.9157204213091531  0.1140837320720578  0.5429410402282504  1.0000
  S   S78       1.0  0.9197107902034761  0.15537750200301503  0.624240502550076  1.0000
  S   S79       1.0  0.9112656946882909  0.04088759221124372  0.4035510721273005  1.0000
  S   S80       1.0  0.9407415284212125  0.15254082664025015  0.46774413925506897  1.0000
  Fe  Fe41      1.0  0.09441349651745978  0.8050032414047184  0.3626185899880096  1.0000
  S   S81       1.0  0.07736902511368388  0.8764406774970008  0.309851866203329  1.0000
  S   S82       1.0  0.07580812065058065  0.8081861931003541  0.44850195292469797  1.0000
  Fe  Fe42      1.0  0.13313015626237887  0.7432289010034707  0.2722537956903235  1.0000
  S   S83       1.0  0.12097249922650734  0.8095966016010567  0.2106967061768043  1.0000
  S   S84       1.0  0.15907296172068874  0.6599345843199425  0.25381096292513616  1.0000
  Fe  Fe43      1.0  0.13906816751232862  0.8682202188979732  0.2763459899077551  1.0000
  S   S85       1.0  0.17067492609624518  0.9499990108243652  0.2670520227768339  1.0000
  Fe  Fe44      1.0  0.06060612068219762  0.812211812110863  0.2499853411878762  1.0000
  S   S86       1.0  0.0019231660500818037  0.8153095332076923  0.20779469514540264  1.0000
  S   S87       1.0  0.15764109662811668  0.8017333884379612  0.3344481149238947  1.0000
  S   S88       1.0  0.07123554421261662  0.7410729632516522  0.30629823718908694  1.0000
  Fe  Fe45      1.0  0.3941807581879802  0.13903474113877934  0.3196922910840693  1.0000
  S   S89       1.0  0.3545481421903331  0.09365290676300209  0.262666516255173  1.0000
  S   S90       1.0  0.3659230691240622  0.20789805172736253  0.36623605705458484  1.0000
  Fe  Fe46      1.0  0.46516572851941257  0.06961763359305273  0.2904726258825962  1.0000
  S   S91       1.0  0.43206456061843224  0.02007707972296413  0.2286773934107924  1.0000
  S   S92       1.0  0.5275306526261095  0.04329772296839951  0.3093566729604926  1.0000
  Fe  Fe47      1.0  0.40548482208484216  0.10158026980238355  0.20520562221767855  1.0000
  S   S93       1.0  0.38428347204988206  0.12555200642866682  0.12342227933308143  1.0000
  Fe  Fe48      1.0  0.38444511331157455  0.016495889943298536  0.2919816604347633  1.0000
  S   S94       1.0  0.35570356536888526  0.9331387595590235  0.30613270305239904  1.0000
  S   S95       1.0  0.4437794806890282  0.15255734453504988  0.2602603736071605  1.0000
  S   S96       1.0  0.4188439543796117  0.0613616884323005  0.3555253450597579  1.0000
  C   C97       1.0  0.22188455213763766  0.9440390412478198  0.27850009735596565  1.0000
  C   C98       1.0  0.24328627664440824  0.9909406356497228  0.2949613870334205  1.0000
  C   C99       1.0  0.2844422671092741  0.9875930959923405  0.30335973267144095  1.0000
  C   C100      1.0  0.30426285950553594  0.9372107127217101  0.29568080452284085  1.0000
  C   C101      1.0  0.2826792408485221  0.8897065444521478  0.2810048907549406  1.0000
  C   C102      1.0  0.24142143714787198  0.8931429728127791  0.2721204990614119  1.0000
  H   H65       1.0  0.227799880526227  0.02958324033782156  0.30234366957334  1.0000
  H   H66       1.0  0.3006540919726597  0.023540888740874122  0.31731278214661074  1.0000
  H   H67       1.0  0.29797848341130173  0.8505232517153382  0.2759332007133897  1.0000
  H   H68       1.0  0.22490652039515888  0.8566829898320848  0.2596271595393753  1.0000
  C   C103      1.0  0.21017022829152357  0.6677529725955732  0.24140194048293284  1.0000
  C   C104      1.0  0.2272669213236261  0.7209406012683331  0.24026657302166896  1.0000
  C   C105      1.0  0.2683193554261619  0.7273088996449  0.23120932429445298  1.0000
  C   C106      1.0  0.31741904866414916  0.18476785582328015  0.3798010703766048  1.0000
  C   C107      1.0  0.30979245424827184  0.12779446150509588  0.38597155833884705  1.0000
  C   C108      1.0  0.2707837184680176  0.10879441315499427  0.39503884807049017  1.0000
  H   H69       1.0  0.2088044187286795  0.7571897596325703  0.24585969062197383  1.0000
  H   H70       1.0  0.2814452716521248  0.7684051746280853  0.2297056349763453  1.0000
  H   H71       1.0  0.3339453877324807  0.09818837828473681  0.38371029318876115  1.0000
  H   H72       1.0  0.2649889508949068  0.06476523397001821  0.39930842572975295  1.0000
  C   C109      1.0  0.9607156161836296  0.2005920062186881  0.6318956263815942  1.0000
  C   C110      1.0  0.9779963081229701  0.22124831269035328  0.20395446451853355  1.0000
  C   C111      1.0  0.019473137454808054  0.22203383890271722  0.2102825113960636  1.0000
  C   C112      1.0  0.9960888209229302  0.7464043031630417  0.1865522460294591  1.0000
  C   C113      1.0  0.9889858487214007  0.5455522440160265  0.6421238466001231  1.0000
  C   C114      1.0  0.949840206506122  0.5463550623800186  0.6230701492508515  1.0000
  H   H73       1.0  0.9590760309295011  0.23882468683419278  0.2348263967049553  1.0000
  H   H74       1.0  0.032056280805837056  0.2400409552465952  0.24604089062720386  1.0000
  H   H75       1.0  0.010258431716144045  0.5164869947366726  0.6253707423163736  1.0000
  H   H76       1.0  0.9410083597081752  0.5171143301325467  0.5926805794072841  1.0000
  C   C115      1.0  0.0423276392645755  0.9885046607398326  0.43590787028416494  1.0000
  C   C116      1.0  0.015628990572236212  0.9503671015786708  0.45910695225844045  1.0000
  C   C117      1.0  0.027695530438444083  0.8958872119589407  0.47002574467842667  1.0000
  C   C118      1.0  0.06581370710432943  0.8788062892863912  0.45485347326045444  1.0000
  C   C119      1.0  0.0927080779676706  0.9170117897757789  0.4323828060906795  1.0000
  C   C120      1.0  0.08124968647103503  0.9721475741882795  0.42360799053917547  1.0000
  H   H77       1.0  0.9850511730770198  0.961619257236821  0.4660769515294132  1.0000
  H   H78       1.0  0.006564229591797366  0.8661612864890308  0.4863966785998868  1.0000
  H   H79       1.0  0.12140948079383476  0.9029333983183881  0.41837397568321744  1.0000
  H   H80       1.0  0.10185274051918373  0.0011779552611550503  0.4048025169086609  1.0000
  C   C121      1.0  0.5543697221190319  0.6595021702494898  0.5847719209982082  1.0000
  C   C122      1.0  0.4978305714284264  0.11162285718599407  0.47605741857482275  1.0000
  C   C123      1.0  0.4830151764528141  0.05694535459869643  0.4781561458771147  1.0000
  C   C124      1.0  0.40732415866077143  0.1864441050428447  0.10009013244577834  1.0000
  C   C125      1.0  0.3999195054485466  0.6885804882683562  0.03291679792465296  1.0000
  C   C126      1.0  0.4156780176014356  0.7404479757094515  0.04699233610075537  1.0000
  H   H81       1.0  0.5050514848711203  0.1302221996740196  0.4376713315513696  1.0000
  H   H82       1.0  0.47965838337341876  0.03324263501065294  0.44148078704960075  1.0000
  H   H83       1.0  0.37520700833064674  0.6713956674378759  0.05581859941882317  1.0000
  H   H84       1.0  0.40281911399728676  0.7629768869178511  0.08037087539398156  1.0000
  C   C127      1.0  0.5180727621180308  0.8611751574361085  0.3596684667866657  1.0000
  C   C128      1.0  0.48366939030449513  0.8913932997473837  0.34870154492911004  1.0000
  C   C129      1.0  0.4866422879481016  0.9472900268597793  0.33348520834618944  1.0000
  C   C130      1.0  0.5239169862080516  0.9735840233994766  0.3297941449800233  1.0000
  C   C131      1.0  0.558305530575804  0.9437298537730083  0.34204124367344935  1.0000
  C   C132      1.0  0.555340834503111  0.8877459516793709  0.35751735639102766  1.0000
  H   H85       1.0  0.45466757992740203  0.8717686189698999  0.351566686724822  1.0000
  H   H86       1.0  0.45983777356319105  0.9694243483360124  0.32421684512787974  1.0000
  H   H87       1.0  0.5871449170192854  0.9636886539750357  0.3391221816442287  1.0000
  H   H88       1.0  0.5819733760675045  0.8653280079085688  0.3673136522594514  1.0000
  C   C133      1.0  0.7344509301505879  0.8990928829318243  0.450467063097976  1.0000
  C   C134      1.0  0.7504231946198792  0.9512991173678077  0.4630449841650091  1.0000
  C   C135      1.0  0.7913777029176274  0.9576721510557589  0.47187791203411855  1.0000
  C   C136      1.0  0.816581827281791  0.9116894603776012  0.46881197391324864  1.0000
  C   C137      1.0  0.8007238982855343  0.8592503166194887  0.4558843017834793  1.0000
  C   C138      1.0  0.7595864970470846  0.8530103837011739  0.4465550142055559  1.0000
  H   H89       1.0  0.731169414463124  0.9870197152585191  0.46648313957797677  1.0000
  H   H90       1.0  0.8033001662132916  0.9981254819472206  0.4818892455051787  1.0000
  H   H91       1.0  0.8202714585025122  0.8236594675391161  0.4526631382095216  1.0000
  H   H92       1.0  0.7473283890566511  0.8128896464047611  0.43589004201215026  1.0000
  C   C139      1.0  0.7286619504390693  0.6502992543002686  0.34353055859068776  1.0000
  C   C140      1.0  0.738157532755864  0.7065780733037142  0.3509838577694278  1.0000
  C   C141      1.0  0.7778223406828909  0.7229310935352216  0.35842158929141443  1.0000
  C   C142      1.0  0.8019373242699951  0.16485543454046048  0.3758951607532007  1.0000
  C   C143      1.0  0.7897675240276884  0.11086421063596497  0.3895100885746885  1.0000
  C   C144      1.0  0.7491978395651023  0.09660690672603311  0.38825077238437816  1.0000
  H   H93       1.0  0.7148900021418295  0.7375353325287674  0.3516089543384873  1.0000
  H   H94       1.0  0.7851786412443438  0.7661993460983519  0.36527672866829475  1.0000
  H   H95       1.0  0.8116317496645977  0.07999194059289305  0.4006280509677559  1.0000
  H   H96       1.0  0.7399142416647345  0.05493586093614389  0.3987409791806357  1.0000
  Fe  Fe49      1.0  0.6165660606658154  0.7853816999563908  0.9957780904119111  1.0000
  S   S97       1.0  0.5869621274748915  0.8193170270713721  0.06986341246562988  1.0000
  S   S98       1.0  0.6449402115990692  0.7009474311734116  0.9990764378748441  1.0000
  Fe  Fe50      1.0  0.5867013644326968  0.8793871562533098  0.9249283914316117  1.0000
  S   S99       1.0  0.5555384442074552  0.9215094096729697  0.9934411725841796  1.0000
  S   S100      1.0  0.5806892494562695  0.9137735290333885  0.8411699862053476  1.0000
  Fe  Fe51      1.0  0.6103220414252287  0.9013525056710391  0.04010856847637667  1.0000
  S   S101      1.0  0.6351925864565359  0.968108124904443  0.09330817036749939  1.0000
  Fe  Fe52      1.0  0.5350040346948773  0.8357758613519993  0.01577253386657218  1.0000
  S   S102      1.0  0.4715480008451995  0.8228172561511288  0.043318208364267585  1.0000
  S   S103      1.0  0.6440615540018505  0.8664071463505456  0.969494821436733  1.0000
  S   S104      1.0  0.5625493294398746  0.7947800251462261  0.9439415022623145  1.0000
  Fe  Fe53      1.0  0.8412328002841245  0.1073195026239353  0.9969807340262127  1.0000
  S   S105      1.0  0.8282863375428442  0.10286223927736948  0.0852713778889147  1.0000
  S   S106      1.0  0.8013002284176255  0.15339126639139455  0.9399811589249691  1.0000
  Fe  Fe54      1.0  0.9205899230989072  0.047743292462167464  0.008106077809097778  1.0000
  S   S107      1.0  0.9142584470703783  0.03831222248594801  0.09737828661797132  1.0000
  S   S108      1.0  0.9782589675356033  0.02095195674316952  0.9699915969748274  1.0000
  Fe  Fe55      1.0  0.8508997550430203  0.015224327686535588  0.07892368190666121  1.0000
  S   S109      1.0  0.8213275886776618  0.9392616437039295  0.11472774023877941  1.0000
  Fe  Fe56      1.0  0.8924136055925004  0.12630299204145534  0.09457226853619294  1.0000
  S   S110      1.0  0.9091532910820966  0.1928643829882657  0.1528942103448372  1.0000
  S   S111      1.0  0.8587900489536299  0.01773143885568107  0.9892818168521582  1.0000
  S   S112      1.0  0.9040097150170684  0.1379571985458634  0.0068821315474685285  1.0000
  Fe  Fe57      1.0  0.0320929381232548  0.7640407959002381  0.8072432464323096  1.0000
  S   S113      1.0  0.03746243785978645  0.7531913244598243  0.7179195436266221  1.0000
  S   S114      1.0  0.9739918221087032  0.7959647503060406  0.8405187837328405  1.0000
  Fe  Fe58      1.0  0.11306272606028649  0.7131637617655188  0.8279761503982781  1.0000
  S   S115      1.0  0.12581584962296133  0.6997096037554987  0.7406300482850267  1.0000
  S   S116      1.0  0.15799540744364804  0.6785169025873786  0.8847555022785808  1.0000
  Fe  Fe59      1.0  0.09991159655108287  0.7846183970982004  0.729132670599035  1.0000
  S   S117      1.0  0.12379352506805587  0.8531803698051481  0.6761527748086289  1.0000
  Fe  Fe60      1.0  0.0628138664129654  0.6697314806763133  0.7383890888853823  1.0000
  S   S118      1.0  0.05140680299027866  0.589042358152799  0.6969802799519491  1.0000
  S   S119      1.0  0.0931539575403693  0.8014980588812827  0.8174163889242302  1.0000
  S   S120      1.0  0.05155775485699845  0.6771123419614575  0.8263656390340788  1.0000
  Fe  Fe61      1.0  0.3281591948547126  0.013279033556022002  0.6294485840516888  1.0000
  S   S121      1.0  0.3432926881044774  0.9591075585600405  0.5597180968788418  1.0000
  S   S122      1.0  0.2846230451640846  0.08124855612785598  0.6116514710674488  1.0000
  Fe  Fe62      1.0  0.3788539355527282  0.9465054022851213  0.7061039317891487  1.0000
  S   S123      1.0  0.39760369300918513  0.8849557444116752  0.6432822004479821  1.0000
  S   S124      1.0  0.3963395531527802  0.93692827497256  0.7925009252716386  1.0000
  Fe  Fe63      1.0  0.40539992736865815  0.9605723515548662  0.5916244301117526  1.0000
  S   S125      1.0  0.454193794571631  0.964932865942313  0.5301103904991054  1.0000
  Fe  Fe64      1.0  0.3338899526342982  0.888805788390756  0.6169107538907834  1.0000
  S   S126      1.0  0.2986009305672618  0.8157705627271663  0.5881586625963694  1.0000
  S   S127      1.0  0.39159082303826226  0.022784326287528245  0.6563470020528865  1.0000
  S   S128      1.0  0.3138088069031678  0.9425918289287064  0.6851491947755888  1.0000
  C   C145      1.0  0.1712012298217885  0.841032057168683  0.6484273141143401  1.0000
  C   C146      1.0  0.1949382559779228  0.8866990918341386  0.6338245362770074  1.0000
  C   C147      1.0  0.234321657397777  0.878757044641025  0.6167336772145845  1.0000
  C   C148      1.0  0.24945946604239008  0.8249460804329932  0.6109082136078643  1.0000
  C   C149      1.0  0.2251770988399795  0.7790276429968894  0.62310229102629  1.0000
  C   C150      1.0  0.18623645359502136  0.7871037083030875  0.6427976253605896  1.0000
  H   H97       1.0  0.18324029623655655  0.9284032182313692  0.636865859815881  1.0000
  H   H98       1.0  0.252849086091582  0.914454184878917  0.6077120228354704  1.0000
  H   H99       1.0  0.23690988335995086  0.7373331473467108  0.618964124338962  1.0000
  H   H100      1.0  0.16794253816153018  0.7516117197091541  0.6532695020199023  1.0000
  C   C151      1.0  0.2040162881311799  0.6890900607334876  0.8526266258058396  1.0000
  C   C152      1.0  0.20890038916451542  0.7346786373654871  0.8181302913199233  1.0000
  C   C153      1.0  0.24492750046450767  0.742499805765417  0.7903707049360998  1.0000
  C   C154      1.0  0.25988044963186036  0.10169352047681346  0.6704898502285328  1.0000
  C   C155      1.0  0.2738814497354907  0.08436081971494191  0.7205633503609569  1.0000
  C   C156      1.0  0.2535237761090523  0.09978955614771357  0.7675114446058285  1.0000
  H   H101      1.0  0.18479193289982015  0.7638641636209617  0.8127128032237816  1.0000
  H   H102      1.0  0.24859224843542227  0.7776107439674276  0.7634197852537016  1.0000
  H   H103      1.0  0.3007591994293171  0.05979117971137349  0.7232584762664078  1.0000
  H   H104      1.0  0.2648498459518318  0.08726729357990726  0.80628753380366  1.0000
  C   C157      1.0  0.9611185570362607  0.19574949814305942  0.1590215983461838  1.0000
  C   C158      1.0  0.9726465905027588  0.21617879251929017  0.6835027408771921  1.0000
  C   C159      1.0  0.007633566960850934  0.24754663436523017  0.6906881151166404  1.0000
  C   C160      1.0  0.0009101113618963375  0.5838489668796524  0.6809734703647388  1.0000
  C   C161      1.0  0.9581646895751338  0.7238337864062844  0.17758379323781082  1.0000
  C   C162      1.0  0.9542541266966553  0.6675405665579377  0.16343933837743774  1.0000
  H   H105      1.0  0.9552840820899194  0.20291814886505954  0.717862943165934  1.0000
  H   H106      1.0  0.01759677775953028  0.2575378486222448  0.7307601467699453  1.0000
  H   H107      1.0  0.9319037562822299  0.7493098179163297  0.18256070957936954  1.0000
  H   H108      1.0  0.9250098690782665  0.6499904825812591  0.1568969766478332  1.0000
  C   C163      1.0  0.9768503800713261  0.960386309093277  0.9310796505935077  1.0000
  C   C164      1.0  0.9406344840651428  0.9381449943465624  0.913454879849484  1.0000
  C   C165      1.0  0.940230933145624  0.8888222473141807  0.8835235081149388  1.0000
  C   C166      1.0  0.975922925169174  0.8610724137574283  0.8720012472998064  1.0000
  C   C167      1.0  0.012178791048196969  0.8839082802530198  0.888803828648252  1.0000
  C   C168      1.0  0.01265816793375496  0.9337693619363965  0.917942459853616  1.0000
  H   H109      1.0  0.9129496389904211  0.9588380519869913  0.9226701043693903  1.0000
  H   H110      1.0  0.9121439915761417  0.8715638554914832  0.8700113788794396  1.0000
  H   H111      1.0  0.03972309100776849  0.8623939185167099  0.8809285390882172  1.0000
  H   H112      1.0  0.04073804353509974  0.9508807086001158  0.9316313961571979  1.0000
  C   C169      1.0  0.449116499661748  0.761526322845415  0.019839860297646172  1.0000
  C   C170      1.0  0.4657752575067766  0.24584969297588022  0.09077473161411276  1.0000
  C   C171      1.0  0.4480616328246434  0.1959312387125578  0.10845228774374016  1.0000
  C   C172      1.0  0.47236831931736784  0.0331101610232194  0.5275167551405289  1.0000
  C   C173      1.0  0.5019837277002411  0.6055470268167955  0.6281505398847973  1.0000
  C   C174      1.0  0.5412748648833454  0.6257836415165089  0.6272553926727172  1.0000
  H   H113      1.0  0.4973242499016033  0.2530959283170371  0.09683688805263158  1.0000
  H   H114      1.0  0.4658732440312581  0.1644585989672298  0.12788615427795746  1.0000
  H   H115      1.0  0.4920010362036501  0.5795099532081126  0.6610618733724244  1.0000
  H   H116      1.0  0.5616582736985223  0.6144381564761228  0.6589333374095141  1.0000
  C   C175      1.0  0.5296670045886713  0.9200711380612939  0.8261304079938702  1.0000
  C   C176      1.0  0.5171621592815298  0.9367091111072141  0.7748573869125872  1.0000
  C   C177      1.0  0.4761571999228693  0.9414188631251724  0.7635660961254971  1.0000
  C   C178      1.0  0.447834297927864  0.9309918508042286  0.8040702368204912  1.0000
  C   C179      1.0  0.460583201947111  0.9147857970123756  0.8551162785498572  1.0000
  C   C180      1.0  0.5011716346531829  0.9080722181021341  0.8656875390627781  1.0000
  H   H117      1.0  0.5390678457253949  0.945990107586667  0.7439559474663385  1.0000
  H   H118      1.0  0.46649272063250324  0.9541111522933642  0.7240006928792331  1.0000
  H   H119      1.0  0.43909118130876923  0.9072606933363763  0.8868062542711278  1.0000
  H   H120      1.0  0.5101531169222762  0.8939279520341707  0.9048289771003181  1.0000
  C   C181      1.0  0.6867354415628307  0.959222295451003  0.0995067057490242  1.0000
  C   C182      1.0  0.7103197376290057  0.003991068213368809  0.1161026433112824  1.0000
  C   C183      1.0  0.7517177902158666  0.9979236750192371  0.12024342030613155  1.0000
  C   C184      1.0  0.769520530889751  0.9466050353266423  0.10938781146480059  1.0000
  C   C185      1.0  0.7457509633817624  0.9011114434924581  0.09467690089357395  1.0000
  C   C186      1.0  0.7043545445958296  0.9075769160332922  0.08912908513205564  1.0000
  H   H121      1.0  0.6966486411906585  0.043514333723655874  0.1252725415963205  1.0000
  H   H122      1.0  0.7697699319196826  0.03275829267281649  0.13288731218102545  1.0000
  H   H123      1.0  0.759467294157961  0.8614253171312711  0.08602840299556758  1.0000
  H   H124      1.0  0.686120080306999  0.8725721798291591  0.07706635624805025  1.0000
  C   C187      1.0  0.6972575527208852  0.6979793196966316  0.0022395784288831155  1.0000
  C   C188      1.0  0.7203434897736696  0.7463943444617995  0.006421350605907206  1.0000
  C   C189      1.0  0.7618810204700329  0.7426039052986848  0.012639574851952329  1.0000
  C   C190      1.0  0.7540034101789562  0.16564426194695847  0.9682721179930127  1.0000
  C   C191      1.0  0.7402407128493227  0.13369686674011416  0.011646252710605376  1.0000
  C   C192      1.0  0.703660574031378  0.14616883557625204  0.03630311761896632  1.0000
  H   H125      1.0  0.7062067591694933  0.7867118410861986  0.005752835906654985  1.0000
  H   H126      1.0  0.7795153295855984  0.7801737912450458  0.016898968081983545  1.0000
  H   H127      1.0  0.7574696278807747  0.0988339865555159  0.02583769950728554  1.0000
  H   H128      1.0  0.6933292377518359  0.12168629970182288  0.07008489479248925  1.0000
  N   N1        1.0  0.3921936558013771  0.317381407063267  0.23846235897447832  1.0000
  C   C193      1.0  0.3754713587796951  0.2640065808237777  0.21943627314361414  1.0000
  C   C194      1.0  0.4046199138119145  0.3514215830066405  0.19170628798889044  1.0000
  C   C195      1.0  0.42724388454780093  0.3066234667924994  0.2726451444522966  1.0000
  C   C196      1.0  0.3615320816444333  0.3473588136729193  0.2698780605565292  1.0000
  H   H129      1.0  0.34966445806905333  0.2707396215539697  0.19227726234688047  1.0000
  H   H130      1.0  0.3651414611060177  0.237535606042377  0.2535470145014038  1.0000
  H   H131      1.0  0.3981716269304024  0.2399587328715278  0.196644934474423  1.0000
  H   H132      1.0  0.3797092274717969  0.3576298647279439  0.1631558091940113  1.0000
  H   H133      1.0  0.41550401069756776  0.39320956015371045  0.2041826574692649  1.0000
  H   H134      1.0  0.42901868824500905  0.33107740397842167  0.16868744492826915  1.0000
  H   H135      1.0  0.4504608662202211  0.2827084630023191  0.2504706216520769  1.0000
  H   H136      1.0  0.41905270432207015  0.28189628649182996  0.3089317823402107  1.0000
  H   H137      1.0  0.4413679166552975  0.3460941795342021  0.286327588717151  1.0000
  H   H138      1.0  0.351828470843856  0.3228396661664139  0.3057614016244139  1.0000
  H   H139      1.0  0.334563079225973  0.35548943682202183  0.24532697730472952  1.0000
  H   H140      1.0  0.3728583022670217  0.3883226125682291  0.284148663222926  1.0000
  N   N2        1.0  0.23792575406754082  0.12649483133633277  0.18993876570289814  1.0000
  C   C197      1.0  0.2741616444629756  0.14248923199053243  0.15922552659370637  1.0000
  C   C198      1.0  0.22888470638282976  0.06701734015112648  0.18053688289036884  1.0000
  C   C199      1.0  0.20386234118768254  0.1606218118856455  0.17206196781021532  1.0000
  C   C200      1.0  0.24466745752267893  0.13577229065791774  0.24792904253007242  1.0000
  H   H141      1.0  0.3003066535698843  0.11680434607130774  0.17093262829829192  1.0000
  H   H142      1.0  0.2823464811745934  0.18685430970502503  0.16597677355261564  1.0000
  H   H143      1.0  0.27001619593260373  0.1366530448590879  0.11524481536185083  1.0000
  H   H144      1.0  0.20218149363405324  0.05311284329696675  0.20403269339885433  1.0000
  H   H145      1.0  0.22275432536102438  0.05867255865564869  0.13740622102149636  1.0000
  H   H146      1.0  0.25427501521541945  0.04000856452830592  0.192526038022917  1.0000
  H   H147      1.0  0.17601311809406175  0.14929898547583798  0.1942888664237732  1.0000
  H   H148      1.0  0.19767431597409352  0.15480706643047681  0.1285354956371898  1.0000
  H   H149      1.0  0.2093632252235523  0.20579840429843244  0.17879123966102517  1.0000
  H   H150      1.0  0.2526674215308731  0.17986757082858063  0.2565419635625097  1.0000
  H   H151      1.0  0.26923805745494706  0.10941827481558009  0.26332972853864534  1.0000
  H   H152      1.0  0.21756545902542196  0.1254242984007432  0.2722228190532543  1.0000
  N   N3        1.0  0.19082869730146265  0.9491251485770398  0.7946274347319121  1.0000
  C   C201      1.0  0.206901405475423  0.8941398498929649  0.7791761864956717  1.0000
  C   C202      1.0  0.15280901854660423  0.9414360053203886  0.8242945543857056  1.0000
  C   C203      1.0  0.1835722890922754  0.982814572825192  0.7459057848451804  1.0000
  C   C204      1.0  0.21992557813585895  0.978251242888573  0.8291083545002897  1.0000
  H   H153      1.0  0.18488447328966137  0.8698818985887166  0.7554497054470686  1.0000
  H   H154      1.0  0.21429757390481113  0.8685174844921278  0.8150175991987881  1.0000
  H   H155      1.0  0.2344277610633472  0.8981988701039036  0.7540709893088059  1.0000
  H   H156      1.0  0.14014971548474453  0.9821120248422845  0.8372167136191802  1.0000
  H   H157      1.0  0.13002051630889772  0.9203919537733979  0.7988227156054742  1.0000
  H   H158      1.0  0.15684258385844135  0.9153200806836054  0.8608481355142549  1.0000
  H   H159      1.0  0.1606012814466815  0.9629686564921744  0.7199972927893376  1.0000
  H   H160      1.0  0.21132119725507886  0.9881472836011442  0.7214641116152237  1.0000
  H   H161      1.0  0.17272487999784922  0.025258531239602533  0.7563485059211275  1.0000
  H   H162      1.0  0.20902709588271426  0.02041278273240721  0.8407045210920915  1.0000
  H   H163      1.0  0.24907265174143117  0.9839555509329269  0.8079469303332619  1.0000
  H   H164      1.0  0.22557484479942325  0.9547104805500977  0.866807871041865  1.0000
  N   N4        1.0  0.2727918522315723  0.46645468109989074  0.9921660927279693  1.0000
  C   C205      1.0  0.24967232160179556  0.48014108420767315  0.041166744978638814  1.0000
  C   C206      1.0  0.28275866820547696  0.5181074240479948  0.9624031124235316  1.0000
  C   C207      1.0  0.24872224812851113  0.4294604616108016  0.9577095194571729  1.0000
  C   C208      1.0  0.31002489807967964  0.437741614639183  0.007166096720605308  1.0000
  H   H165      1.0  0.22126835408575218  0.5015861979141365  0.031269372116032645  1.0000
  H   H166      1.0  0.26681299259408636  0.5078694510567817  0.06833554042428713  1.0000
  H   H167      1.0  0.24217102631086795  0.442041255732781  0.0648476030507843  1.0000
  H   H168      1.0  0.2998221426208008  0.5090593709932205  0.9248444908866236  1.0000
  H   H169      1.0  0.25536784326527967  0.5410526932331813  0.9505961349480105  1.0000
  H   H170      1.0  0.3014318359243878  0.5467488307123025  0.9869992156772748  1.0000
  H   H171      1.0  0.23993770958945176  0.3905352135190518  0.9791431305325748  1.0000
  H   H172      1.0  0.26572606468580484  0.41711183633033744  0.9211695767462349  1.0000
  H   H173      1.0  0.22081778258026621  0.4501535960494997  0.9441980266325184  1.0000
  H   H174      1.0  0.3279567671633102  0.4266581043675101  0.9711095330843146  1.0000
  H   H175      1.0  0.3036774908861216  0.39853430489174585  0.029659950887275466  1.0000
  H   H176      1.0  0.3290042876554936  0.4642836726508855  0.03336225979489593  1.0000
  N   N5        1.0  0.046304511238446616  0.6747241393384343  0.5419459336578248  1.0000
  C   C209      1.0  0.011135782596455977  0.6802187155064587  0.5776463813984275  1.0000
  C   C210      1.0  0.07647160034790035  0.7170361854719696  0.5568386048135414  1.0000
  C   C211      1.0  0.03405865855777509  0.6830526515946477  0.48557105962993646  1.0000
  C   C212      1.0  0.06346579222410785  0.6184878366487815  0.5477883788288782  1.0000
  H   H177      1.0  0.9883756278237309  0.6474665360431187  0.5694722127569851  1.0000
  H   H178      1.0  0.9965939992584791  0.721461400493934  0.5728908430361846  1.0000
  H   H179      1.0  0.019749462319767153  0.6764501538836125  0.6205371195382468  1.0000
  H   H180      1.0  0.10294884371183444  0.7157317853157067  0.5296116452480645  1.0000
  H   H181      1.0  0.0640961496909228  0.7599285511489449  0.5543962417399837  1.0000
  H   H182      1.0  0.0871178874551595  0.7109850720077764  0.5987577726635299  1.0000
  H   H183      1.0  0.06017986786205815  0.6817725797510101  0.4576879086287764  1.0000
  H   H184      1.0  0.019423070251646687  0.7240530028190336  0.4800099805960624  1.0000
  H   H185      1.0  0.012812165142406682  0.6501418971433123  0.47245315202400723  1.0000
  H   H186      1.0  0.08936052133950763  0.6125562587616263  0.5201994139704569  1.0000
  H   H187      1.0  0.04105509654258901  0.5855393241458737  0.5382893224030465  1.0000
  H   H188      1.0  0.07385437892745012  0.6111074137889122  0.5894920904492176  1.0000
  N   N6        1.0  0.4291619828329442  0.8123120681883443  0.2162541881686295  1.0000
  C   C213      1.0  0.4461884747944561  0.762696973359877  0.18980401288581436  1.0000
  C   C214      1.0  0.39468726251100555  0.8326669822076473  0.18517634645472614  1.0000
  C   C215      1.0  0.4598589402345145  0.8565599209972563  0.21885315892387716  1.0000
  C   C216      1.0  0.41593725199090975  0.7973706470438165  0.271217137841138  1.0000
  H   H189      1.0  0.4714205522805515  0.7452749086497047  0.2132410573869202  1.0000
  H   H190      1.0  0.4576050439449047  0.7727721789415724  0.14884548750304857  1.0000
  H   H191      1.0  0.4233698699376929  0.7291912489355304  0.1856327049736976  1.0000
  H   H192      1.0  0.37096897568036064  0.8002070000829946  0.18212606051210595  1.0000
  H   H193      1.0  0.38092125965846996  0.8697668644178177  0.204570142090763  1.0000
  H   H194      1.0  0.4037262504696202  0.8447113244881471  0.14358897813896504  1.0000
  H   H195      1.0  0.4479320062897999  0.8944652331297838  0.23886768673616332  1.0000
  H   H196      1.0  0.47031392533910993  0.8689648078681639  0.1779193663811748  1.0000
  H   H197      1.0  0.48639544975928045  0.8426843863341404  0.24194604444742432  1.0000
  H   H198      1.0  0.402403231645891  0.8336564577080564  0.29206807512004285  1.0000
  H   H199      1.0  0.4413251971346808  0.7823927784711806  0.2959494714727759  1.0000
  H   H200      1.0  0.3929412633307898  0.7637913301468792  0.2705610629755509  1.0000
  N   N7        1.0  0.35575973416158513  0.8033661883861174  0.894991245514589  1.0000
  C   C217      1.0  0.33916240673466985  0.7502760441262066  0.9155021969288119  1.0000
  C   C218      1.0  0.39067206677226546  0.7915642628737759  0.8602523083625169  1.0000
  C   C219      1.0  0.368154237477211  0.838645970584174  0.9405774301208439  1.0000
  C   C220      1.0  0.32507331915203114  0.8330083428282106  0.8636685583518408  1.0000
  H   H201      1.0  0.33064170593073616  0.7222030286715757  0.8819910000954232  1.0000
  H   H202      1.0  0.3121204782290265  0.7568856163094931  0.9408141933040561  1.0000
  H   H203      1.0  0.3613715508644065  0.7275277166229647  0.940038033680423  1.0000
  H   H204      1.0  0.40315073580532695  0.8302707848842175  0.8424129567191628  1.0000
  H   H205      1.0  0.41483239340467404  0.7705673547460742  0.8829813207243459  1.0000
  H   H206      1.0  0.3825009633112871  0.7640297751539176  0.8261276414880991  1.0000
  H   H207      1.0  0.3788084226865015  0.8801669679266183  0.9265380150047825  1.0000
  H   H208      1.0  0.39294131962418805  0.8193888424435903  0.9633759370404911  1.0000
  H   H209      1.0  0.3430744064322012  0.8456347415303269  0.9692455800335861  1.0000
  H   H210      1.0  0.31599200299766217  0.8088150574255071  0.8278212499240069  1.0000
  H   H211      1.0  0.3364753613154797  0.8737464012821818  0.8485486967645921  1.0000
  H   H212      1.0  0.2978140269751472  0.840798812066389  0.8881400664812402  1.0000
  N   N8        1.0  0.5841750865573253  0.13056204989258502  0.1858409761658437  1.0000
  C   C221      1.0  0.6058825276282765  0.1842704359293413  0.1863466562116285  1.0000
  C   C222      1.0  0.6045034334860725  0.09046260336267586  0.22139200356685343  1.0000
  C   C223      1.0  0.5833683286059581  0.10838625883976973  0.13049538535241095  1.0000
  C   C224      1.0  0.5428669769419106  0.13913239416115153  0.20516115786015862  1.0000
  H   H213      1.0  0.5908768229066897  0.2158044503025169  0.1605932250510506  1.0000
  H   H214      1.0  0.6369385971730093  0.179819751604704  0.170856295811819  1.0000
  H   H215      1.0  0.6072836891661919  0.20187084175919545  0.22764363346891753  1.0000
  H   H216      1.0  0.605287805887119  0.10573119759047023  0.26367989755049054  1.0000
  H   H217      1.0  0.5886582436366505  0.049595977917163754  0.22193379101007157  1.0000
  H   H218      1.0  0.6357226119243206  0.0831307647439401  0.20788492647169177  1.0000
  H   H219      1.0  0.5674577328172994  0.06764333710429882  0.12870918418428878  1.0000
  H   H220      1.0  0.6141111269735088  0.10169237506881168  0.11453917467515155  1.0000
  H   H221      1.0  0.5681599985601972  0.13772109207187966  0.1026907017018086  1.0000
  H   H222      1.0  0.5249351642289127  0.10012269757972649  0.2029495824479961  1.0000
  H   H223      1.0  0.5274002367485386  0.17173642994716654  0.18134586241009845  1.0000
  H   H224      1.0  0.5423123304261656  0.15297934037025462  0.24786308646312552  1.0000
  N   N9        1.0  0.5476278077679961  0.5987517236878783  0.04490866483863809  1.0000
  C   C225      1.0  0.5457323128926806  0.6594117175824639  0.05445983610221816  1.0000
  C   C226      1.0  0.5852863385841887  0.5853171213043038  0.016619395467510678  1.0000
  C   C227      1.0  0.5133229920400894  0.5815019699333551  0.01178630494060151  1.0000
  C   C228      1.0  0.5460786560625611  0.568768796900088  0.09680499548422805  1.0000
  H   H225      1.0  0.5176156761325622  0.6712211493853802  0.07557215175519816  1.0000
  H   H226      1.0  0.5468931907235876  0.6830753063127843  0.01592895555948104  1.0000
  H   H227      1.0  0.5714178120505553  0.6739382360940855  0.07896804934882584  1.0000
  H   H228      1.0  0.5887139745187069  0.6096567878818284  0.9788082321152974  1.0000
  H   H229      1.0  0.6117724597757209  0.5951117196534289  0.04175666406407629  1.0000
  H   H230      1.0  0.58704719655856  0.5404122090173562  0.006288205568429017  1.0000
  H   H231      1.0  0.5139749956758314  0.5361737697154567  0.0031310989024215803  1.0000
  H   H232      1.0  0.5130062592023986  0.6038950586627206  0.9726411395186428  1.0000
  H   H233      1.0  0.4845269577639579  0.5903560789281439  0.032501934921487674  1.0000
  H   H234      1.0  0.5717861125403843  0.5800125774084128  0.12271893620402971  1.0000
  H   H235      1.0  0.5470600006493725  0.5228151932165557  0.09099056118209248  1.0000
  H   H236      1.0  0.5182363948291346  0.5783642053010174  0.11948007425610742  1.0000
  N   N10       1.0  0.6205305469044664  0.06332392574593926  0.9262456308175198  1.0000
  C   C229      1.0  0.6433308353188999  0.012352039754806476  0.9140723935690132  1.0000
  C   C230      1.0  0.5813646947447102  0.060654444790314566  0.8992562545027012  1.0000
  C   C231      1.0  0.6431082370944641  0.11243271885484152  0.9067591759985044  1.0000
  C   C232      1.0  0.6144133928115034  0.06770422851063507  0.9849690707113057  1.0000
  H   H237      1.0  0.6267090372141506  0.9746953282058983  0.9274166343995325  1.0000
  H   H238      1.0  0.6727724040979235  0.012245877257106352  0.9346501354232384  1.0000
  H   H239      1.0  0.6487722537152916  0.007741374093876319  0.8701166550246986  1.0000
  H   H240      1.0  0.5634342443930342  0.09869922808732112  0.907192038508123  1.0000
  H   H241      1.0  0.5848697239438491  0.05627349098848078  0.854925885885059  1.0000
  H   H242      1.0  0.5635435149831383  0.02404320550089789  0.9132145216128912  1.0000
  H   H243      1.0  0.6277377559776937  0.1519660015904789  0.9175135790880896  1.0000
  H   H244      1.0  0.647042892896402  0.111664499692951  0.8623369103476656  1.0000
  H   H245      1.0  0.6734389745421935  0.11411306281654299  0.9247337145460583  1.0000
  H   H246      1.0  0.5979169843184627  0.10625101768103229  0.9957568107019341  1.0000
  H   H247      1.0  0.6433494717682552  0.06869244387981976  0.006683773094086298  1.0000
  H   H248      1.0  0.5971807680978286  0.03166056898460834  0.0011237855900878557  1.0000
  N   N11       1.0  0.6482161951070535  0.47841867789683207  0.2618571907216015  1.0000
  C   C233      1.0  0.6385687159025151  0.42494221910327823  0.23559859390211876  1.0000
  C   C234      1.0  0.6908895206560727  0.4917362845505954  0.2531492020984743  1.0000
  C   C235      1.0  0.6402244204133539  0.47368374696446036  0.3200780372811174  1.0000
  C   C236      1.0  0.623358341968461  0.5231456073386157  0.238887634395644  1.0000
  H   H249      1.0  0.606817473284465  0.41327652009293936  0.24166251246201462  1.0000
  H   H250      1.0  0.6571578233323692  0.39034805930904914  0.2513553631704262  1.0000
  H   H251      1.0  0.6432543711727716  0.4273091448611557  0.19154832649682885  1.0000
  H   H252      1.0  0.6982021605293115  0.49468609559686566  0.20963487481533813  1.0000
  H   H253      1.0  0.6989894137478264  0.5321415304181759  0.2720233521788243  1.0000
  H   H254      1.0  0.7104950204252245  0.45925143191093015  0.2708216363520647  1.0000
  H   H255      1.0  0.647535195571273  0.5130471832215187  0.34154921959755113  1.0000
  H   H256      1.0  0.6586259876589039  0.44026941395486086  0.3381363316015508  1.0000
  H   H257      1.0  0.6084043387340142  0.46338304116283924  0.32848061416065805  1.0000
  H   H258      1.0  0.6291973742413188  0.5637571843045593  0.25891922236256665  1.0000
  H   H259      1.0  0.5909394735617228  0.5137468584767616  0.24347662905914239  1.0000
  H   H260      1.0  0.629374906515763  0.5285964394120493  0.19517148378397542  1.0000
  N   N12       1.0  0.9259909261883035  0.8018470396755801  0.02684350324645246  1.0000
  C   C237      1.0  0.9010240688243022  0.8037018321380556  0.9781244083302945  1.0000
  C   C238      1.0  0.9422703947853125  0.7451600404847442  0.03334379394673981  1.0000
  C   C239      1.0  0.9013946831468148  0.8163852924098781  0.0742696803160745  1.0000
  C   C240      1.0  0.9592984026336505  0.8420739260475565  0.021553613634303304  1.0000
  H   H261      1.0  0.8887217292686245  0.8460646637201544  0.9713101573228801  1.0000
  H   H262      1.0  0.8753208622912386  0.7743440017397386  0.9811905696196316  1.0000
  H   H263      1.0  0.9184134318271462  0.7917380979785745  0.9416463280031103  1.0000
  H   H264      1.0  0.9627863594882625  0.742643706256169  0.06818836409127815  1.0000
  H   H265      1.0  0.9179977670704546  0.7140142356383845  0.03976484300898986  1.0000
  H   H266      1.0  0.9594744163935277  0.732126710560928  0.9970773624640114  1.0000
  H   H267      1.0  0.9195576364342583  0.8168005641771556  0.11153846239707854  1.0000
  H   H268      1.0  0.87645545604411  0.786131366957844  0.08011435465366379  1.0000
  H   H269      1.0  0.887857413444749  0.858465248511975  0.06988521941156889  1.0000
  H   H270      1.0  0.9789028053578228  0.8413297843422735  0.05754138913946205  1.0000
  H   H271      1.0  0.9481753328118893  0.8854120876569731  0.016954487728357392  1.0000
  H   H272      1.0  0.9782840813277655  0.8326018908124284  0.98588468344214  1.0000
  N   N13       1.0  0.6045596830690445  0.019388180621130235  0.4836124180612383  1.0000
  C   C241      1.0  0.5887268314627561  0.05159374253155158  0.43793695184524367  1.0000
  C   C242      1.0  0.6483860209351802  0.026147529955506513  0.4851506673441426  1.0000
  C   C243      1.0  0.5941225808511249  0.9600074622648567  0.4768299767313392  1.0000
  C   C244      1.0  0.5870513828046596  0.04007781555352241  0.5343832243499892  1.0000
  H   H273      1.0  0.6036544545506081  0.04035018378339039  0.3994699917703013  1.0000
  H   H274      1.0  0.5934209614689145  0.09691597305128254  0.44394985582823393  1.0000
  H   H275      1.0  0.5563437699377504  0.044018702446271714  0.4321056066734307  1.0000
  H   H276      1.0  0.6623640760325765  0.012138587061768291  0.4469264808223159  1.0000
  H   H277      1.0  0.6570976709792086  0.07058593789338352  0.49059496464534647  1.0000
  H   H278      1.0  0.661809032072372  0.0012965600621186457  0.5181512879457157  1.0000
  H   H279      1.0  0.6063875432832093  0.9340721442995162  0.5098710240520092  1.0000
  H   H280      1.0  0.6063593899806732  0.9434644079296599  0.4385119993805594  1.0000
  H   H281      1.0  0.5611348727061859  0.953580948326425  0.4759690114395082  1.0000
  H   H282      1.0  0.5996477507046086  0.018177590366673657  0.5698075230634875  1.0000
  H   H283      1.0  0.5542790346608802  0.03340806479745728  0.5354160965195752  1.0000
  H   H284      1.0  0.5924368857318865  0.08555916412020381  0.5395521810677051  1.0000
  N   N14       1.0  0.7089986911513039  0.9639971780743708  0.28185800676020223  1.0000
  C   C245      1.0  0.6931795386294948  0.9297576786898389  0.23749314479813566  1.0000
  C   C246      1.0  0.7394930861663512  0.9321112783857568  0.3114296060233426  1.0000
  C   C247      1.0  0.6760266202430862  0.9787160913057745  0.3188188069997826  1.0000
  C   C248      1.0  0.7273138979854084  0.01533385204812654  0.2597723211657377  1.0000
  H   H285      1.0  0.6793725112833332  0.8905132079781879  0.2527226120198969  1.0000
  H   H286      1.0  0.7171968620976812  0.9183428672464584  0.2084850340196498  1.0000
  H   H287      1.0  0.6698075032923627  0.9524293160158245  0.21460597913057236  1.0000
  H   H288      1.0  0.7523599039429066  0.957131478195577  0.3448163872704603  1.0000
  H   H289      1.0  0.7265485132041458  0.8936252375844014  0.3296432186530183  1.0000
  H   H290      1.0  0.76464073539201  0.9197166999346682  0.28463144511556715  1.0000
  H   H291      1.0  0.6872660787922166  0.0016865067750644336  0.3543940653797406  1.0000
  H   H292      1.0  0.6603239891283393  0.9409265387547356  0.3341780391119725  1.0000
  H   H293      1.0  0.6535762998401166  0.005696868899174534  0.29891463632383797  1.0000
  H   H294      1.0  0.7383570876794393  0.04299595065627426  0.2922591472841827  1.0000
  H   H295      1.0  0.7055788138857595  0.0397357405560117  0.23583009453908307  1.0000
  H   H296      1.0  0.7532469261220908  0.005760274879773819  0.23321510659460504  1.0000
  N   N15       1.0  0.8446807862162209  0.31089524490521214  0.0006826457760205074  1.0000
  C   C249      1.0  0.8396839511725254  0.37014490694809193  0.9862745562814474  1.0000
  C   C250      1.0  0.8059302530940351  0.2878090322674296  0.018974742085348325  1.0000
  C   C251      1.0  0.8740811725359912  0.30575182865269473  0.04445388256574522  1.0000
  C   C252      1.0  0.8589281688641235  0.2799656740946433  0.9530619667776606  1.0000
  H   H297      1.0  0.8684527322069016  0.3894028984043734  0.9734079385893681  1.0000
  H   H298      1.0  0.8280492086365647  0.39453875204665256  0.02082804569406149  1.0000
  H   H299      1.0  0.8182811164704444  0.37541075463649126  0.9526318471261184  1.0000
  H   H300      1.0  0.7946138015259137  0.3099900678029852  0.05523234270563204  1.0000
  H   H301      1.0  0.7828416341914542  0.2916609454792401  0.9872757849823021  1.0000
  H   H302      1.0  0.8083734379285883  0.2428008995526761  0.029271134505733928  1.0000
  H   H303      1.0  0.8646797603029781  0.329890653763676  0.080429218117803  1.0000
  H   H304      1.0  0.9039734074586651  0.32143005495139754  0.03186866198584615  1.0000
  H   H305      1.0  0.8778247492025016  0.2615823939543074  0.05718929648700333  1.0000
  H   H306      1.0  0.8636423571325997  0.23531783446347235  0.9626581772321537  1.0000
  H   H307      1.0  0.8877440156448494  0.2971466024292951  0.9376117616045555  1.0000
  H   H308      1.0  0.8368604024388274  0.2815447458848988  0.9198279996629141  1.0000
  N   N16       1.0  0.8833205247264864  0.31087087614419545  0.5177375641337402  1.0000
  C   C253      1.0  0.8743501218101477  0.2589355567676242  0.5473640672605785  1.0000
  C   C254      1.0  0.924274890847386  0.32986360900256806  0.5302757063553375  1.0000
  C   C255      1.0  0.8542782277284182  0.3541016010722601  0.533511202426674  1.0000
  C   C256      1.0  0.8802918381664654  0.30044341919793943  0.4594669969247804  1.0000
  H   H309      1.0  0.8956768843249386  0.22559262384612852  0.5364070193561661  1.0000
  H   H310      1.0  0.8438760770142584  0.24302384775912791  0.538296505106152  1.0000
  H   H311      1.0  0.8764995345151311  0.2648425077712546  0.5916223774139601  1.0000
  H   H312      1.0  0.9286986651155723  0.3346451983718787  0.5743254598613033  1.0000
  H   H313      1.0  0.9470403080270429  0.2999107629160905  0.5152659982222045  1.0000
  H   H314      1.0  0.931157587297034  0.37060262185330206  0.5109177631306568  1.0000
  H   H315      1.0  0.8230957220998705  0.3408257709360794  0.5247386915659199  1.0000
  H   H316      1.0  0.8595036176004066  0.39346413520930584  0.5109103288577276  1.0000
  H   H317      1.0  0.8561923125586007  0.36378353279056963  0.5771351536583499  1.0000
  H   H318      1.0  0.8876254389389937  0.3385972564041311  0.43607286624079683  1.0000
  H   H319      1.0  0.8496126581618845  0.2870262087917167  0.44814834508656315  1.0000
  H   H320      1.0  0.9012414996767366  0.2672411964765782  0.4461455448830824  1.0000
  N   N17       1.0  0.034133883889208017  0.03721895398708641  0.2461252766289667  1.0000
  C   C257      1.0  0.01511382473696865  0.08849833502554194  0.26636716943283734  1.0000
  C   C258      1.0  0.008273117278167152  0.9889228106314993  0.25881867627402644  1.0000
  C   C259      1.0  0.07333912548537391  0.03015074354304348  0.27214934384495887  1.0000
  C   C260      1.0  0.03987248134756349  0.0414891889087039  0.18729800742367217  1.0000
  H   H321      1.0  0.9863832786742294  0.09709513469681763  0.24573053459368066  1.0000
  H   H322      1.0  0.03482674145911124  0.12511314972413112  0.25989081956518917  1.0000
  H   H323      1.0  0.008945004185969552  0.08604202777096683  0.3103184266388772  1.0000
  H   H324      1.0  0.021265907011172258  0.9495394651543986  0.2430623272142908  1.0000
  H   H325      1.0  0.0042327574639480225  0.9841602090476563  0.3030886140214435  1.0000
  H   H326      1.0  0.9781967295331474  0.9937144641472705  0.2406427646661374  1.0000
  H   H327      1.0  0.08852430604803274  0.9916745044019799  0.2581766565235306  1.0000
  H   H328      1.0  0.07024923562363306  0.027584172649256725  0.3166343147357146  1.0000
  H   H329      1.0  0.09370895984040017  0.06575103860572473  0.2630540962922845  1.0000
  H   H330      1.0  0.05321863121568304  0.0028745411359833994  0.17045741833931713  1.0000
  H   H331      1.0  0.0602753325602432  0.07659040807884843  0.17668419310063044  1.0000
  H   H332      1.0  0.011106799028566039  0.048965023221112736  0.1662992144974931  1.0000
  N   N18       1.0  0.9411520471929887  0.8235705208744941  0.36454890437635756  1.0000
  C   C261      1.0  0.9016880059946348  0.8450171663363394  0.34845482701196717  1.0000
  C   C262      1.0  0.9507258803760562  0.7729642823702508  0.33336529098609596  1.0000
  C   C263      1.0  0.940420204816277  0.8099697177583877  0.4224893431401679  1.0000
  C   C264      1.0  0.9719121724214534  0.8664998187527038  0.35389881527383066  1.0000
  H   H333      1.0  0.9012373101852575  0.8560731455986279  0.3050183181028034  1.0000
  H   H334      1.0  0.8935246210998876  0.8828858754372545  0.3718167648067189  1.0000
  H   H335      1.0  0.8777579395971462  0.8136240973305825  0.355778316641195  1.0000
  H   H336      1.0  0.98146125907155  0.7580099836545747  0.3417379184737485  1.0000
  H   H337      1.0  0.9298291818904585  0.7382685781765126  0.3427900563968419  1.0000
  H   H338      1.0  0.9487563946493744  0.780710394243694  0.28943318852153754  1.0000
  H   H339      1.0  0.9695381162864031  0.7928160716571601  0.43573450241465855  1.0000
  H   H340      1.0  0.9168196151160924  0.7785890803420722  0.4319907621674556  1.0000
  H   H341      1.0  0.9340694320845854  0.8475748615468195  0.44721347752610313  1.0000
  H   H342      1.0  0.9649445870037633  0.906021695778615  0.3752270607402024  1.0000
  H   H343      1.0  0.9744587994696856  0.8757913245869742  0.3101521960761195  1.0000
  H   H344      1.0  0.001774343564201919  0.8525003441458681  0.36768878529959165  1.0000
  N   N19       1.0  0.13648631668406286  0.4663353771045264  0.68264622042622  1.0000
  C   C265      1.0  0.15423974106282134  0.5167461746863351  0.7069804824396455  1.0000
  C   C266      1.0  0.16643015111540183  0.42133291083287555  0.6817224138592536  1.0000
  C   C267      1.0  0.12356827228133715  0.4786822975868712  0.6272283252861898  1.0000
  C   C268      1.0  0.10157174575936967  0.4482556238120916  0.7148465288889261  1.0000
  H   H345      1.0  0.18100681928584117  0.5312687861541309  0.6841515073770579  1.0000
  H   H346      1.0  0.16377242004614367  0.5087746405181967  0.7491035417491553  1.0000
  H   H347      1.0  0.13256195614297095  0.5516925472323495  0.7082528059636142  1.0000
  H   H348      1.0  0.19312784863337384  0.43316776679003555  0.6573700810414347  1.0000
  H   H349      1.0  0.17701111207649411  0.4114937048239443  0.7229880796265777  1.0000
  H   H350      1.0  0.15379627106287663  0.382287341365208  0.6644902667837475  1.0000
  H   H351      1.0  0.11000024331936675  0.44125031247758406  0.6080469107936017  1.0000
  H   H352      1.0  0.14909472533761559  0.49254324104867503  0.6016197114580487  1.0000
  H   H353      1.0  0.10067588159161645  0.5121587689756907  0.6268021888194711  1.0000
  H   H354      1.0  0.11010473797381759  0.439873259891846  0.7570876812930494  1.0000
  H   H355      1.0  0.08791696222915335  0.409637430090727  0.6982699040921014  1.0000
  H   H356      1.0  0.0779247527645992  0.4805144178074336  0.7156739409224477  1.0000
  N   N20       1.0  0.4157836843647757  0.793494859681806  0.48950098501731953  1.0000
  C   C269      1.0  0.41641552792877884  0.7606124461399633  0.43938400446541426  1.0000
  C   C270      1.0  0.45703188067065237  0.8093103052702527  0.5040218627334261  1.0000
  C   C271      1.0  0.39759422963627633  0.7599570405504874  0.5332964725056536  1.0000
  C   C272      1.0  0.39206835147812924  0.8444565838432283  0.4811530582181473  1.0000
  H   H357      1.0  0.3858163816233428  0.7474407752674616  0.42755966473474977  1.0000
  H   H358      1.0  0.43481195235189735  0.7224290966386636  0.44381476584114277  1.0000
  H   H359      1.0  0.4295018420586187  0.7850523133801043  0.4055020179118542  1.0000
  H   H360      1.0  0.4576567278294295  0.8341430662032292  0.5417434623639285  1.0000
  H   H361      1.0  0.47615053539976554  0.7720777923032683  0.5097692063735677  1.0000
  H   H362      1.0  0.4712615839694531  0.8354104252385791  0.47205656728485296  1.0000
  H   H363      1.0  0.396528199164801  0.7834306818976378  0.5717620226871984  1.0000
  H   H364      1.0  0.4144571565866035  0.7208832596523221  0.5407142412074714  1.0000
  H   H365      1.0  0.36623189845330906  0.7479526156725975  0.5239673140120581  1.0000
  H   H366      1.0  0.39190662725658176  0.8705794691123324  0.5178970806865799  1.0000
  H   H367      1.0  0.36048361784288707  0.8344782130886245  0.471310634286622  1.0000
  H   H368      1.0  0.4047084480602735  0.8706547899112459  0.448082707679038  1.0000
  N   N21       1.0  0.44646214260347317  0.4147208906976402  0.8944709067082889  1.0000
  C   C273      1.0  0.46321811673441454  0.45941145974638503  0.9283495428964428  1.0000
  C   C274      1.0  0.4064588643169492  0.3991136731943123  0.9148735274297188  1.0000
  C   C275      1.0  0.47297232949540885  0.36574688983199116  0.8955447936146106  1.0000
  C   C276      1.0  0.44307606099318925  0.4349937608019786  0.8387374589740396  1.0000
  H   H369      1.0  0.4935983283336877  0.47162489195288004  0.9143962419327519  1.0000
  H   H370      1.0  0.4652757903618415  0.4460788087560337  0.9711143143984633  1.0000
  H   H371      1.0  0.44442337493426065  0.49751969582704764  0.9270826535288484  1.0000
  H   H372      1.0  0.3928201544195178  0.3656815389511836  0.8899746222662674  1.0000
  H   H373      1.0  0.4078937122418448  0.38386381940997  0.9571457165600196  1.0000
  H   H374      1.0  0.385950504887156  0.4354143947910897  0.9135843483895156  1.0000
  H   H375      1.0  0.4614072419503736  0.3316328789527069  0.8697404805378914  1.0000
  H   H376      1.0  0.4759386642069624  0.3488534028238166  0.9368714546238995  1.0000
  H   H377      1.0  0.5035246844156166  0.3764762271211276  0.8808885524459994  1.0000
  H   H378      1.0  0.4241026773240654  0.47278998329270033  0.8367376261896966  1.0000
  H   H379      1.0  0.4295417911701489  0.4030378845426109  0.812049674707544  1.0000
  H   H380      1.0  0.4726891672337725  0.445963086172592  0.8216602128683187  1.0000
  N   N22       1.0  0.5455861489646125  0.4761798708964538  0.5112681351747953  1.0000
  C   C277      1.0  0.5447490901661451  0.46807457107127914  0.4523982484917289  1.0000
  C   C278      1.0  0.5050035728280331  0.4896983638856071  0.5308095537243398  1.0000
  C   C279      1.0  0.5731841692744493  0.5223933333020925  0.5242211885671482  1.0000
  C   C280      1.0  0.5594395214022175  0.42455455466364556  0.5375882088509494  1.0000
  H   H381      1.0  0.5345273763479496  0.5063170147554268  0.4312940772507836  1.0000
  H   H382      1.0  0.5242950063847569  0.43343549131224857  0.4411227143540776  1.0000
  H   H383      1.0  0.5749105073944571  0.45766049387489127  0.4364109839644835  1.0000
  H   H384      1.0  0.5045005651950865  0.49684679995299286  0.5750130532000955  1.0000
  H   H385      1.0  0.4933806511360265  0.5281393294269741  0.5114417008571247  1.0000
  H   H386      1.0  0.48343101481217393  0.4555551409877739  0.522250852163686  1.0000
  H   H387      1.0  0.5747598256034678  0.5296017701448876  0.5683469310358801  1.0000
  H   H388      1.0  0.5635193419777824  0.5621904500902773  0.5054179999731768  1.0000
  H   H389      1.0  0.6040732902741992  0.5136039252437511  0.509727774120747  1.0000
  H   H390      1.0  0.5902393686551085  0.4135587397627549  0.5243891007240632  1.0000
  H   H391      1.0  0.5398313434321385  0.3884351283102585  0.5278819200715016  1.0000
  H   H392      1.0  0.5599597275241768  0.4289692680405376  0.582108462529716  1.0000
  N   N23       1.0  0.8636265687898668  0.3193809794585295  0.26182692110875566  1.0000
  C   C281      1.0  0.8271120771577305  0.35346289944959497  0.2661967343668686  1.0000
  C   C282      1.0  0.885326751844795  0.32115502831467463  0.3132768519168314  1.0000
  C   C283      1.0  0.889418213402772  0.34166661617386285  0.2183627097081978  1.0000
  C   C284      1.0  0.8526083842765521  0.2611372057735287  0.24964344102007413  1.0000
  H   H393      1.0  0.8344536768576637  0.3979544386920793  0.27413817243318295  1.0000
  H   H394      1.0  0.807573946846516  0.33893550337473366  0.2997788820925532  1.0000
  H   H395      1.0  0.8093895624523442  0.35181771154780456  0.22856684223738194  1.0000
  H   H396      1.0  0.8935058567453357  0.36457784041935964  0.3244443106367965  1.0000
  H   H397      1.0  0.8666027794632722  0.3036853358091305  0.34634263910020163  1.0000
  H   H398      1.0  0.9132521157667733  0.29619402899719216  0.31147361101834214  1.0000
  H   H399      1.0  0.8989694315827915  0.3852080175052791  0.22677141792836106  1.0000
  H   H400      1.0  0.8734980969953181  0.34199724954180305  0.17929726765970438  1.0000
  H   H401      1.0  0.9166890143190302  0.3159812666219394  0.2128811131907646  1.0000
  H   H402      1.0  0.8308610191465368  0.24423056698182483  0.27934741957885506  1.0000
  H   H403      1.0  0.8790737685463299  0.23332869649408355  0.2510451180539247  1.0000
  H   H404      1.0  0.8392315091701781  0.2571409780129651  0.20901787001546196  1.0000
  N   N24       1.0  0.7585765034990417  0.694956163954764  0.18016737653345016  1.0000
  C   C285      1.0  0.7666803260813503  0.7460471285461722  0.1486861985517549  1.0000
  C   C286      1.0  0.7530162336985657  0.6472468606542658  0.14362288233631415  1.0000
  C   C287      1.0  0.7218063846581145  0.7026018652429914  0.21234677750169406  1.0000
  C   C288      1.0  0.7927037056458446  0.6836818167605191  0.21584429679556938  1.0000
  H   H405      1.0  0.7711562252426425  0.7827975865253598  0.17512711661226588  1.0000
  H   H406      1.0  0.7415740388909416  0.755710379934649  0.12114651637606966  1.0000
  H   H407      1.0  0.794085665730257  0.74169572829943  0.12354741889884902  1.0000
  H   H408      1.0  0.7803714091857942  0.6394710921428725  0.1192237571039072  1.0000
  H   H409      1.0  0.7463244301453891  0.6082360569052497  0.16619241702421172  1.0000
  H   H410      1.0  0.7278955708714201  0.6545345572227871  0.1154531570913142  1.0000
  H   H411      1.0  0.7140352673450521  0.6642088135698804  0.23522417642438098  1.0000
  H   H412      1.0  0.6958123668702229  0.7123428928497795  0.18632511904859084  1.0000
  H   H413      1.0  0.7250923593564385  0.7370999025926042  0.2417204006923015  1.0000
  H   H414      1.0  0.7879458171928485  0.6447898575276213  0.2393645155924229  1.0000
  H   H415      1.0  0.7975523557705966  0.7181824059337051  0.24484261530838825  1.0000
  H   H416      1.0  0.8208977745475948  0.6783695995245097  0.19241317246814904  1.0000
  N   N25       1.0  0.046889267597332425  0.5174443408898778  0.90244402709894  1.0000
  C   C289      1.0  0.01830163153658582  0.536521897526352  0.8613167297838249  1.0000
  C   C290      1.0  0.02714689924409001  0.5173248798259906  0.955781323648432  1.0000
  C   C291      1.0  0.08186807487076009  0.5552422061835767  0.9033613258507066  1.0000
  C   C292      1.0  0.06022398443840456  0.4604885722521201  0.8892941869280242  1.0000
  H   H417      1.0  0.03245151024885295  0.5392753215002374  0.8207490045825329  1.0000
  H   H418      1.0  0.006131129605342788  0.5783210019473971  0.8711875883397623  1.0000
  H   H419      1.0  0.9922950453580381  0.5076864362659904  0.8581923415229028  1.0000
  H   H420      1.0  0.04764150889060222  0.5026960209517143  0.9878162639523622  1.0000
  H   H421      1.0  0.01669954661736761  0.5596777146130963  0.9670899045228285  1.0000
  H   H422      1.0  0.0004823310835342371  0.48952072802132407  0.9563237547448395  1.0000
  H   H423      1.0  0.10453499868408048  0.541213565813214  0.9328874506980527  1.0000
  H   H424      1.0  0.07323949753580897  0.5984002451045987  0.9145631267496525  1.0000
  H   H425      1.0  0.09702878555554834  0.5574351570087187  0.8634195401235472  1.0000
  H   H426      1.0  0.08226329042606749  0.44481512050747646  0.9189506363691032  1.0000
  H   H427      1.0  0.07486700383611022  0.4591017662433566  0.8490944894514978  1.0000
  H   H428      1.0  0.03474172715416829  0.4305912230648173  0.8889394822935205  1.0000
  N   N26       1.0  0.37321309339930026  0.17937304488601002  0.537530679218058  1.0000
  C   C293      1.0  0.40286688109727864  0.21927384772214853  0.5156426322895113  1.0000
  C   C294      1.0  0.3326505719490915  0.20212527726284546  0.5305063249640517  1.0000
  C   C295      1.0  0.3808344260582985  0.17021472811734562  0.5953163510990518  1.0000
  C   C296      1.0  0.37652229436430706  0.12590333909621876  0.5085981028135055  1.0000
  H   H429      1.0  0.4011741197307356  0.2601908784245972  0.5363045139084445  1.0000
  H   H430      1.0  0.3983141616312096  0.22666828841201214  0.471938532538965  1.0000
  H   H431      1.0  0.43377580115010816  0.20356917726868295  0.520362400673166  1.0000
  H   H432      1.0  0.32868662420456585  0.24167097691177308  0.553026318493736  1.0000
  H   H433      1.0  0.32641207396805594  0.21085075648707985  0.487498604972379  1.0000
  H   H434      1.0  0.30937600446399816  0.1723959410313476  0.5450217275653358  1.0000
  H   H435      1.0  0.4110856166446194  0.15261139028228343  0.6019504866593153  1.0000
  H   H436      1.0  0.35881244995864814  0.14057290523646948  0.6131463314832437  1.0000
  H   H437      1.0  0.37877831066977435  0.209690652779434  0.6184326708748875  1.0000
  H   H438      1.0  0.37214405932362304  0.13158578730640302  0.4646791516303194  1.0000
  H   H439      1.0  0.35390608467382734  0.0952006425143046  0.5232306850570183  1.0000
  H   H440      1.0  0.4064843719448327  0.10706318473694187  0.5138822509289673  1.0000
  N   N27       1.0  0.796434995872427  0.7147073718087287  0.5692997431252896  1.0000
  C   C297      1.0  0.7768671078049819  0.6595980385710151  0.565071524006281  1.0000
  C   C298      1.0  0.8107306175540696  0.723089778007147  0.6248082668725481  1.0000
  C   C299      1.0  0.7674591760215822  0.7586404032412728  0.5556736051713936  1.0000
  C   C300      1.0  0.8306440364777811  0.7175443224813969  0.5315333447451054  1.0000
  H   H441      1.0  0.7661425649142839  0.6516113640498893  0.5234933853504974  1.0000
  H   H442      1.0  0.7506832159167696  0.6560979964877266  0.5926650147529793  1.0000
  H   H443      1.0  0.7977812546345164  0.6254237480677248  0.5756816102676936  1.0000
  H   H444      1.0  0.8257842878407636  0.7642014172966445  0.6293754097782631  1.0000
  H   H445      1.0  0.7857378008190166  0.7209960305597616  0.6544358250970662  1.0000
  H   H446      1.0  0.8326715016396914  0.6905635756927847  0.6364396983191287  1.0000
  H   H447      1.0  0.756326658472814  0.7534435344559968  0.5139944920611724  1.0000
  H   H448      1.0  0.7811436717336974  0.8008932915156493  0.5584033470600471  1.0000
  H   H449      1.0  0.7410489230246936  0.7575876268755618  0.5830573730739261  1.0000
  H   H450      1.0  0.8458391191559755  0.7588234794828767  0.5331383821555511  1.0000
  H   H451      1.0  0.8210138132788836  0.7107193235549479  0.4892716611390603  1.0000
  H   H452      1.0  0.8532634368211158  0.6852562033074158  0.5411256760026129  1.0000
  N   N28       1.0  0.22279745486298697  0.918118283216837  0.452863856576426  1.0000
  C   C301      1.0  0.2508685527045724  0.8881731732865495  0.41729220189902905  1.0000
  C   C302      1.0  0.1987557062301728  0.9573274310765787  0.42075304175789907  1.0000
  C   C303      1.0  0.2456988370428952  0.9494637231639328  0.4934046112181103  1.0000
  C   C304      1.0  0.19623372009047269  0.8774025411447525  0.4800746341331148  1.0000
  H   H453      1.0  0.26878277991257793  0.857250760427536  0.44009229720499365  1.0000
  H   H454      1.0  0.2721891316660896  0.9174258686000999  0.39749992065985507  1.0000
  H   H455      1.0  0.23483776462176476  0.8652260835017805  0.38507855032748206  1.0000
  H   H456      1.0  0.1760609271361342  0.9789603572975399  0.44587478564984084  1.0000
  H   H457      1.0  0.21766050790959057  0.9901687102596368  0.4018828139876425  1.0000
  H   H458      1.0  0.18299340391487418  0.9357644751631564  0.3874664997297237  1.0000
  H   H459      1.0  0.22566908438152122  0.9708166794322284  0.5226009630413433  1.0000
  H   H460      1.0  0.2650393534576927  0.9819188987423413  0.47441794128972203  1.0000
  H   H461      1.0  0.2655696320870331  0.921239934088245  0.5163555182611836  1.0000
  H   H462      1.0  0.17897354805641497  0.852350029312229  0.45058842539887745  1.0000
  H   H463      1.0  0.17436734578494262  0.8982623690089327  0.5071603063961057  1.0000
  H   H464      1.0  0.21353418834717663  0.8476153408865245  0.5050791047526901  1.0000
  N   N29       1.0  0.10008503610637567  0.1418004351083313  0.5317212592790135  1.0000
  C   C305      1.0  0.1380722489390668  0.17318877928455212  0.5285808702716649  1.0000
  C   C306      1.0  0.0851722768283058  0.14220562563042338  0.5877394634117759  1.0000
  C   C307      1.0  0.1067297723032806  0.08378207247332448  0.5143700477380699  1.0000
  C   C308      1.0  0.07039990343730142  0.16804807039805802  0.4961156029493581  1.0000
  H   H465      1.0  0.13409644548498592  0.21718004424609472  0.5416101997545862  1.0000
  H   H466      1.0  0.14997217414672365  0.1740985602146108  0.4868165618455589  1.0000
  H   H467      1.0  0.16135138202645363  0.15418676749431204  0.5543913811485108  1.0000
  H   H468      1.0  0.08179051097434568  0.1854708481596372  0.6027451282735449  1.0000
  H   H469      1.0  0.055450349234530225  0.12149346660290239  0.591254339750563  1.0000
  H   H470      1.0  0.10608057208752064  0.12065381757876814  0.6153167999449344  1.0000
  H   H471      1.0  0.12952105806278633  0.06280243461408341  0.5394857065997767  1.0000
  H   H472      1.0  0.11722353044033453  0.08213593719419365  0.4717859995346837  1.0000
  H   H473      1.0  0.07863839602765547  0.05895924153524024  0.5170092409261989  1.0000
  H   H474      1.0  0.04046450090838882  0.14808922560122828  0.5000981422007522  1.0000
  H   H475      1.0  0.07921081905923606  0.16459030227617522  0.45314275405729665  1.0000
  H   H476      1.0  0.06691211471751701  0.2130752936167144  0.5047989545669758  1.0000
  N   N30       1.0  0.9630014610406586  0.11736308654350647  0.8322624370458714  1.0000
  C   C309      1.0  0.9987934536598804  0.11192066896518083  0.8662872724395367  1.0000
  C   C310      1.0  0.9494055045452752  0.17580025508178165  0.8328325871638846  1.0000
  C   C311      1.0  0.9308619565306478  0.08099648186706498  0.8534522335180472  1.0000
  C   C312      1.0  0.9729728038204429  0.10066143920715742  0.7766348532801615  1.0000
  H   H477      1.0  0.009541688380185542  0.06818547814464737  0.8678186652349225  1.0000
  H   H478      1.0  0.9925436368240106  0.12497064882190667  0.9084846418359108  1.0000
  H   H479      1.0  0.023755311366534526  0.13858963305931415  0.8514439209679303  1.0000
  H   H480      1.0  0.9221405112305932  0.18151767167284438  0.8081638403791553  1.0000
  H   H481      1.0  0.94242796641932  0.18979948521364953  0.8745033265914414  1.0000
  H   H482      1.0  0.9729177244959615  0.20437747104208293  0.8168565960156038  1.0000
  H   H483      1.0  0.9029788869888046  0.08513772292184729  0.8297278898617367  1.0000
  H   H484      1.0  0.9236169959962965  0.0911667704001331  0.8960104847622882  1.0000
  H   H485      1.0  0.9398420964499887  0.03651724858874372  0.8524403419518759  1.0000
  H   H486      1.0  0.9467325137549462  0.10463832898374692  0.7495789031349539  1.0000
  H   H487      1.0  0.9830224824021773  0.056583091729656365  0.7749421691840099  1.0000
  H   H488      1.0  0.997444648030397  0.12694259786900552  0.7596138914466551  1.0000
  N   N31       1.0  0.543465231952021  0.7521925387525104  0.7461567920487958  1.0000
  C   C313      1.0  0.5613503066820343  0.696196202887421  0.7496741366103572  1.0000
  C   C314      1.0  0.5258504844429314  0.759853089530086  0.6923222836700816  1.0000
  C   C315      1.0  0.5747739454774249  0.7946788462849875  0.7548246597064744  1.0000
  C   C316      1.0  0.511986147155232  0.7579891598290384  0.7877020750833357  1.0000
  H   H489      1.0  0.5735038890539167  0.6878614455844163  0.7904584324148534  1.0000
  H   H490      1.0  0.5860363028923675  0.6909716574412034  0.7199345029034337  1.0000
  H   H491      1.0  0.5388168383781659  0.6632012333769908  0.7414672535863105  1.0000
  H   H492      1.0  0.511768031846248  0.8015396591745293  0.6883406762811782  1.0000
  H   H493      1.0  0.5488991001841792  0.7559569089109953  0.6600650557808122  1.0000
  H   H494      1.0  0.5024164965813255  0.7279164294174875  0.6842934320563919  1.0000
  H   H495      1.0  0.5626475950684439  0.837472821978124  0.75079564144081  1.0000
  H   H496      1.0  0.5995962705056703  0.7905453518263817  0.7251852916197713  1.0000
  H   H497      1.0  0.5877572767233135  0.7913454174387173  0.7958230424715816  1.0000
  H   H498      1.0  0.49830472571672635  0.8001626394600865  0.7867558944659758  1.0000
  H   H499      1.0  0.5241242035986925  0.7513486758614089  0.8287764080549571  1.0000
  H   H500      1.0  0.48774622882357727  0.7267130579974859  0.7820812163149721  1.0000
  N   N32       1.0  0.09448597471423899  0.5149548537691019  0.28379443422910566  1.0000
  C   C317      1.0  0.12523467051493514  0.5067741702483515  0.2417030667990299  1.0000
  C   C318      1.0  0.06587976802196109  0.5578801517867699  0.2661496777541262  1.0000
  C   C319      1.0  0.11382764263546899  0.5330834798979469  0.334067154555897  1.0000
  C   C320      1.0  0.07305719161933963  0.4619387183181978  0.2933981990963541  1.0000
  H   H501      1.0  0.1471170663442871  0.47438123107305813  0.2537173024166493  1.0000
  H   H502      1.0  0.14238769235670165  0.5457672581128223  0.23394843083544886  1.0000
  H   H503      1.0  0.11168235492233058  0.49366504121022003  0.20304381549918474  1.0000
  H   H504      1.0  0.04254713055382719  0.5655343406704589  0.2973217145492756  1.0000
  H   H505      1.0  0.08122322359961617  0.5982955514688393  0.25794499436256796  1.0000
  H   H506      1.0  0.05029566262736111  0.5452646613857677  0.22864930441343556  1.0000
  H   H507      1.0  0.09146590427794003  0.5391137529180067  0.36681522674995715  1.0000
  H   H508      1.0  0.1301986848999591  0.5731225891118352  0.32825427123153034  1.0000
  H   H509      1.0  0.13587764415568712  0.5017568791793947  0.3481772478258965  1.0000
  H   H510      1.0  0.09353309756613923  0.42953705269621045  0.30935677132786366  1.0000
  H   H511      1.0  0.059553087849366734  0.4456174439726889  0.2558266249289699  1.0000
  H   H512      1.0  0.048487601356510805  0.46719627777906214  0.3231786655510619  1.0000
