data_image0
_chemical_formula_structural       FeS2FeS2FeSFeS3FeS2FeS2FeSFeS3FeS2FeS2FeSFeS3FeS2FeS2FeSFeS3FeS2FeS2FeSFeS3FeS2FeS2FeSFeS3FeS2FeS2FeSFeS3FeS2FeS2FeSFeS3FeS2FeS2FeSFeS3FeS2FeS2FeSFeS3FeS2FeS2FeSFeS3FeS2FeS2FeSFeS3FeS2FeS2FeSFeS3FeS2FeS2FeSFeS3FeS2FeS2FeSFeS3FeS2FeS2FeSFeS3FeS2FeS2FeSFeS3FeS2FeS2FeSFeS3FeS2FeS2FeSFeS3FeS2FeS2FeSFeS3FeS2FeS2FeSFeS3FeS2FeS2FeSFeS3FeS2FeS2FeSFeS3FeS2FeS2FeSFeS3FeS2FeS2FeSFeS3FeS2FeS2FeSFeS3FeS2FeS2FeSFeS3FeS2FeS2FeSFeS3FeS2FeS2FeSFeS3FeS2FeS2FeSFeS3FeS2FeS2FeSFeS3FeS2FeS2FeSFeS3FeS2FeS2FeSFeS3FeS2FeS2FeSFeS3C6H4C6H4C6H4C6H4C6H4C6H4C6H4C6H4C6H4C6H4C6H4C6H4C6H4C6H4C6H4C6H4C6H4C6H4C6H4C6H4C6H4C6H4C6H4C6H4C6H4C6H4C6H4C6H4C6H4C6H4C6H4C6H4C6H4C6H4C6H4C6H4C6H4C6H4C6H4C6H4C6H4C6H4C6H4C6H4C6H4C6H4C6H4C6H4C6H4C6H4C6H4C6H4C6H4C6H4C6H4C6H4C6H4C6H4C6H4C6H4C6H4C6H4C6H4C6H4C6H4C6H4C6H4C6H4NC4H12NC4H12NC4H12NC4H12NC4H12NC4H12NC4H12NC4H12NC4H12NC4H12NC4H12NC4H12NC4H12NC4H12NC4H12NC4H12NC4H12NC4H12NC4H12NC4H12NC4H12NC4H12NC4H12NC4H12NC4H12NC4H12NC4H12NC4H12NC4H12NC4H12NC4H12NC4H12NC4H12NC4H12NC4H12NC4H12NC4H12NC4H12NC4H12NC4H12NC4H12NC4H12NC4H12NC4H12NC4H12NC4H12NC4H12NC4H12NC4H12NC4H12NC4H12NC4H12NC4H12NC4H12NC4H12NC4H12NC4H12NC4H12NC4H12NC4H12NC4H12NC4H12NC4H12NC4H12NC4H12NC4H12NC4H12NC4H12
_chemical_formula_sum              "Fe136 S272 C680 H1088 N68"
_cell_length_a       59.14690162806164
_cell_length_b       57.628599689555976
_cell_length_c       45.19346250481466
_cell_angle_alpha    90.16241242630565
_cell_angle_beta     90.66813148764797
_cell_angle_gamma    120.18078193802673

_space_group_name_H-M_alt    "P 1"
_space_group_IT_number       1

loop_
  _space_group_symop_operation_xyz
  'x, y, z'

loop_
  _atom_site_type_symbol
  _atom_site_label
  _atom_site_symmetry_multiplicity
  _atom_site_fract_x
  _atom_site_fract_y
  _atom_site_fract_z
  _atom_site_occupancy
  Fe  Fe1       1.0  0.26344423869107003  0.12268442737275247  0.5392593997772595  1.0000
  S   S1        1.0  0.30342720715867405  0.1278720839720764  0.5343056527226502  1.0000
  S   S2        1.0  0.2253640631994103  0.0827718981998795  0.5419391551879932  1.0000
  Fe  Fe2       1.0  0.28476647959718837  0.1838935816443796  0.5429324629835655  1.0000
  S   S3        1.0  0.32655404633690666  0.19331871362871775  0.5395328836005887  1.0000
  S   S4        1.0  0.2803586995003326  0.22100431958502212  0.544819876437556  1.0000
  Fe  Fe3       1.0  0.31118088317838866  0.1618115737196856  0.5035227462769034  1.0000
  S   S5        1.0  0.32438507740002587  0.16918006099496352  0.455691109177736  1.0000
  Fe  Fe4       1.0  0.3152622306142416  0.15897465175362005  0.57076016571768  1.0000
  S   S6        1.0  0.3341196120889875  0.15594793387468023  0.6135752336372944  1.0000
  S   S7        1.0  0.2698858239499366  0.1539947042762572  0.5056407877956789  1.0000
  S   S8        1.0  0.27469364823019415  0.15210528549605273  0.5771405535748245  1.0000
  Fe  Fe5       1.0  0.17254777373303248  0.26247522046409105  0.5226968260517877  1.0000
  S   S9        1.0  0.20376279630573574  0.3035822952775527  0.5379672909267089  1.0000
  S   S10       1.0  0.17780934244123206  0.22655172992738082  0.5143632270205247  1.0000
  Fe  Fe6       1.0  0.12849253893500065  0.2760365194549748  0.5255425148635676  1.0000
  S   S11       1.0  0.1566341739117245  0.3178449664732601  0.5419551170053298  1.0000
  S   S12       1.0  0.08771809226204844  0.27014015353642806  0.5177296723992355  1.0000
  Fe  Fe7       1.0  0.1836770535617872  0.3184956950534057  0.5071023336339519  1.0000
  S   S13       1.0  0.2033962223651488  0.35734313349372826  0.48132174438054987  1.0000
  Fe  Fe8       1.0  0.174043711048902  0.29953027972269447  0.5712274632529195  1.0000
  S   S14       1.0  0.18220739275224124  0.30713969573960004  0.6204867917112931  1.0000
  S   S15       1.0  0.15473350520755796  0.2776889034486805  0.48890459276595777  1.0000
  S   S16       1.0  0.14375311118112002  0.25746153154552637  0.5578549533085029  1.0000
  Fe  Fe9       1.0  0.9385998873393555  0.160642449254162  0.5140104272313718  1.0000
  S   S17       1.0  0.9356187154086117  0.19668719068116108  0.5260816728033613  1.0000
  S   S18       1.0  0.9774630232627445  0.16196527128045002  0.5085594414447503  1.0000
  Fe  Fe10      1.0  0.8795763047843738  0.12211989100746629  0.5196539706605072  1.0000
  S   S19       1.0  0.8724404773019808  0.15589374161566194  0.5320199726795394  1.0000
  S   S20       1.0  0.8428383474258956  0.0807805513056726  0.5223507485992228  1.0000
  Fe  Fe11      1.0  0.9002880518420188  0.17884323554465897  0.4956068190452306  1.0000
  S   S21       1.0  0.89502478251564  0.20888336451009215  0.46816424751555846  1.0000
  Fe  Fe12      1.0  0.9079751006581197  0.1709907195691923  0.5612271221596502  1.0000
  S   S22       1.0  0.9134961983442185  0.18554069407850826  0.6089795978385397  1.0000
  S   S23       1.0  0.9050183018648096  0.14412766227612903  0.4807962070992508  1.0000
  S   S24       1.0  0.9133620908243755  0.13587363259770696  0.5515347749411162  1.0000
  Fe  Fe13      1.0  0.18357830827828397  0.9290361320525315  0.5161214856602309  1.0000
  S   S25       1.0  0.19875396638118323  0.9040152656125631  0.5369373459538282  1.0000
  S   S26       1.0  0.216186917704951  0.9713350764551952  0.5059136098942351  1.0000
  Fe  Fe14      1.0  0.12689379848880739  0.8813339769571426  0.5148097311305796  1.0000
  S   S27       1.0  0.13842556335749953  0.8539764701173134  0.537130056024059  1.0000
  S   S28       1.0  0.0867334951475684  0.8647989772560614  0.4928460879055411  1.0000
  Fe  Fe15      1.0  0.16417068434487453  0.8893874393125937  0.5664039066301312  1.0000
  S   S29       1.0  0.17130791857993732  0.8912039567635226  0.6159823804679284  1.0000
  Fe  Fe16      1.0  0.17198367139533371  0.8712585085343453  0.5054351075305085  1.0000
  S   S30       1.0  0.18076535225260498  0.8417086111248658  0.48224202832779967  1.0000
  S   S31       1.0  0.14974517612265878  0.9157193221891201  0.546869455269546  1.0000
  S   S32       1.0  0.1597098074713003  0.8973350284080601  0.4819590247303108  1.0000
  Fe  Fe17      1.0  0.7985203270770639  0.9250108052079011  0.5128845216912703  1.0000
  S   S33       1.0  0.7555351262467183  0.9074650007862919  0.5028713767161667  1.0000
  S   S34       1.0  0.8341938459659125  0.9664150272696277  0.5056921747298255  1.0000
  Fe  Fe18      1.0  0.7915579560622908  0.8714724422644158  0.5343353593181427  1.0000
  S   S35       1.0  0.747862987587973  0.8494373027538933  0.5272170980672202  1.0000
  S   S36       1.0  0.815954952658561  0.855049618251048  0.5549549461476401  1.0000
  Fe  Fe19      1.0  0.7564722514989528  0.8717748719598123  0.4842834016700401  1.0000
  S   S37       1.0  0.7354108172181867  0.8468136083320722  0.44349306182162257  1.0000
  Fe  Fe20      1.0  0.7492760688664575  0.8860796379820186  0.5464616082731186  1.0000
  S   S38       1.0  0.7171534604612502  0.8844502078237134  0.5748500266435771  1.0000
  S   S39       1.0  0.8001124328682881  0.8909880716313076  0.48999433552136074  1.0000
  S   S40       1.0  0.7921264221329654  0.9063450319982461  0.5578384389358184  1.0000
  Fe  Fe21      1.0  0.8895189283465703  0.7791866012097202  0.5055459209393373  1.0000
  S   S41       1.0  0.8638806790984483  0.7344395764353809  0.5090959836517062  1.0000
  S   S42       1.0  0.8707680533896646  0.8013192823828595  0.4842674842094274  1.0000
  Fe  Fe22      1.0  0.9367571542932206  0.7789688498770853  0.5336354477187651  1.0000
  S   S43       1.0  0.9142387510353561  0.7342472891322785  0.5395387857372872  1.0000
  S   S44       1.0  0.9766392274990149  0.800826188658183  0.556716321252319  1.0000
  Fe  Fe23      1.0  0.8986987267347931  0.7324247701810206  0.4934596738581417  1.0000
  S   S45       1.0  0.89552812848549  0.6980619432035678  0.46565788257453106  1.0000
  Fe  Fe24      1.0  0.8814060965712815  0.7397760076495972  0.5546107468631339  1.0000
  S   S46       1.0  0.85487377574373  0.7206160835622614  0.5936525657000475  1.0000
  S   S47       1.0  0.9236130595533268  0.7769916686637381  0.48619043134331624  1.0000
  S   S48       1.0  0.9046406370650686  0.7847012538570558  0.5522969112456727  1.0000
  Fe  Fe25      1.0  0.43343540260517627  0.054335248110480946  0.1885811712615249  1.0000
  S   S49       1.0  0.4214959466646132  0.018847780473522313  0.21832305409943026  1.0000
  S   S50       1.0  0.4548225420728329  0.0975806498145284  0.20533381382301436  1.0000
  Fe  Fe26      1.0  0.42697211574542626  0.021002825985944718  0.13199246356916558  1.0000
  S   S51       1.0  0.4147530334200844  0.9835564406668522  0.15809545105869238  1.0000
  S   S52       1.0  0.43671721935626934  0.018312476582796  0.08417917773168906  1.0000
  Fe  Fe27      1.0  0.3902500186160446  0.99588582014878  0.18368537700122534  1.0000
  S   S53       1.0  0.34753375440872647  0.9648214801550263  0.19061988425459578  1.0000
  Fe  Fe28      1.0  0.4470252979259882  0.009654969853361894  0.18979710499604371  1.0000
  S   S54       1.0  0.47441747013731234  0.9965753088625331  0.2088455501897303  1.0000
  S   S55       1.0  0.400380908379551  0.03219520244208551  0.155452700463013  1.0000
  S   S56       1.0  0.4608202797251783  0.04628621848851648  0.16229240198453623  1.0000
  Fe  Fe29      1.0  0.6330028223335157  0.9997330323559709  0.12932064346096508  1.0000
  S   S57       1.0  0.596677837909374  0.9859439978511537  0.15600412470929437  1.0000
  S   S58       1.0  0.6266728583328551  0.9781544994459845  0.08541595280853528  1.0000
  Fe  Fe30      1.0  0.6679823792463634  0.040185552293342794  0.17725934804926702  1.0000
  S   S59       1.0  0.633954741359241  0.030288573998342762  0.20643174891960814  1.0000
  S   S60       1.0  0.7097205037217805  0.06638710967342784  0.19407358280309583  1.0000
  Fe  Fe31      1.0  0.6211551436404328  0.9872962857937729  0.19510771607135285  1.0000
  S   S61       1.0  0.6083916281151152  0.958376074649696  0.23359060142254912  1.0000
  Fe  Fe32      1.0  0.6129114340780452  0.02981215889960765  0.16458720600378005  1.0000
  S   S62       1.0  0.5881014257920499  0.048570814873004284  0.15519546610435747  1.0000
  S   S63       1.0  0.6560676070891963  0.9971079649810111  0.16773514182026997  1.0000
  S   S64       1.0  0.6482931460883017  0.04375842179191133  0.13601344750419003  1.0000
  Fe  Fe33      1.0  0.39921288418106526  0.010848688735788592  0.921255317729074  1.0000
  S   S65       1.0  0.396603007942155  0.9726886421513835  0.9048603769919847  1.0000
  S   S66       1.0  0.38115074451980024  0.016833542985390082  0.962488960954533  1.0000
  Fe  Fe34      1.0  0.4340019659631285  0.04453388946696257  0.8716093679533089  1.0000
  S   S67       1.0  0.4351420743859135  0.009771078156157964  0.8507787635753472  1.0000
  S   S68       1.0  0.4595475901499799  0.08825188316453582  0.8592006542141049  1.0000
  Fe  Fe35      1.0  0.39187040121329647  0.9858262797171536  0.8595905531865937  1.0000
  S   S69       1.0  0.37050498652720126  0.9569216604505428  0.821470121684889  1.0000
  Fe  Fe36      1.0  0.4397141577556394  0.9982634463920099  0.8966935164087668  1.0000
  S   S70       1.0  0.4646870515278759  0.98008103388959  0.9083527633332785  1.0000
  S   S71       1.0  0.39033518637649794  0.021912468637625526  0.8764213942241287  1.0000
  S   S72       1.0  0.44272648085054284  0.03512722002350101  0.9171657040558006  1.0000
  Fe  Fe37      1.0  0.6372941140677831  0.01846554880180906  0.9183341854885116  1.0000
  S   S73       1.0  0.6408247824203221  0.04680601110118898  0.8822230626521632  1.0000
  S   S74       1.0  0.650907896339085  0.039473209465815055  0.9629713757642006  1.0000
  Fe  Fe38      1.0  0.621778710016185  0.9722124845423116  0.8739420900749045  1.0000
  S   S75       1.0  0.6244161547138455  0.9973644514259769  0.8348154002812924  1.0000
  S   S76       1.0  0.6153200941466036  0.929871468530249  0.8716494966889939  1.0000
  Fe  Fe39      1.0  0.6613154354856727  0.029813812958776106  0.8565259430501346  1.0000
  S   S77       1.0  0.7014960083999486  0.053042365355336484  0.8360344972345376  1.0000
  Fe  Fe40      1.0  0.6035434708744857  0.012112731771827256  0.8641734593191783  1.0000
  S   S78       1.0  0.573495919099775  0.021433720532316736  0.8451881580137373  1.0000
  S   S79       1.0  0.6602214635113305  0.0035907429892800815  0.8936891027419367  1.0000
  S   S80       1.0  0.5983479027571864  0.9847766001028324  0.9021735534573547  1.0000
  Fe  Fe41      1.0  0.05987388151112738  0.39832882037996414  0.16730162107650295  1.0000
  S   S81       1.0  0.018076467180026635  0.366871316224874  0.15576294802299684  1.0000
  S   S82       1.0  0.08997623253539314  0.3859667381371211  0.1784804439796594  1.0000
  Fe  Fe42      1.0  0.048638755074488914  0.4442966525853616  0.16223060432295858  1.0000
  S   S83       1.0  0.006374057486048024  0.41676641580214313  0.15087698450574852  1.0000
  S   S84       1.0  0.06844239203343694  0.4893974069303645  0.1687374362984797  1.0000
  Fe  Fe43      1.0  0.006795311059926812  0.3899406285546658  0.18661894189913494  1.0000
  S   S85       1.0  0.9776648925895147  0.37592403627650484  0.22439558896606612  1.0000
  Fe  Fe44      1.0  0.02097986658534111  0.3961135107886553  0.12069012968666364  1.0000
  S   S86       1.0  0.0008929919677354102  0.3863466404218924  0.07539504579728352  1.0000
  S   S87       1.0  0.04833042403339068  0.41930898077691603  0.2003898293550008  1.0000
  S   S88       1.0  0.06351255374561685  0.4256481582326659  0.1297570398466579  1.0000
  Fe  Fe45      1.0  0.01776300162583211  0.5894853260374814  0.1800938453739875  1.0000
  S   S89       1.0  0.05999428803097293  0.619590916969032  0.1725215545066023  1.0000
  S   S90       1.0  0.9994432769970024  0.544519972699923  0.17518552477219262  1.0000
  Fe  Fe46      1.0  0.0017321992788146279  0.6323290089265912  0.18439108178772626  1.0000
  S   S91       1.0  0.0428435860833043  0.6658818554651543  0.1764503997844439  1.0000
  S   S92       1.0  0.9689928895066864  0.6421217619826706  0.18581379580606946  1.0000
  Fe  Fe47      1.0  0.044184982853733956  0.6386962977413784  0.141609522870008  1.0000
  S   S93       1.0  0.06316140500360468  0.6529318095266152  0.09708011794102382  1.0000
  Fe  Fe48      1.0  0.05500879878025179  0.6440229710160582  0.2080589979105399  1.0000
  S   S94       1.0  0.08293718577481211  0.6641608919893911  0.24690455948992568  1.0000
  S   S95       1.0  0.0023427274711920187  0.6070812633674407  0.14686394087467042  1.0000
  S   S96       1.0  0.013596717443531192  0.612014066100187  0.2184084879970985  1.0000
  Fe  Fe49      1.0  0.01733017403835002  0.6167051175672259  0.9320530962002959  1.0000
  S   S97       1.0  0.0013505315278246055  0.5799558327097345  0.9025586280237666  1.0000
  S   S98       1.0  0.9981093059083669  0.6120267417825695  0.9765922027090695  1.0000
  Fe  Fe50      1.0  0.056838750695143735  0.6531015588930854  0.8858955021905882  1.0000
  S   S99       1.0  0.04439559363608625  0.6188584661497818  0.8541297548382557  1.0000
  S   S100      1.0  0.0843748732399639  0.6963630177023933  0.8721838206341301  1.0000
  Fe  Fe51      1.0  0.003220637290673123  0.6073268413938593  0.8659579259361901  1.0000
  S   S101      1.0  0.9764226767068295  0.5986661952011371  0.8257417679766779  1.0000
  Fe  Fe52      1.0  0.04367027266266521  0.5948020344580557  0.8934058801607491  1.0000
  S   S102      1.0  0.06368523389392111  0.5700915505808465  0.8913554940968161  1.0000
  S   S103      1.0  0.015627113558464023  0.6427617786035037  0.8960910093908536  1.0000
  S   S104      1.0  0.059690845779703516  0.6302322402232511  0.9247917618217677  1.0000
  Fe  Fe53      1.0  0.04112190268848035  0.3879086249092043  0.9117825101442795  1.0000
  S   S105      1.0  0.0015611867786691214  0.37754351772287753  0.893795617698465  1.0000
  S   S106      1.0  0.05001583544937582  0.3750758787992357  0.9556749796476429  1.0000
  Fe  Fe54      1.0  0.06980752824746891  0.42010870155200614  0.8573406553646657  1.0000
  S   S107      1.0  0.03261377706236177  0.4131232947752197  0.8350422363285848  1.0000
  S   S108      1.0  0.11029602310416615  0.4474155741186139  0.8392226880645195  1.0000
  Fe  Fe55      1.0  0.021672155152208515  0.4208191477530893  0.8798987463029877  1.0000
  S   S109      1.0  0.999847904751112  0.4427528981206557  0.8892084072326012  1.0000
  Fe  Fe56      1.0  0.015458211019915513  0.37053420955261973  0.8504517080315943  1.0000
  S   S110      1.0  0.9932011454416799  0.33617685362427424  0.8177648672695186  1.0000
  S   S111      1.0  0.06019535074004153  0.4315839987524215  0.9011043029557301  1.0000
  S   S112      1.0  0.05360123025611912  0.3770486856144327  0.8695662181953848  1.0000
  Fe  Fe57      1.0  0.8236769342224156  0.21169522367581609  0.7186539204646288  1.0000
  S   S113      1.0  0.8194143665342872  0.19121829162487344  0.7625718693052481  1.0000
  S   S114      1.0  0.8233343147993505  0.19523091619019833  0.6727684525061232  1.0000
  Fe  Fe58      1.0  0.815710377710278  0.25578598892751253  0.7451991765674252  1.0000
  S   S115      1.0  0.8105842767065697  0.23862118633783339  0.7905206769573336  1.0000
  S   S116      1.0  0.8154886348321588  0.2949407552137655  0.7423200555059947  1.0000
  Fe  Fe59      1.0  0.8449014822667796  0.2335799511385986  0.7803753239386784  1.0000
  S   S117      1.0  0.8728112563032643  0.24724245203645226  0.8200447048360127  1.0000
  Fe  Fe60      1.0  0.7856504637040325  0.19809986520908746  0.7695737271269325  1.0000
  S   S118      1.0  0.745046544412089  0.17153024070076106  0.7882012698225705  1.0000
  S   S119      1.0  0.8517677911634547  0.25344997584413487  0.7359332614852626  1.0000
  S   S120      1.0  0.7880604007098604  0.21585545727610908  0.7247698434138823  1.0000
  Fe  Fe61      1.0  0.8143000255238837  0.25287320151674736  0.3177724864446739  1.0000
  S   S121      1.0  0.8073632787815939  0.2504945655793739  0.2685781005313863  1.0000
  S   S122      1.0  0.8100682807299121  0.2803907686927531  0.3502839875482605  1.0000
  Fe  Fe62      1.0  0.8286112865021819  0.20920759981142376  0.3174449106252443  1.0000
  S   S123      1.0  0.8218530224672844  0.2026368947466382  0.2684263038921626  1.0000
  S   S124      1.0  0.8409864645861646  0.1826876686362134  0.3407238265968175  1.0000
  Fe  Fe63      1.0  0.8438912300377001  0.24766873439524156  0.2657844213522245  1.0000
  S   S125      1.0  0.8728664071583563  0.26222512960562866  0.22825775765330109  1.0000
  Fe  Fe64      1.0  0.7861393879375101  0.20573315921030438  0.2751938536798714  1.0000
  S   S126      1.0  0.7467971826614499  0.1806692312975871  0.2522890602242404  1.0000
  S   S127      1.0  0.852948309539233  0.25396813279660596  0.3145270417119033  1.0000
  S   S128      1.0  0.790705678157672  0.20833462150084667  0.3246364721768003  1.0000
  Fe  Fe65      1.0  0.7073539476609912  0.3280329068832215  0.3654887168957621  1.0000
  S   S129      1.0  0.7350669475323491  0.35295542221055204  0.4018624290966118  1.0000
  S   S130      1.0  0.7163096863511835  0.30374214164095015  0.33296174425569486  1.0000
  Fe  Fe66      1.0  0.6685177479080482  0.3472823509643049  0.37964004422656344  1.0000
  S   S131      1.0  0.6948642684239194  0.3750968380990087  0.41581838911419317  1.0000
  S   S132      1.0  0.6289378546685994  0.34474209783624804  0.37783883648424255  1.0000
  Fe  Fe67      1.0  0.7277850903501554  0.385362951815887  0.384594297222372  1.0000
  S   S133      1.0  0.7640810134012902  0.4249054838201387  0.3743333099659107  1.0000
  Fe  Fe68      1.0  0.6993026507377476  0.34012104443561725  0.4291282516265715  1.0000
  S   S134      1.0  0.6896377887016563  0.32136544150539853  0.4744254687208683  1.0000
  S   S135      1.0  0.7012194874033475  0.3608110685180886  0.3470897975502103  1.0000
  S   S136      1.0  0.6718625585093733  0.31198745296495806  0.39411144359570555  1.0000
  Fe  Fe69      1.0  0.8250407595520225  0.6243849471321701  0.31994565250100176  1.0000
  S   S137      1.0  0.8412924929591158  0.6280008018999998  0.27442692468416985  1.0000
  S   S138      1.0  0.835688868227884  0.6639964218541085  0.3418126036306383  1.0000
  Fe  Fe70      1.0  0.7910370916407125  0.5629012314806626  0.3145976299412238  1.0000
  S   S139      1.0  0.8051740612475676  0.5623563862624348  0.2689696169074086  1.0000
  S   S140      1.0  0.7558357500464569  0.5254650626403301  0.3316953472900879  1.0000
  Fe  Fe71      1.0  0.8449827781508191  0.5924162844346341  0.28716985791022387  1.0000
  S   S141      1.0  0.8812548771942172  0.5887088688121255  0.28375691275973447  1.0000
  Fe  Fe72      1.0  0.7999736056269636  0.5978933443363168  0.2609258168420381  1.0000
  S   S142      1.0  0.7801745485669134  0.6009217715375365  0.21909000325679817  1.0000
  S   S143      1.0  0.8311431677903144  0.5905425078925374  0.33394149529735945  1.0000
  S   S144      1.0  0.7835692003102844  0.5967771160111378  0.30546278763476975  1.0000
  Fe  Fe73      1.0  0.44664497005909465  0.22865038113447278  0.35561307747839005  1.0000
  S   S145      1.0  0.41583176305621905  0.22013042014233744  0.3211849067199688  1.0000
  S   S146      1.0  0.43908262382350866  0.2203104722143035  0.404694559684706  1.0000
  Fe  Fe74      1.0  0.48967995747971704  0.24716625736565817  0.3093196313546447  1.0000
  S   S147      1.0  0.4615169005033672  0.2391226108656331  0.2712682696011326  1.0000
  S   S148      1.0  0.5321135523358121  0.2625197790442832  0.2980905518198363  1.0000
  Fe  Fe75      1.0  0.44551374760276763  0.2589792380911021  0.30061272825972707  1.0000
  S   S149      1.0  0.43684595807602605  0.2926007927321613  0.29181830689420585  1.0000
  Fe  Fe76      1.0  0.43473309629518225  0.20101188816463936  0.29533696025653655  1.0000
  S   S150      1.0  0.4081883850887077  0.1587277135509795  0.2775301504974697  1.0000
  S   S151      1.0  0.4752483146463416  0.26904442196076817  0.3372448579430988  1.0000
  S   S152      1.0  0.4640102264387207  0.20749570806829987  0.33098697813318756  1.0000
  Fe  Fe77      1.0  0.7155674889712904  0.3797471695142728  0.7016943501669406  1.0000
  S   S153      1.0  0.6881117965956237  0.3359113677570784  0.7113597578064916  1.0000
  S   S154      1.0  0.7279726019309402  0.4109429423632306  0.7382648324744109  1.0000
  Fe  Fe78      1.0  0.7138545670843915  0.37025132004557326  0.635236077219517  1.0000
  S   S155      1.0  0.6860589193852028  0.32620379712317976  0.6395787878401615  1.0000
  S   S156      1.0  0.7302020300654324  0.39131401023479534  0.5918886753837439  1.0000
  Fe  Fe79      1.0  0.664995051508641  0.3374281564622268  0.6724140001546207  1.0000
  S   S157      1.0  0.6213961203555205  0.3210396744700028  0.6675988993735763  1.0000
  Fe  Fe80      1.0  0.7116745589344307  0.32835959793023367  0.6778383878942332  1.0000
  S   S158      1.0  0.7198372508079844  0.29385589987206717  0.6764228152799202  1.0000
  S   S159      1.0  0.6908763816584828  0.38160317237515584  0.6649282064058468  1.0000
  S   S160      1.0  0.7411487393232709  0.37204955155473013  0.671481913397271  1.0000
  Fe  Fe81      1.0  0.8524232475460422  0.6277532720414849  0.7204810357359754  1.0000
  S   S161      1.0  0.8448710152646509  0.6381605319040957  0.7660249945119973  1.0000
  S   S162      1.0  0.8805206011849227  0.653277759650568  0.6848499729758489  1.0000
  Fe  Fe82      1.0  0.8182264361893267  0.5672849512581557  0.7299972484423529  1.0000
  S   S163      1.0  0.807373973486093  0.5721721445299585  0.7760557647644929  1.0000
  S   S164      1.0  0.8091819595156419  0.5308189663856442  0.7022969842991525  1.0000
  Fe  Fe83      1.0  0.8028760268124165  0.6059426304606488  0.7574831708996962  1.0000
  S   S165      1.0  0.7664422279853532  0.609599917406839  0.7597319433134103  1.0000
  Fe  Fe84      1.0  0.8500441366490611  0.6038230463958169  0.7814869801785773  1.0000
  S   S166      1.0  0.8718475520153037  0.6046622319440328  0.8236408650697314  1.0000
  S   S167      1.0  0.810397503504769  0.5983031409394101  0.7106920284365271  1.0000
  S   S168      1.0  0.860965028404267  0.5962363380941408  0.7368666343866872  1.0000
  Fe  Fe85      1.0  0.4538460555307133  0.234564634079857  0.7179911686619278  1.0000
  S   S169      1.0  0.4231644031931262  0.21569746160228193  0.7522955295308957  1.0000
  S   S170      1.0  0.4444577824015614  0.23886952429449046  0.670293218069284  1.0000
  Fe  Fe86      1.0  0.49763097874476214  0.24986696152419652  0.7632635355565524  1.0000
  S   S171      1.0  0.46970593863054705  0.23239087991726706  0.8014440433184775  1.0000
  S   S172      1.0  0.5411091484573308  0.2687003814391949  0.77240147004606  1.0000
  Fe  Fe87      1.0  0.44634787714373886  0.1976856135418687  0.7702804936785873  1.0000
  S   S173      1.0  0.42111961009266724  0.15327581266788992  0.7801458128761489  1.0000
  Fe  Fe88      1.0  0.4491492187308941  0.25206417432531003  0.7800094853368796  1.0000
  S   S174      1.0  0.4269381995498206  0.27039855808099106  0.80058540710429  1.0000
  S   S175      1.0  0.4754111876963626  0.21382789056673507  0.7333705632153418  1.0000
  S   S176      1.0  0.47879013487559463  0.27223859357507946  0.7445285576601233  1.0000
  Fe  Fe89      1.0  0.43331937847621327  0.3871461443566003  0.17118004752336827  1.0000
  S   S177      1.0  0.4308743274286311  0.4085987709277639  0.2113699855774037  1.0000
  S   S178      1.0  0.44216066784827546  0.35301996427521376  0.1723665355640518  1.0000
  Fe  Fe90      1.0  0.41954451179005076  0.41971820071410976  0.12888924561604267  1.0000
  S   S179      1.0  0.4153118164415009  0.44302689085722  0.1664792180659478  1.0000
  S   S180      1.0  0.41612135172532816  0.4344359520844783  0.0832996709988411  1.0000
  Fe  Fe91      1.0  0.4522243477388454  0.4459704588898105  0.184416731709868  1.0000
  S   S181      1.0  0.48263207496673155  0.48580638851181535  0.2043146784632143  1.0000
  Fe  Fe92      1.0  0.3941488105918442  0.4038082868312806  0.19004302155755623  1.0000
  S   S182      1.0  0.3587006354665689  0.387828459792365  0.2197947723422199  1.0000
  S   S183      1.0  0.45784232248183226  0.42514692345079047  0.14559239099747187  1.0000
  S   S184      1.0  0.39519403487919846  0.37987226601042484  0.15109102786056353  1.0000
  Fe  Fe93      1.0  0.6675723983702632  0.6326114866643044  0.18738488285755245  1.0000
  S   S185      1.0  0.6245512436940841  0.6148947576861722  0.19649266217162575  1.0000
  S   S186      1.0  0.6940477022384839  0.6355674186173915  0.2257404228056245  1.0000
  Fe  Fe94      1.0  0.6614626811559021  0.6459044688641448  0.12337311036270765  1.0000
  S   S187      1.0  0.6183505686759736  0.6287259456961115  0.12766727837708713  1.0000
  S   S188      1.0  0.6810490846680665  0.667391772764151  0.08112847740417742  1.0000
  Fe  Fe95      1.0  0.6282724218956349  0.6504262975547345  0.17157799124912193  1.0000
  S   S189      1.0  0.6086411199329029  0.6752531608682515  0.1784035933688907  1.0000
  Fe  Fe96      1.0  0.6187873918383233  0.5951264392870483  0.15192348227838126  1.0000
  S   S190      1.0  0.5906819321646141  0.5518898150320058  0.13898750051580291  1.0000
  S   S191      1.0  0.6715986698875657  0.6696654586792262  0.1658989188400004  1.0000
  S   S192      1.0  0.661600603767705  0.6106159536109491  0.14426732040111367  1.0000
  Fe  Fe97      1.0  0.4560346604957046  0.4076457689285874  0.8611744315086944  1.0000
  S   S193      1.0  0.44870314184106985  0.4383017895089913  0.8397490074419314  1.0000
  S   S194      1.0  0.4810818069768611  0.3926641720833108  0.8404106858640017  1.0000
  Fe  Fe98      1.0  0.4262676676122083  0.4053633990769615  0.9167220061245068  1.0000
  S   S195      1.0  0.41544172666324986  0.4352785530191488  0.8997042784273552  1.0000
  S   S196      1.0  0.41657635824997674  0.3818229380326584  0.9594689654781874  1.0000
  Fe  Fe99      1.0  0.40758011331767013  0.41358698578638725  0.8559569069971297  1.0000
  S   S197      1.0  0.37716805257661107  0.4051725680294369  0.8201100309035803  1.0000
  Fe  Fe100     1.0  0.4571606818647796  0.4580634474382518  0.8843185323591782  1.0000
  S   S198      1.0  0.479413834136488  0.5031238519625318  0.8902019589414717  1.0000
  S   S199      1.0  0.4143643655420811  0.38129222087494047  0.8742292018728995  1.0000
  S   S200      1.0  0.4685924952764656  0.42991431558236354  0.9046739525475475  1.0000
  Fe  Fe101     1.0  0.651476550400351  0.6656100958726592  0.863138982556564  1.0000
  S   S201      1.0  0.656852312869617  0.6381137314096896  0.8320992048068021  1.0000
  S   S202      1.0  0.6632365938458078  0.7080498805063815  0.8492573766382542  1.0000
  Fe  Fe102     1.0  0.6367101017702917  0.6270193269554829  0.9151039246015896  1.0000
  S   S203      1.0  0.6410469795331314  0.5969694120523038  0.8879227708066472  1.0000
  S   S204      1.0  0.6215679556729299  0.6117385440342767  0.9610178815733367  1.0000
  Fe  Fe103     1.0  0.6776448206000069  0.6317341425133034  0.8703577346536269  1.0000
  S   S205      1.0  0.7154667556506933  0.6304941539267941  0.8728057710497805  1.0000
  Fe  Fe104     1.0  0.6197202516789745  0.6055989180289035  0.8523917970601488  1.0000
  S   S206      1.0  0.5884621678300215  0.5694849971209184  0.8271919169822924  1.0000
  S   S207      1.0  0.6749123956815943  0.6614120820544429  0.900408344177765  1.0000
  S   S208      1.0  0.6127340641144775  0.633486549392174  0.8805694465436029  1.0000
  Fe  Fe105     1.0  0.2573111684638033  0.4399528405291841  0.7127425290016316  1.0000
  S   S209      1.0  0.24329927809528526  0.4138569136251623  0.7528615309021791  1.0000
  S   S210      1.0  0.25853182398820157  0.42641687482833757  0.6660228990887948  1.0000
  Fe  Fe106     1.0  0.26486909217920734  0.4894595129341825  0.7452334187496602  1.0000
  S   S211      1.0  0.25065846572694633  0.4672367302724842  0.7878340143082531  1.0000
  S   S212      1.0  0.2761451149208011  0.5331962477642218  0.747259682047054  1.0000
  Fe  Fe107     1.0  0.27565037965965306  0.44922900222059076  0.7773239273664003  1.0000
  S   S213      1.0  0.2959705204111975  0.4467257930284109  0.8191141036175439  1.0000
  Fe  Fe108     1.0  0.21944399566263156  0.4336324422600613  0.7609258313011007  1.0000
  S   S214      1.0  0.17812871638155728  0.40499623286659175  0.7757046011732729  1.0000
  S   S215      1.0  0.2922645869887803  0.47402949031536556  0.7363790288762375  1.0000
  S   S216      1.0  0.23108892013017288  0.4573030467159757  0.7189620262699976  1.0000
  Fe  Fe109     1.0  0.22532017967617135  0.40307550870708503  0.31813257659873384  1.0000
  S   S217      1.0  0.2167084128736831  0.4050630091266671  0.2697180849760257  1.0000
  S   S218      1.0  0.20806399729050568  0.3630848763061923  0.3413154690569724  1.0000
  Fe  Fe110     1.0  0.26207570030076194  0.46314674504648945  0.3235939861433721  1.0000
  S   S219      1.0  0.25663719690981496  0.47012892353826563  0.2760946119731449  1.0000
  S   S220      1.0  0.28520750326811145  0.49522885772393477  0.35816661727806154  1.0000
  Fe  Fe111     1.0  0.21393958258465448  0.44114220653362357  0.28272427806771744  1.0000
  S   S221      1.0  0.18679277032679853  0.45533729686176955  0.2654352383667186  1.0000
  Fe  Fe112     1.0  0.2600083920245304  0.43365239225518565  0.2665150170941538  1.0000
  S   S222      1.0  0.2824218007887172  0.43581269440538806  0.22525476627292243  1.0000
  S   S223      1.0  0.2190406169139827  0.43689718703427327  0.33143635748615635  1.0000
  S   S224      1.0  0.2689380334430881  0.42890937812464724  0.313796227334439  1.0000
  Fe  Fe113     1.0  0.35206543457973005  0.6503210875720421  0.349217573438408  1.0000
  S   S225      1.0  0.37878374030020406  0.6921693603910689  0.33319576574134724  1.0000
  S   S226      1.0  0.3450767342819558  0.6168215544078064  0.3173693217221728  1.0000
  Fe  Fe114     1.0  0.34447664722461235  0.6707024695349626  0.4083504709538013  1.0000
  S   S227      1.0  0.3704079834802609  0.714184963392502  0.3970310451490423  1.0000
  S   S228      1.0  0.3255854094964658  0.6539529110131769  0.452237879986286  1.0000
  Fe  Fe115     1.0  0.34967266168669175  0.7019978211630633  0.3526899010480071  1.0000
  S   S229      1.0  0.3388396678893867  0.7268823896352608  0.323302546074727  1.0000
  Fe  Fe116     1.0  0.3971179251605527  0.7007228081289567  0.3784157765753152  1.0000
  S   S230      1.0  0.44015557450204856  0.7201593032409026  0.39064093842859815  1.0000
  S   S231      1.0  0.32152338291541993  0.659338890222254  0.3653261401764056  1.0000
  S   S232      1.0  0.37267549826365587  0.6580693413046815  0.39309612821789475  1.0000
  Fe  Fe117     1.0  0.23108505830730433  0.8295297639775424  0.32719638237663246  1.0000
  S   S233      1.0  0.23934898016678977  0.8371761370099431  0.2785543147849659  1.0000
  S   S234      1.0  0.21913276722326602  0.8570400643261639  0.3491801966603786  1.0000
  Fe  Fe118     1.0  0.24854726140949618  0.7878401575976196  0.32827549301850933  1.0000
  S   S235      1.0  0.25818875182045953  0.7926624043838197  0.28018419512813647  1.0000
  S   S236      1.0  0.2546708597023279  0.7594546222097398  0.3573253564266622  1.0000
  Fe  Fe119     1.0  0.2763309611322499  0.8369086817649879  0.28883711480357066  1.0000
  S   S237      1.0  0.3181493869876925  0.8668069073717806  0.2767044802024624  1.0000
  Fe  Fe120     1.0  0.22013070363928808  0.792205287498141  0.2744417259432624  1.0000
  S   S238      1.0  0.19475150919405226  0.7687665427961912  0.23501151291068706  1.0000
  S   S239      1.0  0.26944572547060985  0.8321258489993456  0.3377259855111757  1.0000
  S   S240      1.0  0.2090843517418599  0.7845290689638783  0.3223039890350678  1.0000
  Fe  Fe121     1.0  0.5704494033042361  0.7889746451971474  0.3018034032823776  1.0000
  S   S241      1.0  0.594676404883745  0.7914157332051354  0.26252590087086597  1.0000
  S   S242      1.0  0.5269639260254261  0.7708779945037254  0.2918791593144363  1.0000
  Fe  Fe122     1.0  0.6188017244396115  0.8207720274817628  0.3414177110248298  1.0000
  S   S243      1.0  0.6462794377569089  0.825777879680364  0.3051183206916016  1.0000
  S   S244      1.0  0.6344585589091122  0.841572024214571  0.3858410535446655  1.0000
  Fe  Fe123     1.0  0.6205487598319638  0.8345864701884335  0.2760817012706776  1.0000
  S   S245      1.0  0.6371486917158544  0.8661548246575537  0.24036177103163375  1.0000
  Fe  Fe124     1.0  0.6181259212271231  0.7822231554620966  0.29467052041894043  1.0000
  S   S246      1.0  0.6360628714550182  0.75585881951643  0.2873787706705039  1.0000
  S   S247      1.0  0.594910103657589  0.8329107732321596  0.3130142637733339  1.0000
  S   S248      1.0  0.592063850235379  0.7764294931202199  0.33338244701056696  1.0000
  Fe  Fe125     1.0  0.35367161530519564  0.6574600242623903  0.6496221892004101  1.0000
  S   S249      1.0  0.35453524269023445  0.6786714737398795  0.6914035611015661  1.0000
  S   S250      1.0  0.3465139072870818  0.6150445971325741  0.648864171146983  1.0000
  Fe  Fe126     1.0  0.3685771776462961  0.7067378080046448  0.6118671014109697  1.0000
  S   S251      1.0  0.3712976572328803  0.7322206745901337  0.6512472130475738  1.0000
  S   S252      1.0  0.37875321134523954  0.7254793820317516  0.5665426881024901  1.0000
  Fe  Fe127     1.0  0.3917201292296942  0.7129588914845056  0.673899877435672  1.0000
  S   S253      1.0  0.4249711371791898  0.7319287856976813  0.7075270833530009  1.0000
  Fe  Fe128     1.0  0.33401580205661435  0.6958105280085612  0.6650929178591968  1.0000
  S   S254      1.0  0.29728050572331755  0.6932256274550087  0.6832921526775088  1.0000
  S   S255      1.0  0.3921706642566987  0.6906298148728119  0.6334034941918777  1.0000
  S   S256      1.0  0.32992592240443785  0.6714698553519226  0.6242292550663824  1.0000
  Fe  Fe129     1.0  0.21785081149778185  0.8083661800544598  0.7162241977760888  1.0000
  S   S257      1.0  0.20040880654518725  0.8034459214150361  0.7615845584850103  1.0000
  S   S258      1.0  0.2046780208126492  0.8106790380398567  0.6695014190072867  1.0000
  Fe  Fe130     1.0  0.26083944705757967  0.7979506378150494  0.7378856946033049  1.0000
  S   S259      1.0  0.24757478729144708  0.7921052015154074  0.7848744979875514  1.0000
  S   S260      1.0  0.2971915146879612  0.7994693822114747  0.7203580101370756  1.0000
  Fe  Fe131     1.0  0.2066103938898077  0.7682444174718949  0.7663585501939975  1.0000
  S   S261      1.0  0.17925306735265895  0.7272616307178783  0.785629597434723  1.0000
  Fe  Fe132     1.0  0.2425074553501114  0.8277638646955369  0.7777700543781648  1.0000
  S   S262      1.0  0.2544520531753246  0.8568396147359991  0.8166735247249493  1.0000
  S   S263      1.0  0.22057850044134122  0.7708991917937934  0.719860252541465  1.0000
  S   S264      1.0  0.2591528024010192  0.8357521978500612  0.7320879060322533  1.0000
  Fe  Fe133     1.0  0.632510371481801  0.8042262082793243  0.7081898171925675  1.0000
  S   S265      1.0  0.6343671011229779  0.8152364862101582  0.756489685789598  1.0000
  S   S266      1.0  0.6671585055832089  0.8064534314663686  0.6843406701392989  1.0000
  Fe  Fe134     1.0  0.5733134484963508  0.7824372461286895  0.7033599883973258  1.0000
  S   S267      1.0  0.5705205971380499  0.7917085875997883  0.7508432345478214  1.0000
  S   S268      1.0  0.5400805598212656  0.7648600014218646  0.6696680703657956  1.0000
  Fe  Fe135     1.0  0.6075091883962118  0.8308550841406209  0.7431827776686222  1.0000
  S   S269      1.0  0.6104439546739396  0.8713983379808912  0.7504305891572731  1.0000
  Fe  Fe136     1.0  0.5972792014544663  0.775153870570755  0.7601050049005381  1.0000
  S   S270      1.0  0.5848011559890215  0.741488819209967  0.793125270956641  1.0000
  S   S271      1.0  0.6085175530627308  0.8225802994088236  0.6945761569085879  1.0000
  S   S272      1.0  0.5973168025132619  0.763155598734596  0.7129027354241091  1.0000
  C   C1        1.0  0.2977341755250564  0.7228624487596299  0.6943135396644287  1.0000
  C   C2        1.0  0.3200518260383015  0.7480766477770172  0.6910255470967681  1.0000
  C   C3        1.0  0.31973771531651146  0.7713676001704253  0.6996185146035282  1.0000
  C   C4        1.0  0.29717623589456915  0.7696203323296837  0.711642270780108  1.0000
  C   C5        1.0  0.2748607465205146  0.744401066223381  0.7150996783063633  1.0000
  C   C6        1.0  0.2751467944400654  0.7210912456731529  0.7063865601282773  1.0000
  H   H1        1.0  0.3375410249075168  0.7496822484121849  0.6817868159388075  1.0000
  H   H2        1.0  0.33703477044944186  0.7908309110985616  0.6968260235348992  1.0000
  H   H3        1.0  0.25737311004779717  0.7428588050764898  0.7243622866830012  1.0000
  H   H4        1.0  0.25781257613702346  0.7016466764807194  0.709042754756037  1.0000
  C   C7        1.0  0.45665102784251865  0.7402970259013595  0.6966981472292585  1.0000
  C   C8        1.0  0.47617178427818946  0.747172505850594  0.7184667528732743  1.0000
  C   C9        1.0  0.5017122104483974  0.7541725501144546  0.7104928274606171  1.0000
  C   C10       1.0  0.5079350696135055  0.7546546115984851  0.6806582462525198  1.0000
  C   C11       1.0  0.4883223124230001  0.7474755299746636  0.6589436769409691  1.0000
  C   C12       1.0  0.4627257431407442  0.7402649746773283  0.6669177920549593  1.0000
  H   H5        1.0  0.4715170410585661  0.7470673371501523  0.7415731493053431  1.0000
  H   H6        1.0  0.516551110424361  0.7591502735627751  0.7274010893926237  1.0000
  H   H7        1.0  0.4930338375333524  0.747826715097748  0.6358208329510037  1.0000
  H   H8        1.0  0.4478575376858064  0.7351872553263136  0.6499717681040025  1.0000
  C   C13       1.0  0.33811918678670777  0.6743527426215274  0.4841806454979354  1.0000
  C   C14       1.0  0.3330633802272117  0.6623182960126184  0.5121202950077233  1.0000
  C   C15       1.0  0.34472549960927124  0.6779084181851298  0.5377720282781672  1.0000
  C   C16       1.0  0.36125677149862123  0.7056773795298199  0.535587628616706  1.0000
  C   C17       1.0  0.36543902425591673  0.7178128059410548  0.5077885381763714  1.0000
  C   C18       1.0  0.3540339030890952  0.7021984458166751  0.4821216678326012  1.0000
  H   H9        1.0  0.32065394607546527  0.6407846649685893  0.5138652456772645  1.0000
  H   H10       1.0  0.3414117282860157  0.6683526179180695  0.5590871130551717  1.0000
  H   H11       1.0  0.3779143770031158  0.7393388846790718  0.5060718281479345  1.0000
  H   H12       1.0  0.35759644022177234  0.7117102978406546  0.4607870430324362  1.0000
  C   C19       1.0  0.3137032312107906  0.7334546479685556  0.33257884825358064  1.0000
  C   C20       1.0  0.30281284075273057  0.7282873515557202  0.36076978230060314  1.0000
  C   C21       1.0  0.28415868078239154  0.7356919002568731  0.36788397362306324  1.0000
  C   C22       1.0  0.27637735044758893  0.748350478499534  0.3469354704557128  1.0000
  C   C23       1.0  0.28669261114823147  0.7527373799935119  0.3184909785647957  1.0000
  C   C24       1.0  0.3052931595751783  0.745337858320271  0.3113775389018273  1.0000
  H   H13       1.0  0.3091316544406282  0.7190793766764568  0.37726345136881567  1.0000
  H   H14       1.0  0.27617835845992106  0.7321170642049661  0.38992875435674196  1.0000
  H   H15       1.0  0.2807101421308269  0.7621835244220121  0.30208788683742904  1.0000
  H   H16       1.0  0.31350940417861717  0.7491428711915183  0.28945268416405795  1.0000
  C   C25       1.0  0.5033148402325995  0.7574573970616143  0.31987010368282676  1.0000
  C   C26       1.0  0.5099206675122331  0.7546773624160585  0.3489171046978579  1.0000
  C   C27       1.0  0.49039722930373697  0.7433992786145309  0.37048898993726725  1.0000
  C   C28       1.0  0.4642178316342729  0.7349246173556158  0.3631865371424564  1.0000
  C   C29       1.0  0.45765503460707607  0.737914078972175  0.3341914098592093  1.0000
  C   C30       1.0  0.47713190793425747  0.7490417178180844  0.31258894544237026  1.0000
  H   H17       1.0  0.5300463311175369  0.7611262665438844  0.3547370899656858  1.0000
  H   H18       1.0  0.4956486016472269  0.7412398520540762  0.39290315557040223  1.0000
  H   H19       1.0  0.43764453161020933  0.7319306517143741  0.3284899059226513  1.0000
  H   H20       1.0  0.4719232063368551  0.7512909741658333  0.29018929271763944  1.0000
  C   C31       1.0  0.30226813275981596  0.5290168207829675  0.3467832196065248  1.0000
  C   C32       1.0  0.3088283066277959  0.5355890624624899  0.31715831131147837  1.0000
  C   C33       1.0  0.32208851321901694  0.5626121833491732  0.3084971754630645  1.0000
  C   C34       1.0  0.32870018358783626  0.5832409205317179  0.3293246320828751  1.0000
  C   C35       1.0  0.3221098142763244  0.5767037522783499  0.3589713560291036  1.0000
  C   C36       1.0  0.30907112707316936  0.5496472600386527  0.3676857009236054  1.0000
  H   H21       1.0  0.30410267083529774  0.5198928305634897  0.30096923776839757  1.0000
  H   H22       1.0  0.32727699434187213  0.5675508593875759  0.28555787685973005  1.0000
  H   H23       1.0  0.32711137033081833  0.5924689453748396  0.3752038668477175  1.0000
  H   H24       1.0  0.3040693332341376  0.544722042929277  0.3906681346487136  1.0000
  C   C37       1.0  0.2971751043729319  0.5555151377611192  0.7205213540120781  1.0000
  C   C38       1.0  0.30784951865867716  0.5831661233285326  0.7251757542842632  1.0000
  C   C39       1.0  0.323070338332846  0.6015581336002027  0.7033802662563219  1.0000
  C   C40       1.0  0.32787728743899547  0.5924192825590026  0.6768328532822111  1.0000
  C   C41       1.0  0.3179586489319638  0.5648106133565203  0.6725809057264961  1.0000
  C   C42       1.0  0.3025358178733131  0.5463480659159357  0.6943275199186977  1.0000
  H   H25       1.0  0.3040630451015682  0.5902848078658632  0.7456628847618274  1.0000
  H   H26       1.0  0.33102013317535767  0.6227678468677306  0.7071131778839024  1.0000
  H   H27       1.0  0.3218054463971523  0.5576046098199073  0.6521850140132273  1.0000
  H   H28       1.0  0.2944437562946923  0.5250356497203654  0.6906031695685022  1.0000
  C   C43       1.0  0.6066790544093051  0.7327170222804555  0.8095587037889972  1.0000
  C   C44       1.0  0.633196367646812  0.7515814802667886  0.8136134038595678  1.0000
  C   C45       1.0  0.650192921238621  0.7437846887245401  0.8262967928162155  1.0000
  C   C46       1.0  0.6408658651643432  0.7170755898599002  0.8348021685543401  1.0000
  C   C47       1.0  0.6142900178721016  0.6982625217383372  0.8309880890645306  1.0000
  C   C48       1.0  0.5972377417720046  0.7061394327016695  0.8186352483071975  1.0000
  H   H29       1.0  0.6405269821117946  0.7722114668779348  0.807269323516752  1.0000
  H   H30       1.0  0.6706830389055338  0.7584904157969063  0.8295222860156435  1.0000
  H   H31       1.0  0.6068858820718444  0.6776707786149029  0.8375533089421002  1.0000
  H   H32       1.0  0.5766877461910487  0.6914912269229996  0.8157874365346224  1.0000
  C   C49       1.0  0.5083714836657786  0.5217020087835849  0.8701807428592041  1.0000
  C   C50       1.0  0.524077455861391  0.5492742402351473  0.8759692927548386  1.0000
  C   C51       1.0  0.5485906371150358  0.5641723737897466  0.8626706625840227  1.0000
  C   C52       1.0  0.5570987349790852  0.5517678264718306  0.8426267152088681  1.0000
  C   C53       1.0  0.54069649583307  0.5244954836067006  0.8355159782453955  1.0000
  C   C54       1.0  0.5164976204895069  0.5093744949953611  0.8495373810125303  1.0000
  H   H33       1.0  0.5176742549490553  0.5590109340412468  0.8915431112012436  1.0000
  H   H34       1.0  0.5608590655240256  0.5852793327739175  0.8678395242310467  1.0000
  H   H35       1.0  0.5471447923595715  0.5148364839487988  0.8198817369865302  1.0000
  H   H36       1.0  0.5044765057432374  0.4881352574677108  0.8447868484499274  1.0000
  C   C55       1.0  0.3546510103060736  0.4167788878196876  0.8204441802517882  1.0000
  C   C56       1.0  0.3500468160670476  0.427325940011358  0.8460620849666906  1.0000
  C   C57       1.0  0.332112686760512  0.43659579160199186  0.8452694618181116  1.0000
  C   C58       1.0  0.31875178828502343  0.43546427565658075  0.8188908359038759  1.0000
  C   C59       1.0  0.3235308737561612  0.4251382026063176  0.7932295790618129  1.0000
  C   C60       1.0  0.3413209528153989  0.415700250723371  0.7940795249411045  1.0000
  H   H37       1.0  0.35997047162364176  0.4279340609696524  0.8665615220135858  1.0000
  H   H38       1.0  0.32840593928226897  0.444460600594433  0.8652405394611391  1.0000
  H   H39       1.0  0.31330072138967874  0.4241182582236045  0.7728202036133663  1.0000
  H   H40       1.0  0.3447569649422016  0.4074949311398172  0.7741887433497846  1.0000
  C   C61       1.0  0.6646495561474418  0.6518981127352982  0.04770451087710828  1.0000
  C   C62       1.0  0.6426167329369776  0.6261943024548029  0.04755755339353254  1.0000
  C   C63       1.0  0.6295613828890372  0.6142904253055849  0.020787484130416534  1.0000
  C   C64       1.0  0.6384310568560739  0.6279363954945947  0.9939746688445025  1.0000
  C   C65       1.0  0.6603793637479212  0.6537509819515608  0.9940554222946504  1.0000
  C   C66       1.0  0.6734596563958981  0.6657055116778262  0.020908692019832253  1.0000
  H   H41       1.0  0.6356959550453111  0.6153746836635416  0.06807548558737683  1.0000
  H   H42       1.0  0.6125568541562927  0.5943451273504645  0.020906774525627725  1.0000
  H   H43       1.0  0.6670539034967001  0.6645709316308761  0.9735168689048267  1.0000
  H   H44       1.0  0.6903628206329269  0.6857287399902057  0.02095444618674769  1.0000
  C   C67       1.0  0.6166516511122374  0.6976884171625498  0.20873854174740955  1.0000
  C   C68       1.0  0.604110347100135  0.7128300110254995  0.2112329285010185  1.0000
  C   C69       1.0  0.6098916768164223  0.730806502750326  0.23512656767242707  1.0000
  C   C70       1.0  0.6282676968144548  0.7337345419015593  0.2567615603542852  1.0000
  C   C71       1.0  0.6409337426891552  0.7187225450011085  0.2541562051025952  1.0000
  C   C72       1.0  0.6351904365867657  0.7007871892933725  0.2302347479464217  1.0000
  H   H45       1.0  0.589703180263923  0.7105019467702963  0.1947385258402297  1.0000
  H   H46       1.0  0.5999950426280122  0.7422152956231314  0.23690702522766777  1.0000
  H   H47       1.0  0.655089278873428  0.7207618216776426  0.27084048674405364  1.0000
  H   H48       1.0  0.6449088202887979  0.6891751882160758  0.22858537627145634  1.0000
  C   C73       1.0  0.41743526029730194  0.4198766869905027  0.04931014461622449  1.0000
  C   C74       1.0  0.4160874600022466  0.394967115666824  0.047906996929371594  1.0000
  C   C75       1.0  0.41601801277502704  0.38359782768562406  0.020229154550060136  1.0000
  C   C76       1.0  0.41772143417632923  0.39721850779398754  0.9938393228772551  1.0000
  C   C77       1.0  0.4197105372421732  0.42241852185498985  0.995313820358827  1.0000
  C   C78       1.0  0.41936213056289073  0.4335812280187803  0.02293311986261926  1.0000
  H   H49       1.0  0.41453540165676533  0.3842163409172961  0.06807092995454231  1.0000
  H   H50       1.0  0.4144244901616129  0.3640762412715015  0.019284983418684565  1.0000
  H   H51       1.0  0.42089915513884796  0.43301935295878186  0.9751489343586087  1.0000
  H   H52       1.0  0.42023226642720535  0.4527685927754201  0.023808077016440388  1.0000
  C   C79       1.0  0.5136138574681623  0.5035655802724747  0.1879162165207695  1.0000
  C   C80       1.0  0.5295784038867557  0.5311375917699088  0.1937545115861205  1.0000
  C   C81       1.0  0.5536626238030792  0.5461068974210049  0.1794793157730547  1.0000
  C   C82       1.0  0.5618797773905223  0.5334974658303109  0.1593276510438672  1.0000
  C   C83       1.0  0.5461647193009325  0.5058156256126662  0.1539720444455114  1.0000
  C   C84       1.0  0.5221554128602911  0.4908651845734982  0.16833122846621495  1.0000
  H   H53       1.0  0.5231324658048212  0.5410380784202594  0.20904818497750977  1.0000
  H   H54       1.0  0.5656501616822032  0.5674428855377525  0.18373342012165678  1.0000
  H   H55       1.0  0.5525533056078438  0.495943299961711  0.13857730367174753  1.0000
  H   H56       1.0  0.5102883558709453  0.46952151322704067  0.16428047388500056  1.0000
  C   C85       1.0  0.33866359501759824  0.4025417231152212  0.2217150155042592  1.0000
  C   C86       1.0  0.3394470696715613  0.42029592248165065  0.20015872905068688  1.0000
  C   C87       1.0  0.32222947734696855  0.4304736660961246  0.20161651875652434  1.0000
  C   C88       1.0  0.30444005432042925  0.42340580856982046  0.22488841346153174  1.0000
  C   C89       1.0  0.30394430054313976  0.4059907175289443  0.24670350175907035  1.0000
  C   C90       1.0  0.3208233323324614  0.3954314623124877  0.24494611366912353  1.0000
  H   H57       1.0  0.35301376451215627  0.4258425342629894  0.18210774868811327  1.0000
  H   H58       1.0  0.32274935510320196  0.44390651752077437  0.18462885830001008  1.0000
  H   H59       1.0  0.2902448964080381  0.4002592735422576  0.2646258756139984  1.0000
  H   H60       1.0  0.32004081485490815  0.38167206278182303  0.26166983904273405  1.0000
  C   C91       1.0  0.46594535112278046  0.3589771559720438  0.8280726982946076  1.0000
  C   C92       1.0  0.4387197480297766  0.3427152365979426  0.8274222004494621  1.0000
  C   C93       1.0  0.42708546759013494  0.3155791060311507  0.8190316654445103  1.0000
  C   C94       1.0  0.44254943768602467  0.30456638961044735  0.8108205205869993  1.0000
  C   C95       1.0  0.46977169445729583  0.3209025582642545  0.8108087985570965  1.0000
  C   C96       1.0  0.4814282320834852  0.34803801558262204  0.8195358755936591  1.0000
  H   H61       1.0  0.42659006717028003  0.3510561715271718  0.8331970473965888  1.0000
  H   H62       1.0  0.4059907267996491  0.3030920072159226  0.8187477952067931  1.0000
  H   H63       1.0  0.4818466880623786  0.31257654747708263  0.8044389235073434  1.0000
  H   H64       1.0  0.5025193433376032  0.36054234969638926  0.8198951703075411  1.0000
  C   C97       1.0  0.752695914121813  0.6152728845999158  0.7916438184896686  1.0000
  C   C98       1.0  0.7294061987506896  0.6160474728402383  0.7885214849533521  1.0000
  C   C99       1.0  0.7177682667811778  0.6206260388114446  0.8131647696204424  1.0000
  C   C100      1.0  0.7293877999586635  0.6245450079609312  0.8412208496458731  1.0000
  C   C101      1.0  0.7526747643066924  0.6237402934648677  0.8444156648800077  1.0000
  C   C102      1.0  0.7642986432386915  0.6190999358363826  0.8197384232888687  1.0000
  H   H65       1.0  0.720310495977892  0.6130970702085552  0.7668734287404302  1.0000
  H   H66       1.0  0.6998542731776587  0.6211713638760663  0.8103976478332025  1.0000
  H   H67       1.0  0.7618300096263572  0.6267956510055789  0.8660208410370173  1.0000
  H   H68       1.0  0.7822498005325903  0.6186083705727122  0.8223920565471962  1.0000
  C   C103      1.0  0.5990896030187932  0.30479101914238144  0.6964095167902976  1.0000
  C   C104      1.0  0.6071646948707136  0.30005529561017485  0.723807981992848  1.0000
  C   C105      1.0  0.5891877179001236  0.28890919629618156  0.7469487180722154  1.0000
  C   C106      1.0  0.5629249224318023  0.2818451608895002  0.7426333188720111  1.0000
  C   C107      1.0  0.5547376487383231  0.28603761996535604  0.7150328181001386  1.0000
  C   C108      1.0  0.5728143893086022  0.2976156964843949  0.6920707855996221  1.0000
  H   H69       1.0  0.6272177357796194  0.3049726526953409  0.7271952008383777  1.0000
  H   H70       1.0  0.5955415221971571  0.2854722982910626  0.7682034561254295  1.0000
  H   H71       1.0  0.5345416417765213  0.28062763731491336  0.711486704811103  1.0000
  H   H72       1.0  0.5664138302739041  0.30113753413450284  0.6708867428869008  1.0000
  C   C109      1.0  0.7500980757212584  0.44434599353284676  0.728081326941977  1.0000
  C   C110      1.0  0.7621300281080791  0.450016846694424  0.7005316044287305  1.0000
  C   C111      1.0  0.7801221023439968  0.47664497339711437  0.6929720963354551  1.0000
  C   C112      1.0  0.7859314921932496  0.49785077049532495  0.7126611456166901  1.0000
  C   C113      1.0  0.773636533012931  0.4922935450473849  0.7400990011592399  1.0000
  C   C114      1.0  0.7559174289101437  0.465547563154073  0.7478825796336387  1.0000
  H   H73       1.0  0.7577463159214671  0.433859462249587  0.6850860658903629  1.0000
  H   H74       1.0  0.7895227387456907  0.4807834498799936  0.6716990391928479  1.0000
  H   H75       1.0  0.7777225727106553  0.5085502819213076  0.7552277653666378  1.0000
  H   H76       1.0  0.7465131843827796  0.4612761816906322  0.769150590351468  1.0000
  C   C115      1.0  0.44222477705425045  0.3371711852043456  0.2057857992039643  1.0000
  C   C116      1.0  0.4393854281263718  0.3467836912664212  0.23308221714870034  1.0000
  C   C117      1.0  0.4378498475491306  0.33285046830817977  0.25915082255006205  1.0000
  C   C118      1.0  0.4393911192740409  0.3093306062688726  0.2582692549682194  1.0000
  C   C119      1.0  0.44272514516500966  0.2999101921079886  0.2310625973777103  1.0000
  C   C120      1.0  0.4441320575802716  0.3138185405282011  0.20490518130127466  1.0000
  H   H77       1.0  0.43823449506002277  0.36488761463958524  0.2341275546108589  1.0000
  H   H78       1.0  0.4354677854998846  0.3403708002759302  0.28016594376867326  1.0000
  H   H79       1.0  0.4436980353658798  0.2816679713493658  0.23008795819939074  1.0000
  H   H80       1.0  0.44623978752749943  0.3061984318984622  0.18382275745298604  1.0000
  C   C121      1.0  0.7552004415819118  0.6091317622054832  0.2210537471115532  1.0000
  C   C122      1.0  0.7479563240831815  0.6149619624554064  0.2481473132214734  1.0000
  C   C123      1.0  0.7289282263448443  0.6226715874279865  0.24917014148233835  1.0000
  C   C124      1.0  0.7167310043025981  0.6243627964890757  0.2231391584250035  1.0000
  C   C125      1.0  0.723505668036628  0.6179781848318453  0.1960050788413148  1.0000
  C   C126      1.0  0.7427820584826996  0.6104771928632688  0.1949870061732791  1.0000
  H   H81       1.0  0.7571399013267155  0.6138385820319561  0.26833465551860103  1.0000
  H   H82       1.0  0.723599758028865  0.6274113533737196  0.27022862801662034  1.0000
  H   H83       1.0  0.7142455633693195  0.6192943197139559  0.1757902397377281  1.0000
  H   H84       1.0  0.7482594507932276  0.6059950915969277  0.17388091608706874  1.0000
  C   C127      1.0  0.6998320955675508  0.3420786686317068  0.5061478615537837  1.0000
  C   C128      1.0  0.7207251027688913  0.3684882821312509  0.5054876473844662  1.0000
  C   C129      1.0  0.7295885223451705  0.38372666400074495  0.5318395074485438  1.0000
  C   C130      1.0  0.7173449593970345  0.37276548287054484  0.5587744602303979  1.0000
  C   C131      1.0  0.6957946306079764  0.3467423320405638  0.5590801598556094  1.0000
  C   C132      1.0  0.6873113864936007  0.3313078145617203  0.5329532126891705  1.0000
  H   H85       1.0  0.7304635863160178  0.3769561948779538  0.48485800872788604  1.0000
  H   H86       1.0  0.7461662003445784  0.4039474610395397  0.5314073489510012  1.0000
  H   H87       1.0  0.6856834659575399  0.33845307971707805  0.5794460409360215  1.0000
  H   H88       1.0  0.6709989432353558  0.31095829359358873  0.5335515052683214  1.0000
  C   C133      1.0  0.6020694037084307  0.3205234193985299  0.3565779194415631  1.0000
  C   C134      1.0  0.6052638632564399  0.3061465901329662  0.3336525579749283  1.0000
  C   C135      1.0  0.583549898803341  0.28809266276836015  0.31619042900862226  1.0000
  C   C136      1.0  0.5584275354438147  0.2837335797441488  0.322018613142723  1.0000
  C   C137      1.0  0.5551162179808373  0.29747694753038934  0.34558385939197933  1.0000
  C   C138      1.0  0.5769324706795502  0.31611808097952976  0.36246895759885334  1.0000
  H   H89       1.0  0.6245350245303212  0.3094210468816709  0.32888598807634206  1.0000
  H   H90       1.0  0.5862570972803859  0.2775466889980818  0.29797092858925617  1.0000
  H   H91       1.0  0.5358706799830206  0.29423774131912184  0.35033806188813854  1.0000
  H   H92       1.0  0.5743272040219616  0.3272598623945611  0.38009771331715114  1.0000
  C   C139      1.0  0.7613499976955209  0.4524564316144492  0.36193136370071993  1.0000
  C   C140      1.0  0.7839511072681397  0.4759819668022741  0.35320240397383273  1.0000
  C   C141      1.0  0.7825064994811954  0.49841501147453005  0.34355730736741064  1.0000
  C   C142      1.0  0.7584261997375171  0.49749857201312203  0.34280565167338733  1.0000
  C   C143      1.0  0.7357897753604205  0.473874372031573  0.3512576225413786  1.0000
  C   C144      1.0  0.7372039897105807  0.451367529545081  0.3606682146983642  1.0000
  H   H93       1.0  0.8027028997967226  0.4769816184669107  0.35418560832726786  1.0000
  H   H94       1.0  0.8000556507434128  0.5165164515088506  0.3371118532120863  1.0000
  H   H95       1.0  0.717110809000554  0.47304533814250094  0.35083080946381245  1.0000
  H   H96       1.0  0.7196920356369004  0.4333613132597262  0.367407186243214  1.0000
  C   C145      1.0  0.7837654325338295  0.286494053914785  0.34542097693457324  1.0000
  C   C146      1.0  0.7665853703356793  0.27592769273332957  0.32113565176395764  1.0000
  C   C147      1.0  0.7459672161712829  0.2813044044243423  0.31771984083991683  1.0000
  C   C148      1.0  0.7421632658453683  0.29704633303744504  0.33864519551510136  1.0000
  C   C149      1.0  0.7592569288203478  0.3074709039084876  0.36304554094735914  1.0000
  C   C150      1.0  0.7800292984470538  0.3022962712902893  0.3663350639779375  1.0000
  H   H97       1.0  0.7691482127243789  0.2636171854727034  0.304944827619457  1.0000
  H   H98       1.0  0.7327857970013814  0.27306756415202216  0.29884194275129977  1.0000
  H   H99       1.0  0.7565036764846358  0.3195013143974067  0.3793941413462742  1.0000
  H   H100      1.0  0.7932103909114124  0.31054120935323465  0.38519729325253105  1.0000
  C   C151      1.0  0.7900314955061046  0.29555368064276144  0.7222997629533934  1.0000
  C   C152      1.0  0.7852127852396276  0.31679137345320924  0.7268241600972689  1.0000
  C   C153      1.0  0.7641027873069259  0.31694706255006183  0.7123189438865267  1.0000
  C   C154      1.0  0.7477974897549896  0.2958584340569789  0.6931571966368607  1.0000
  C   C155      1.0  0.7530593732880434  0.2750092277350669  0.6880244305237275  1.0000
  C   C156      1.0  0.7741044577610005  0.2748446299656926  0.7025535788220437  1.0000
  H   H101      1.0  0.7975414591950318  0.33294328067718115  0.7419997031446134  1.0000
  H   H102      1.0  0.7601730795607307  0.3330975218626277  0.7163959481502289  1.0000
  H   H103      1.0  0.7405605616778407  0.2586942999045298  0.6731056495830083  1.0000
  H   H104      1.0  0.7779996337439155  0.2586877719678191  0.698501617891858  1.0000
  C   C157      1.0  0.959256975535522  0.3130779388646351  0.8180960804502235  1.0000
  C   C158      1.0  0.9439160986194893  0.31071185225785447  0.8424795306875122  1.0000
  C   C159      1.0  0.9173828658558463  0.2904886172152822  0.8427626872589861  1.0000
  C   C160      1.0  0.9058055737184341  0.2731820035620138  0.8182899801909114  1.0000
  C   C161      1.0  0.9208657538887803  0.2763567305520525  0.7934064540975762  1.0000
  C   C162      1.0  0.9475925584328467  0.29594849220033764  0.7935380168953491  1.0000
  H   H105      1.0  0.9526248905619865  0.3239972611389072  0.8613652173068269  1.0000
  H   H106      1.0  0.9057589891252575  0.2881746463054832  0.8620289122352391  1.0000
  H   H107      1.0  0.9121679011143016  0.26304204696437  0.7745143076184328  1.0000
  H   H108      1.0  0.9593627854195653  0.29768156108329286  0.7745989167481417  1.0000
  C   C163      1.0  0.1286640177508166  0.43517107923310594  0.8212866275764904  1.0000
  C   C164      1.0  0.11886938769535632  0.4076823366683729  0.8169227148313258  1.0000
  C   C165      1.0  0.1341571874084017  0.3987122760867747  0.8026635061631738  1.0000
  C   C166      1.0  0.15928728843868237  0.4171286325021152  0.7926659625424619  1.0000
  C   C167      1.0  0.16910315417707447  0.44459749862914427  0.79698061681295  1.0000
  C   C168      1.0  0.15382271436305886  0.4535498819922746  0.8112611622925231  1.0000
  H   H109      1.0  0.09949777897971235  0.39338474343575186  0.8244630895141958  1.0000
  H   H110      1.0  0.12644566016565978  0.3774181446546587  0.7994410529754375  1.0000
  H   H111      1.0  0.18842749826172384  0.4589865340437765  0.7893467178573663  1.0000
  H   H112      1.0  0.1614769400492141  0.4748460232827594  0.8145250174786672  1.0000
  C   C169      1.0  0.04528386651821139  0.5347236797559629  0.8894292506282967  1.0000
  C   C170      1.0  0.058007739305915726  0.5203894837657763  0.8826427922269973  1.0000
  C   C171      1.0  0.04408718545145014  0.49217240405395946  0.8816166524417344  1.0000
  C   C172      1.0  0.017410235106926037  0.47810426131371875  0.8879506563659506  1.0000
  C   C173      1.0  0.004669284781541494  0.49238687535970943  0.8948082068259675  1.0000
  C   C174      1.0  0.018522267078805887  0.5206246854383317  0.8953931611962057  1.0000
  H   H113      1.0  0.07869346781219336  0.5312001128062774  0.8779030197716406  1.0000
  H   H114      1.0  0.0540631056042212  0.4813656737193117  0.876083529054026  1.0000
  H   H115      1.0  0.9840249605617339  0.48161212282880944  0.8997002463950444  1.0000
  H   H116      1.0  0.00856613718385435  0.5314712847940302  0.9007146822821351  1.0000
  C   C175      1.0  0.9481774012307833  0.60181889688347  0.8256584825640224  1.0000
  C   C176      1.0  0.935517444348277  0.6000933313848  0.7985558552068187  1.0000
  C   C177      1.0  0.9126595365245892  0.601894004368127  0.7974951764520937  1.0000
  C   C178      1.0  0.9019910079330528  0.6050252002970666  0.8236365591874759  1.0000
  C   C179      1.0  0.9147448090074314  0.606898371833728  0.8507352264805784  1.0000
  C   C180      1.0  0.9378630418572546  0.6055112200683169  0.851759043440751  1.0000
  H   H117      1.0  0.9433933098632657  0.5972525548628828  0.7782637671492341  1.0000
  H   H118      1.0  0.9032340284475192  0.600616273243267  0.7764692494053871  1.0000
  H   H119      1.0  0.9066145024069983  0.609255648791059  0.8710904367129303  1.0000
  H   H120      1.0  0.9474174634838943  0.6068144979226971  0.8727779661682489  1.0000
  C   C181      1.0  0.10998797589694236  0.7043805261613743  0.8471313250425982  1.0000
  C   C182      1.0  0.11720853424580016  0.6855764980287004  0.8392037422837799  1.0000
  C   C183      1.0  0.13819763660045445  0.6928133990973614  0.8199327057724878  1.0000
  C   C184      1.0  0.15193037916715635  0.718747902849656  0.8081100107460306  1.0000
  C   C185      1.0  0.14422680118936376  0.7373520692741259  0.8153351653198903  1.0000
  C   C186      1.0  0.12350683103515703  0.7302683640276268  0.835045321041188  1.0000
  H   H121      1.0  0.10697475770180803  0.6655879209296316  0.8483598771157076  1.0000
  H   H122      1.0  0.14399322287402638  0.6782734395420313  0.8143914172172241  1.0000
  H   H123      1.0  0.15431891018129293  0.7571698632583218  0.8058186799200667  1.0000
  H   H124      1.0  0.11788817333185046  0.7448649831888838  0.8409135976366152  1.0000
  C   C187      1.0  0.04485298627827006  0.6410599962853857  0.06378540610495259  1.0000
  C   C188      1.0  0.017561634231722634  0.6253999251336744  0.0637731111930771  1.0000
  C   C189      1.0  0.0035183577483810513  0.6166193925410004  0.03686494787257599  1.0000
  C   C190      1.0  0.016629151865088954  0.6231411295403911  0.009783052497565725  1.0000
  C   C191      1.0  0.04393930959267019  0.6385119154631673  0.009817674540273602  1.0000
  C   C192      1.0  0.057978304553409424  0.6475456343132159  0.036747207057601296  1.0000
  H   H125      1.0  0.007213271711284497  0.6202382391755378  0.08438906113775893  1.0000
  H   H126      1.0  0.9823808161788341  0.6046887313897054  0.03693737097926464  1.0000
  H   H127      1.0  0.054215192693707365  0.6437789790372813  0.9890743236325465  1.0000
  H   H128      1.0  0.07909579080924321  0.659717726728583  0.03655150991586373  1.0000
  C   C193      1.0  0.9445505102693982  0.6271032622468997  0.21300211591564389  1.0000
  C   C194      1.0  0.945554306901935  0.6101583826233739  0.2343912898444316  1.0000
  C   C195      1.0  0.9259350624704961  0.5985141981195635  0.2557817333778176  1.0000
  C   C196      1.0  0.90504014441977  0.6035375174203651  0.25592793864265473  1.0000
  C   C197      1.0  0.9040165743767442  0.6205798586831113  0.23464168920338083  1.0000
  C   C198      1.0  0.9237464146792023  0.6323372934494277  0.21326807398839306  1.0000
  H   H129      1.0  0.9614069345267005  0.60593597476077  0.23443893088619303  1.0000
  H   H130      1.0  0.9268791296356718  0.5853624326813235  0.2721682522327696  1.0000
  H   H131      1.0  0.8880106338762997  0.6245883767223301  0.23453484900038532  1.0000
  H   H132      1.0  0.9228009317722595  0.6453967587730782  0.1967795907197389  1.0000
  C   C199      1.0  0.16259450306424292  0.7412399406397638  0.23845518489018214  1.0000
  C   C200      1.0  0.15078724352189016  0.732962031444474  0.2660387123659869  1.0000
  C   C201      1.0  0.12626594106956823  0.7094235909628521  0.26823939908338296  1.0000
  C   C202      1.0  0.11297269369271212  0.6943938504808483  0.24285431627339008  1.0000
  C   C203      1.0  0.12437473306810652  0.7031179274659788  0.21516513445341137  1.0000
  C   C204      1.0  0.14917730348871347  0.7263599731384643  0.21303015897932776  1.0000
  H   H133      1.0  0.16056389669460924  0.7445265078525954  0.2857259268536167  1.0000
  H   H134      1.0  0.11743778052341816  0.7028864116581208  0.2896955795667307  1.0000
  H   H135      1.0  0.11430710673230654  0.6916770451734202  0.19547267387776454  1.0000
  H   H136      1.0  0.15810852372804005  0.7326744203518305  0.19159010730794407  1.0000
  C   C205      1.0  0.015203105687661802  0.38362625292788916  0.04245301258935505  1.0000
  C   C206      1.0  0.0019621888486653916  0.38051913617863975  0.015398589313242894  1.0000
  C   C207      1.0  0.012691365031736623  0.37841418759304424  0.9885831060047454  1.0000
  C   C208      1.0  0.036568493015425085  0.3789176274854032  0.9887273895772375  1.0000
  C   C209      1.0  0.04968665100158589  0.3817303634812845  0.015772093794319098  1.0000
  C   C210      1.0  0.03920467148846706  0.3843889187618625  0.042542738820560366  1.0000
  H   H137      1.0  0.9832680185449293  0.3796832598856149  0.01526310213789861  1.0000
  H   H138      1.0  0.002286918283640249  0.3759822439278757  0.9679223952610919  1.0000
  H   H139      1.0  0.06809982553216956  0.3819690405833546  0.016056167584233005  1.0000
  H   H140      1.0  0.04949151238336357  0.3866437526171523  0.0632780334556774  1.0000
  C   C211      1.0  0.050010408374250304  0.5056510969908229  0.16698063360888915  1.0000
  C   C212      1.0  0.024088151558467653  0.49225298748917984  0.15673862564968347  1.0000
  C   C213      1.0  0.008860696396390876  0.5045718006200338  0.15899570623646678  1.0000
  C   C214      1.0  0.019665017699851194  0.530597501407617  0.17076420721008145  1.0000
  C   C215      1.0  0.045991919840257856  0.5445902651078307  0.17953349298262328  1.0000
  C   C216      1.0  0.06111236163588529  0.532087558438685  0.17769472108017587  1.0000
  H   H141      1.0  0.015547076277512511  0.47213393489654165  0.14776351889752046  1.0000
  H   H142      1.0  0.9885420025893523  0.49378118971396223  0.15190701460959277  1.0000
  H   H143      1.0  0.05444588533116801  0.564653331062185  0.18872461557225506  1.0000
  H   H144      1.0  0.0812345859963588  0.5426173505133098  0.18549184323789167  1.0000
  C   C217      1.0  0.9017249773310031  0.2940693393478804  0.2274805637452029  1.0000
  C   C218      1.0  0.918707365452851  0.3003501305976109  0.20351739968073215  1.0000
  C   C219      1.0  0.9420353643722187  0.32532675917091797  0.20223296846979008  1.0000
  C   C220      1.0  0.948603917297436  0.3442196474802006  0.22500619419633852  1.0000
  C   C221      1.0  0.9316789283258633  0.337851606247271  0.24908292483844974  1.0000
  C   C222      1.0  0.9083015606040803  0.3129081571514641  0.25032215251677836  1.0000
  H   H145      1.0  0.9138070692494497  0.28589471424371304  0.1857541815376357  1.0000
  H   H146      1.0  0.954907102214681  0.3299941055094437  0.18359623658793703  1.0000
  H   H147      1.0  0.9366093045175469  0.35237477716266824  0.26677312293399685  1.0000
  H   H148      1.0  0.8953525731640001  0.3083671696624032  0.2688389453254765  1.0000
  C   C223      1.0  0.11618517749699404  0.4050958751292074  0.2035489561311363  1.0000
  C   C224      1.0  0.12265785482113761  0.4310297159584127  0.2123548891677525  1.0000
  C   C225      1.0  0.1442181268241512  0.4460820507711225  0.23148528184165842  1.0000
  C   C226      1.0  0.1593642484454283  0.43529901137767363  0.2421791392508406  1.0000
  C   C227      1.0  0.15272227706492855  0.40923373149223713  0.23369578598531524  1.0000
  C   C228      1.0  0.13132178653066015  0.3942870992048299  0.21430115182881188  1.0000
  H   H149      1.0  0.11122229861978777  0.4395997649384271  0.20411621176394798  1.0000
  H   H150      1.0  0.1491728194117346  0.46620591928131405  0.23791401352728292  1.0000
  H   H151      1.0  0.16395201360766415  0.40053179526655047  0.2421363736908816  1.0000
  H   H152      1.0  0.12628389747008623  0.3741565192392567  0.20774605510629562  1.0000
  C   C229      1.0  0.7128881966648367  0.08529897603240481  0.8210024829650167  1.0000
  C   C230      1.0  0.696735279004635  0.0964815777813908  0.81884295986474  1.0000
  C   C231      1.0  0.7068781535428654  0.12287403175844595  0.8086011167881811  1.0000
  C   C232      1.0  0.7331186483258971  0.13818447965591849  0.800064249692947  1.0000
  C   C233      1.0  0.7491812480638728  0.12686771053373602  0.801806189044838  1.0000
  C   C234      1.0  0.7390856110057049  0.10052487431184731  0.8122909286676462  1.0000
  H   H153      1.0  0.6764650719589235  0.08487819714714667  0.8252559879699866  1.0000
  H   H154      1.0  0.6942750882652902  0.13141700862906594  0.8071995278526389  1.0000
  H   H155      1.0  0.7694145825238371  0.1384755582392668  0.7952927567488852  1.0000
  H   H156      1.0  0.7517183114002208  0.0920267176138859  0.8138729836985619  1.0000
  C   C235      1.0  0.6112822238573208  0.9123518640838253  0.8380008247161125  1.0000
  C   C236      1.0  0.6090706081824867  0.922704970455698  0.8108920317928662  1.0000
  C   C237      1.0  0.6085582857598316  0.9096924302199693  0.784317404964769  1.0000
  C   C238      1.0  0.6097661603035742  0.8859643882673806  0.7845959300269861  1.0000
  C   C239      1.0  0.6111052244836427  0.8750727000459667  0.8117031727081607  1.0000
  C   C240      1.0  0.6119107261620678  0.8882857291482947  0.8383145708764765  1.0000
  H   H157      1.0  0.6080909709888541  0.9409358893063384  0.8103786357662927  1.0000
  H   H158      1.0  0.6074213189556884  0.918193297461987  0.7634212091331377  1.0000
  H   H159      1.0  0.6119990537694986  0.8567745340280917  0.8121831032507895  1.0000
  H   H160      1.0  0.6134985995594308  0.880073650330405  0.8592336668781011  1.0000
  C   C241      1.0  0.5439108082876006  0.010706600175554692  0.8639990547568307  1.0000
  C   C242      1.0  0.5280195801950958  0.021460262209759717  0.8561734491833407  1.0000
  C   C243      1.0  0.5040518962594748  0.0128585617825685  0.8702887309940444  1.0000
  C   C244      1.0  0.4956036957388562  0.9930380244305926  0.8919450565405269  1.0000
  C   C245      1.0  0.5114508708129663  0.9822539625393116  0.899744463303644  1.0000
  C   C246      1.0  0.5356080717051224  0.9911741584253618  0.8859701774782961  1.0000
  H   H161      1.0  0.5343536594391648  0.03660810761524358  0.8392229159337543  1.0000
  H   H162      1.0  0.4920633938951809  0.02141414144714071  0.8642046960955967  1.0000
  H   H163      1.0  0.5049823490079789  0.9668505870565307  0.9164043335590557  1.0000
  H   H164      1.0  0.5475624511957414  0.98259701600106  0.8919965951089165  1.0000
  C   C247      1.0  0.3384097018227592  0.9288368035427772  0.821497857697917  1.0000
  C   C248      1.0  0.32985872752072626  0.9114216223470897  0.7968669368416361  1.0000
  C   C249      1.0  0.3043529711188099  0.8891484215724766  0.7954066221481241  1.0000
  C   C250      1.0  0.2869900371679406  0.8842101784687294  0.8184593740495277  1.0000
  C   C251      1.0  0.2955887489444857  0.9014634191357503  0.8432967201946838  1.0000
  C   C252      1.0  0.3212713777917888  0.9236506902085497  0.8449084996668746  1.0000
  H   H165      1.0  0.3429330131877345  0.9153069547795963  0.7786205817914528  1.0000
  H   H166      1.0  0.29804155872037924  0.8760427150545733  0.7762107148004368  1.0000
  H   H167      1.0  0.2822770734849169  0.8978406348737837  0.8612062806981428  1.0000
  H   H168      1.0  0.32762254580673855  0.9369830823256501  0.8639445262959334  1.0000
  C   C253      1.0  0.44842897457031866  0.10595569364858326  0.8372596186193663  1.0000
  C   C254      1.0  0.4229458527126821  0.09356142621515155  0.8256541865631509  1.0000
  C   C255      1.0  0.4148305370575102  0.10837915697478526  0.8082966638153247  1.0000
  C   C256      1.0  0.4320521492370794  0.13566293040958022  0.802541341939786  1.0000
  C   C257      1.0  0.4574641280897048  0.14810506987101396  0.8143497165404805  1.0000
  C   C258      1.0  0.46559545187225354  0.13327132577152206  0.8316489873162798  1.0000
  H   H169      1.0  0.4095704243530413  0.07253639368389454  0.8298204762888918  1.0000
  H   H170      1.0  0.395124676617999  0.09862867139557939  0.7992543648370988  1.0000
  H   H171      1.0  0.4709032295479199  0.16908873537593594  0.8100061173240973  1.0000
  H   H172      1.0  0.4853635971392672  0.1429753464969253  0.8405156153567886  1.0000
  C   C259      1.0  0.6338966665883653  0.9954675586669738  0.05152906587101639  1.0000
  C   C260      1.0  0.647278327551748  0.023501089843686485  0.05066019297033281  1.0000
  C   C261      1.0  0.6522394081677375  0.03667028527921351  0.023328516724650195  1.0000
  C   C262      1.0  0.6438767207464084  0.02194204348304951  0.996685480035468  1.0000
  C   C263      1.0  0.6304381608748449  0.993904017313624  0.9975203022586631  1.0000
  C   C264      1.0  0.6255499153185896  0.9807316076752033  0.024882593656955464  1.0000
  H   H173      1.0  0.6539755399638277  0.03504227604317793  0.07100283439128795  1.0000
  H   H174      1.0  0.6627017504264867  0.058369741069557154  0.022832980974359707  1.0000
  H   H175      1.0  0.623959327215081  0.9823721957463329  0.9771116512521758  1.0000
  H   H176      1.0  0.615240871124034  0.9590199182748478  0.025389354514873497  1.0000
  C   C265      1.0  0.7193391652000963  0.09763425486463562  0.21119399707118608  1.0000
  C   C266      1.0  0.7440993271839508  0.11191346684609252  0.22497595714100932  1.0000
  C   C267      1.0  0.7525129844690069  0.13707357265748438  0.2384087999017645  1.0000
  C   C268      1.0  0.7363026800232653  0.14826274507443654  0.2377780304323948  1.0000
  C   C269      1.0  0.7115259079364652  0.13393258970684974  0.22408577489961462  1.0000
  C   C270      1.0  0.7029790265196731  0.10862360574725893  0.21099276566577552  1.0000
  H   H177      1.0  0.7568372312561199  0.10349406326943046  0.2252188249582585  1.0000
  H   H178      1.0  0.771586539783837  0.1478623084443901  0.24900286623926268  1.0000
  H   H179      1.0  0.6988758622475939  0.1424600350665456  0.2235265538821434  1.0000
  H   H180      1.0  0.6838712957458087  0.09778782217103063  0.20042303930526498  1.0000
  C   C271      1.0  0.6300185864335294  0.8924286295670304  0.23925875327504728  1.0000
  C   C272      1.0  0.6346270321834618  0.9072598805674535  0.21320432215619242  1.0000
  C   C273      1.0  0.6282038609332379  0.9276283382338405  0.2112071409770632  1.0000
  C   C274      1.0  0.6171754535309483  0.9333373469422007  0.23534263305187497  1.0000
  C   C275      1.0  0.6129020467159206  0.9187708519983571  0.26156406307131186  1.0000
  C   C276      1.0  0.6194073677063  0.8984572514364186  0.26357163801563727  1.0000
  H   H181      1.0  0.6428989431711846  0.9027381904979473  0.19432287896334435  1.0000
  H   H182      1.0  0.631475196444314  0.9386268439135197  0.19084100744835933  1.0000
  H   H183      1.0  0.6045438824019983  0.923225717441449  0.28040251918410036  1.0000
  H   H184      1.0  0.6163394483858289  0.8875534734057625  0.2839535971280267  1.0000
  C   C277      1.0  0.42116130364240933  0.018968202169252546  0.05086699054655394  1.0000
  C   C278      1.0  0.40111893962474765  0.025170397131363265  0.049972461289261694  1.0000
  C   C279      1.0  0.3887782068981305  0.02432677410880757  0.022780650181521533  1.0000
  C   C280      1.0  0.3965874709754508  0.017542292131858872  0.9964188364598027  1.0000
  C   C281      1.0  0.4167744109802887  0.011651186199137298  0.9973833906449205  1.0000
  C   C282      1.0  0.4289625639293761  0.012351894930714868  0.0244750981198969  1.0000
  H   H185      1.0  0.39536015647597966  0.030884448305654733  0.07008158996095443  1.0000
  H   H186      1.0  0.3732989619493367  0.029135958686887342  0.02210137706207993  1.0000
  H   H187      1.0  0.4229069928032379  0.006308804371748078  0.97727034252902  1.0000
  H   H188      1.0  0.4444722260367237  0.0075657951665013545  0.024967787239883483  1.0000
  C   C283      1.0  0.5056324818066606  0.010015464995786648  0.19296444203292085  1.0000
  C   C284      1.0  0.523672340492608  0.00324431062552688  0.20453532015410078  1.0000
  C   C285      1.0  0.5489750580337681  0.014584848858881783  0.19284172531007554  1.0000
  C   C286      1.0  0.5564672439214092  0.03319572939477151  0.16994582141382977  1.0000
  C   C287      1.0  0.5384453720453366  0.03990265798488002  0.1583706889350684  1.0000
  C   C288      1.0  0.5130202001456804  0.028014703645187655  0.16948676754519007  1.0000
  H   H189      1.0  0.5180812486364713  0.989228911800365  0.22261892713826642  1.0000
  H   H190      1.0  0.5627744693642474  0.009263635097416676  0.20187162771842052  1.0000
  H   H191      1.0  0.5440452767102214  0.05407968058063073  0.1404477739987593  1.0000
  H   H192      1.0  0.4991594479368891  0.032715173567452904  0.15970414950937845  1.0000
  C   C289      1.0  0.44128147500551274  0.11381698538723208  0.2257935483813241  1.0000
  C   C290      1.0  0.457920787988169  0.140308251280629  0.2357333918269109  1.0000
  C   C291      1.0  0.4480568336704495  0.15419578512072096  0.2517652890984111  1.0000
  C   C292      1.0  0.42137384876459266  0.14173117650409914  0.25786208791080667  1.0000
  C   C293      1.0  0.40472640752981676  0.11515540111297064  0.24812987228984032  1.0000
  C   C294      1.0  0.4146296616403325  0.10119520542263995  0.2322027760368489  1.0000
  H   H193      1.0  0.478541160100316  0.15026886089102778  0.2308075139141464  1.0000
  H   H194      1.0  0.46106155802974585  0.174647215210122  0.2591060737312086  1.0000
  H   H195      1.0  0.3840464169061212  0.10540467186367265  0.2526804406031978  1.0000
  H   H196      1.0  0.4016280843986524  0.08084132530116196  0.22459912562749065  1.0000
  C   C295      1.0  0.33962643609792914  0.9374902751464422  0.21429583581062653  1.0000
  C   C296      1.0  0.3133138171953781  0.9174566527262785  0.21752504309517048  1.0000
  C   C297      1.0  0.30644053430939155  0.8955529488671077  0.23639915533149145  1.0000
  C   C298      1.0  0.32587415730816777  0.8936050759003953  0.25223705964455123  1.0000
  C   C299      1.0  0.3521566592274406  0.9135872664950214  0.24892811134990758  1.0000
  C   C300      1.0  0.3590319627526013  0.9354484841429419  0.2300362355032502  1.0000
  H   H197      1.0  0.29821547553052835  0.9188216292931374  0.2052509928723367  1.0000
  H   H198      1.0  0.28617948525138764  0.8800413751359779  0.2384020974297261  1.0000
  H   H199      1.0  0.3673310689962185  0.9122073052623257  0.26100853961653964  1.0000
  H   H200      1.0  0.3793659325621061  0.9507255887670347  0.22766703042650002  1.0000
  C   C301      1.0  0.8613764027488359  0.7008449184318646  0.6181648805487691  1.0000
  C   C302      1.0  0.8827436240085487  0.6971479698641118  0.6140593412851892  1.0000
  C   C303      1.0  0.8884610495966498  0.6826812218930005  0.6348456090038344  1.0000
  C   C304      1.0  0.8725778500508211  0.6713663293080597  0.659567749358745  1.0000
  C   C305      1.0  0.8508264418742537  0.6744797559124542  0.6633569041126303  1.0000
  C   C306      1.0  0.8453611466501408  0.6893592408699969  0.6427813782558691  1.0000
  H   H201      1.0  0.8950083399248474  0.7056100070796261  0.5950320633907088  1.0000
  H   H202      1.0  0.9051691844401669  0.6800866107811765  0.6316693557689095  1.0000
  H   H203      1.0  0.8384444089260036  0.6657705425599394  0.6823519247800981  1.0000
  H   H204      1.0  0.8287687523701424  0.6921130874313636  0.6461164513628316  1.0000
  C   C307      1.0  0.8773358563308964  0.6882691359745093  0.4322261456429817  1.0000
  C   C308      1.0  0.8712452138943343  0.7055753392793914  0.4170515025271378  1.0000
  C   C309      1.0  0.85817579900163  0.6977644581572108  0.3894640165470353  1.0000
  C   C310      1.0  0.8508372451391889  0.6725199524908239  0.3771208383045338  1.0000
  C   C311      1.0  0.8562964508424451  0.6549327943509742  0.39265602595890026  1.0000
  C   C312      1.0  0.869749367909714  0.6629089270279858  0.41999360701300525  1.0000
  H   H205      1.0  0.877073755799214  0.7251687644377877  0.4263131639979403  1.0000
  H   H206      1.0  0.8539097348333807  0.7114329936271119  0.3776210491398484  1.0000
  H   H207      1.0  0.8500998081425324  0.635204273136407  0.3836687066918345  1.0000
  H   H208      1.0  0.8741796952890417  0.6493551683088612  0.4318502084567752  1.0000
  C   C313      1.0  0.7040164198057649  0.8629313742190812  0.6055169821221519  1.0000
  C   C314      1.0  0.7127659006812396  0.8454085600760624  0.6139829933224871  1.0000
  C   C315      1.0  0.7013221878776381  0.8281891934155864  0.6381856958856249  1.0000
  C   C316      1.0  0.6809917975051342  0.8282537709992741  0.6539465291089754  1.0000
  C   C317      1.0  0.67214231653183  0.8456239664063302  0.6452500568811005  1.0000
  C   C318      1.0  0.6836226563415958  0.8628787801098993  0.6211655095159849  1.0000
  H   H209      1.0  0.7284544985824263  0.8452666953169856  0.6020639790094616  1.0000
  H   H210      1.0  0.7083400416492648  0.81487052187448  0.6448026469123662  1.0000
  H   H211      1.0  0.6566186638292492  0.8459752480649559  0.657237100652294  1.0000
  H   H212      1.0  0.6767308660854373  0.8763565469858657  0.6147373235055462  1.0000
  C   C319      1.0  0.7077184015370714  0.8462082047828534  0.427626605253643  1.0000
  C   C320      1.0  0.7010265931469385  0.8656645052661148  0.4344075962668698  1.0000
  C   C321      1.0  0.6785197466480415  0.8641048463128663  0.42142726072584  1.0000
  C   C322      1.0  0.6629449247364414  0.8434660628243144  0.40114692131745183  1.0000
  C   C323      1.0  0.6697085717275166  0.8240739882221144  0.3943811052447123  1.0000
  C   C324      1.0  0.6918506862414757  0.8253225116844612  0.407851744526665  1.0000
  H   H213      1.0  0.7132343840849789  0.8819560413516222  0.44947974117990086  1.0000
  H   H214      1.0  0.6733538427785196  0.8791608630692911  0.42675395781894754  1.0000
  H   H215      1.0  0.6574195517211007  0.8077504632176409  0.3793960255824533  1.0000
  H   H216      1.0  0.6966047509504383  0.8098742164890411  0.4033325831694093  1.0000
  C   C325      1.0  0.856095343993078  0.8166892501777556  0.5041643758270573  1.0000
  C   C326      1.0  0.8394456218968539  0.8236480796434357  0.4891017538854317  1.0000
  C   C327      1.0  0.8267347477023435  0.8351093196955982  0.5043597717967361  1.0000
  C   C328      1.0  0.8307777323493613  0.8399354317916925  0.5348408988629495  1.0000
  C   C329      1.0  0.8476133498879624  0.8332085916843734  0.5498524538600165  1.0000
  C   C330      1.0  0.8602388578500347  0.8216541680781333  0.5346090123900131  1.0000
  H   H217      1.0  0.8361720975797914  0.8199108183670565  0.4655203059005376  1.0000
  H   H218      1.0  0.8138424290146423  0.8402164422396622  0.4925209789133372  1.0000
  H   H219      1.0  0.851063743270678  0.8371534562112627  0.5733842695111949  1.0000
  H   H220      1.0  0.8733135779548196  0.8167578701461128  0.5463472432634756  1.0000
  C   C331      1.0  0.18103553019906043  0.8691701149351354  0.630855780990695  1.0000
  C   C332      1.0  0.18706812469070852  0.8703876041935017  0.661212121191795  1.0000
  C   C333      1.0  0.19462546837465525  0.8528015776847085  0.6735091999888791  1.0000
  C   C334      1.0  0.19602009962431247  0.8338090215770066  0.6554640852311918  1.0000
  C   C335      1.0  0.19013622848790168  0.8327579021042057  0.6251166474489885  1.0000
  C   C336      1.0  0.18276644118876612  0.8504030257264772  0.6128236608925766  1.0000
  H   H221      1.0  0.18573274991489355  0.8848402517272779  0.6752987541962149  1.0000
  H   H222      1.0  0.19909010063029192  0.8537491855581795  0.6969132255508199  1.0000
  H   H223      1.0  0.19110532616544887  0.8180946161135645  0.6110218145949916  1.0000
  H   H224      1.0  0.1781733536993365  0.8492897309081182  0.5894339980069334  1.0000
  C   C337      1.0  0.19210394549474646  0.8466780485785811  0.4454980908785909  1.0000
  C   C338      1.0  0.19568786853526177  0.8687925206830244  0.4291013162602156  1.0000
  C   C339      1.0  0.20391333007617818  0.8716542706773254  0.39957959989100766  1.0000
  C   C340      1.0  0.2088559075672129  0.852602431597327  0.3863193764116553  1.0000
  C   C341      1.0  0.20540751561783094  0.8305536638631119  0.4027348092886144  1.0000
  C   C342      1.0  0.19695131042668476  0.827571368907957  0.43219125106649847  1.0000
  H   H225      1.0  0.1922005102849114  0.8837368845488097  0.4391605711242296  1.0000
  H   H226      1.0  0.20654531361117065  0.8887739144692732  0.38703332867572815  1.0000
  H   H227      1.0  0.20914787303220592  0.8157533710020843  0.3927358687488313  1.0000
  H   H228      1.0  0.1942405331853255  0.810423966977286  0.4447615229045673  1.0000
  C   C343      1.0  0.05637822843917041  0.8465143973933202  0.5110042693042571  1.0000
  C   C344      1.0  0.033072610834006685  0.8357321751612327  0.4941410083325734  1.0000
  C   C345      1.0  0.008504868214180172  0.8213811487947877  0.5077169707792506  1.0000
  C   C346      1.0  0.007041138475132991  0.8178481628347596  0.5383787700873259  1.0000
  C   C347      1.0  0.030354820252041614  0.8284626411025058  0.5552162893510691  1.0000
  C   C348      1.0  0.05492665243686469  0.8426312789923124  0.5416069015839021  1.0000
  H   H229      1.0  0.034001699092648524  0.8387375128024996  0.4704752234089676  1.0000
  H   H230      1.0  0.9907302257705011  0.8134008477840664  0.4945198755513005  1.0000
  H   H231      1.0  0.02944687976360072  0.8258627979184667  0.5789402864675571  1.0000
  H   H232      1.0  0.07271044710772805  0.8508470375790215  0.5548306711538776  1.0000
  C   C349      1.0  0.8802932098997225  0.20125673789193824  0.43259015296791953  1.0000
  C   C350      1.0  0.869682576653824  0.17561921813395956  0.420048168080816  1.0000
  C   C351      1.0  0.8577329253786746  0.17022523090549613  0.3918151992620446  1.0000
  C   C352      1.0  0.8561481620468172  0.19032279323692633  0.37605012643041363  1.0000
  C   C353      1.0  0.8670115833003135  0.21605730571375265  0.38840894507774654  1.0000
  C   C354      1.0  0.879002130434674  0.22147335380884844  0.4166244038367915  1.0000
  H   H233      1.0  0.8706320058150815  0.15993098984758541  0.4321276584539962  1.0000
  H   H234      1.0  0.8495268068336004  0.1503018258180151  0.38227591815375184  1.0000
  H   H235      1.0  0.8663093270090324  0.23176666269779886  0.37618098944894746  1.0000
  H   H236      1.0  0.8874582137668293  0.24141339774839532  0.42615840977234826  1.0000
  C   C355      1.0  0.8889963977337385  0.1894988751078321  0.626359060571175  1.0000
  C   C356      1.0  0.8670043600957097  0.18590198971734764  0.6105520200414465  1.0000
  C   C357      1.0  0.8472270386380781  0.18799741386039429  0.6251263827762752  1.0000
  C   C358      1.0  0.8494235778524648  0.19412075456130362  0.6555102577030929  1.0000
  C   C359      1.0  0.8716405450514256  0.19818935289638676  0.6712686576628222  1.0000
  C   C360      1.0  0.8913231884243411  0.19577971341166403  0.6567192307981615  1.0000
  H   H237      1.0  0.8652792013879819  0.18165347310110888  0.5870747224906622  1.0000
  H   H238      1.0  0.8301719905827607  0.18502808194883905  0.6127801353153405  1.0000
  H   H239      1.0  0.8734664735290238  0.2028263155132876  0.6946951026065127  1.0000
  H   H240      1.0  0.908310686970782  0.19864388476973124  0.6691064844864175  1.0000
  C   C361      1.0  0.8410199561087895  0.04921817353383248  0.5180617940037778  1.0000
  C   C362      1.0  0.8168815558759667  0.025576139694809114  0.5221863893552956  1.0000
  C   C363      1.0  0.814465417710976  7.756878405773548e-05  0.5187584996649094  1.0000
  C   C364      1.0  0.836197078955477  0.997974631313229  0.5109966021870986  1.0000
  C   C365      1.0  0.8603667680060844  0.021623524041862963  0.507042288124112  1.0000
  C   C366      1.0  0.8628175372747829  0.04712060030864796  0.5106360443529632  1.0000
  H   H241      1.0  0.799868078781869  0.026949123663600527  0.5278086532365177  1.0000
  H   H242      1.0  0.7957485163933262  0.9820746778107408  0.521805887481084  1.0000
  H   H243      1.0  0.8772872689770664  0.020249659345258797  0.5009611766762796  1.0000
  H   H244      1.0  0.8814863454213497  0.0651154134326495  0.5073193917391041  1.0000
  C   C367      1.0  0.20267627224268203  0.3576865707805931  0.4423393913875879  1.0000
  C   C368      1.0  0.19936105362776893  0.3358099596470995  0.4254382220704611  1.0000
  C   C369      1.0  0.20059028863726017  0.3375399185922205  0.39438949849527594  1.0000
  C   C370      1.0  0.20509961478944946  0.36107786096409583  0.38011475406750767  1.0000
  C   C371      1.0  0.2074275187760194  0.3825525400144345  0.3969947688654127  1.0000
  C   C372      1.0  0.20621667738022462  0.38082452370013437  0.4280215883090309  1.0000
  H   H245      1.0  0.1966048055625497  0.31786849527529004  0.43629380887665636  1.0000
  H   H246      1.0  0.19862966684811986  0.32079440267466197  0.3813990423546326  1.0000
  H   H247      1.0  0.2102915782773669  0.40050836843328314  0.3861457811587534  1.0000
  H   H248      1.0  0.20814086339346327  0.3975174082633517  0.4410628032908338  1.0000
  C   C373      1.0  0.20386225251955725  0.340283004014859  0.6328283594837144  1.0000
  C   C374      1.0  0.20854448546501264  0.34562854233624846  0.663311365049196  1.0000
  C   C375      1.0  0.22537454595027556  0.3719376058434625  0.6738184095313619  1.0000
  C   C376      1.0  0.23781877304448074  0.39302138800104564  0.6538368005390198  1.0000
  C   C377      1.0  0.2333665207879131  0.3875883727397947  0.6233496942058468  1.0000
  C   C378      1.0  0.21631677983450737  0.3613508478675573  0.6128565960659482  1.0000
  H   H249      1.0  0.1991639465487941  0.32936081572361847  0.6788569391049586  1.0000
  H   H250      1.0  0.22899183770588405  0.37586132581293535  0.6973124674099471  1.0000
  H   H251      1.0  0.24301190662552505  0.40380319945395576  0.6077678839692727  1.0000
  H   H252      1.0  0.21292825024425768  0.3574495042539603  0.589310136252149  1.0000
  C   C379      1.0  0.05745838164740422  0.2396746762397676  0.5149973030941193  1.0000
  C   C380      1.0  0.055654801432367174  0.21460804271601516  0.5172666714094826  1.0000
  C   C381      1.0  0.031039770205552708  0.19094748753046564  0.5149751373368231  1.0000
  C   C382      1.0  0.008064524977628329  0.19213941710814125  0.510596346361984  1.0000
  C   C383      1.0  0.009924320718761148  0.217228496144643  0.5082831579003592  1.0000
  C   C384      1.0  0.034499726748105454  0.24085719649053527  0.5104696893792973  1.0000
  H   H253      1.0  0.07317936180184743  0.21340646487628287  0.5206506415026806  1.0000
  H   H254      1.0  0.02978160847886735  0.17159798596674347  0.5166269069788698  1.0000
  H   H255      1.0  0.9924545268955023  0.21840186051049384  0.50437113928024  1.0000
  H   H256      1.0  0.03571365339174809  0.2601586207240878  0.5085361940947716  1.0000
  C   C385      1.0  0.36394485999547993  0.181243276513776  0.6291095989801967  1.0000
  C   C386      1.0  0.3836649174607771  0.20103145418524151  0.6118791922370566  1.0000
  C   C387      1.0  0.4081835402258877  0.21899860608967048  0.6248548880718268  1.0000
  C   C388      1.0  0.4129867701992329  0.21740996090858208  0.6550847753598882  1.0000
  C   C389      1.0  0.3928922029457852  0.19836150082364115  0.6724778550936287  1.0000
  C   C390      1.0  0.36858491666774573  0.18019148944483385  0.6594664144198997  1.0000
  H   H257      1.0  0.3802987361355264  0.20190069752472703  0.5884248330009121  1.0000
  H   H258      1.0  0.4236297602421334  0.23376012600458793  0.6112506942042657  1.0000
  H   H259      1.0  0.3961730446117412  0.19722183610725524  0.6958111055420175  1.0000
  H   H260      1.0  0.3532563968477735  0.1650881502825761  0.6729102980955537  1.0000
  C   C391      1.0  0.3568818777958732  0.18537370112645055  0.443081042328875  1.0000
  C   C392      1.0  0.3778665786010211  0.1892206927367634  0.4611413844972223  1.0000
  C   C393      1.0  0.40315879478183947  0.2006200705527443  0.4493279903741368  1.0000
  C   C394      1.0  0.40765070218423904  0.2085186147158113  0.41957134548724306  1.0000
  C   C395      1.0  0.38677477552200124  0.20549951608187988  0.4019003427781108  1.0000
  C   C396      1.0  0.36147053016066366  0.19365448794940315  0.4134958571190056  1.0000
  H   H261      1.0  0.37452479240888664  0.18288535883016893  0.4839735721461958  1.0000
  H   H262      1.0  0.4192379559757971  0.20300792685856003  0.46321134693997357  1.0000
  H   H263      1.0  0.39002723056254124  0.21195495853329746  0.37916120052094426  1.0000
  H   H264      1.0  0.3453405247878273  0.19078687796221364  0.39940095568601686  1.0000
  C   C397      1.0  0.22300155426184695  0.05192906287349736  0.5316760559229721  1.0000
  C   C398      1.0  0.1991799578787402  0.027850726903907115  0.5353115074675046  1.0000
  C   C399      1.0  0.1965819370830513  0.002970734764797589  0.5272375920048586  1.0000
  C   C400      1.0  0.217868493023011  0.00199961555196837  0.515472271393176  1.0000
  C   C401      1.0  0.2416475261749294  0.02606810967486628  0.5118011561362625  1.0000
  C   C402      1.0  0.24425439577481547  0.050905879156234124  0.5199408218297805  1.0000
  H   H265      1.0  0.18259368152196837  0.028505858725205373  0.544176054008398  1.0000
  H   H266      1.0  0.178047898237291  0.9846435804937044  0.5297835634036405  1.0000
  H   H267      1.0  0.2581925317559686  0.025516612104228953  0.5026488368281692  1.0000
  H   H268      1.0  0.2626361087474581  0.06927460862798614  0.5169038799836091  1.0000
  C   C403      1.0  0.2516430055777288  0.2219796320549024  0.5359095220926237  1.0000
  C   C404      1.0  0.2280272673172737  0.19878537893320292  0.528693038544924  1.0000
  C   C405      1.0  0.20571901651820232  0.20059313308009885  0.521516651196861  1.0000
  C   C406      1.0  0.20680099445726455  0.2255322153616206  0.5215277535422622  1.0000
  C   C407      1.0  0.23056650104875143  0.24876797667397313  0.5281717911113301  1.0000
  C   C408      1.0  0.25282510085900584  0.24695689032865092  0.5354938394504267  1.0000
  H   H269      1.0  0.22688760941865918  0.17943571102335149  0.5288243992163593  1.0000
  H   H270      1.0  0.18742726182428238  0.18250020424816685  0.5162807494935405  1.0000
  H   H271      1.0  0.23180426589095002  0.2681363957298649  0.5276807606379081  1.0000
  H   H272      1.0  0.2711187739087971  0.2650307657104705  0.5407392295737062  1.0000
  N   N1        1.0  0.435835313837189  0.10271352085187035  0.9402234910748286  1.0000
  C   C409      1.0  0.43166853622587376  0.12519228175696062  0.9479806475357759  1.0000
  C   C410      1.0  0.41729042313368325  0.08643507248568127  0.9163207073469347  1.0000
  C   C411      1.0  0.43140432202513146  0.08575293167816955  0.9664796053301394  1.0000
  C   C412      1.0  0.46292463749480117  0.1134258736388345  0.9299748545378702  1.0000
  H   H273      1.0  0.43491655902455284  0.13832180060156274  0.9285465695445948  1.0000
  H   H274      1.0  0.4452921891838881  0.13790415066608808  0.9660194817805041  1.0000
  H   H275      1.0  0.4113285658280753  0.11770901360218122  0.9555837530659916  1.0000
  H   H276      1.0  0.42051396245781075  0.06986986783401727  0.9094559686404363  1.0000
  H   H277      1.0  0.39659255794622567  0.07714537653346643  0.9234262381237021  1.0000
  H   H278      1.0  0.4197952323475649  0.09856456803846081  0.8961758112066456  1.0000
  H   H279      1.0  0.43436171103167537  0.06856308095476571  0.961326026082265  1.0000
  H   H280      1.0  0.4110073592877663  0.07693020158085573  0.9745427319870031  1.0000
  H   H281      1.0  0.4449698768723834  0.09727496370598532  0.9850766105103528  1.0000
  H   H282      1.0  0.46671857042624915  0.12570919506040812  0.90965636719361  1.0000
  H   H283      1.0  0.4667507047894525  0.0969239455584694  0.924100888399581  1.0000
  H   H284      1.0  0.47756045234625744  0.1261219458985663  0.9472083870586135  1.0000
  N   N2        1.0  0.2869981482900402  0.43521714234801484  0.40907800012144774  1.0000
  C   C413      1.0  0.29747750563093883  0.4366343397668542  0.4393067083806  1.0000
  C   C414      1.0  0.30854746958665646  0.45305823987114485  0.3893954039526594  1.0000
  C   C415      1.0  0.26743576656414564  0.4439899669888003  0.40981926804455837  1.0000
  C   C416      1.0  0.2745232924935446  0.4072516640075529  0.39787089202954734  1.0000
  H   H285      1.0  0.3068559121615002  0.45742465856583814  0.4485290115358084  1.0000
  H   H286      1.0  0.31238117227162737  0.4302422586562049  0.43959121877429513  1.0000
  H   H287      1.0  0.2816678357287362  0.4233121086227929  0.4547055573230208  1.0000
  H   H288      1.0  0.3012493048290901  0.4526714551175431  0.3665077848885241  1.0000
  H   H289      1.0  0.3182390802084968  0.47435961125886206  0.3970806368746748  1.0000
  H   H290      1.0  0.3237269935427785  0.4471078407785651  0.38809952185641877  1.0000
  H   H291      1.0  0.25821404487290167  0.4419931866691567  0.3876261140552839  1.0000
  H   H292      1.0  0.2764753491513332  0.46546552808941855  0.4166361854811071  1.0000
  H   H293      1.0  0.25159809863455623  0.4319608131994089  0.4256167595875581  1.0000
  H   H294      1.0  0.2652869214711549  0.40507022928677333  0.3756281715768475  1.0000
  H   H295      1.0  0.25887656390351604  0.3931061473924328  0.4128803623770434  1.0000
  H   H296      1.0  0.288922125189058  0.4003136673431707  0.3958583378246078  1.0000
  N   N3        1.0  0.22114659172286993  0.4169804435171698  0.8601260995990992  1.0000
  C   C417      1.0  0.22446504978358653  0.4028058412867715  0.8347210810764172  1.0000
  C   C418      1.0  0.24672847348290478  0.4404817589689922  0.8684205582570509  1.0000
  C   C419      1.0  0.21084770769641434  0.3985439203200456  0.8854571185277883  1.0000
  C   C420      1.0  0.20253929919484806  0.42601105104752446  0.8518923432994798  1.0000
  H   H297      1.0  0.20551378094392875  0.38524934879911077  0.8273629279153035  1.0000
  H   H298      1.0  0.23845178707518083  0.39574891563362374  0.8400187239873568  1.0000
  H   H299      1.0  0.23249051425611117  0.4162376093106485  0.8154267229467261  1.0000
  H   H300      1.0  0.26144251321165063  0.43445295591900573  0.8740525931143205  1.0000
  H   H301      1.0  0.25501792107380716  0.4549058387523783  0.8498541391548624  1.0000
  H   H302      1.0  0.24512933413936994  0.4515804113763996  0.8876983395800805  1.0000
  H   H303      1.0  0.20800218612132365  0.40855313579713637  0.9050039718351952  1.0000
  H   H304      1.0  0.2244735263808255  0.39140656936588014  0.8922378183188497  1.0000
  H   H305      1.0  0.19160258647473638  0.38055063019605895  0.8798310413969772  1.0000
  H   H306      1.0  0.19958685348124894  0.43695519735619537  0.8703860044831139  1.0000
  H   H307      1.0  0.18303147918283708  0.4087865651708795  0.8454233046082014  1.0000
  H   H308      1.0  0.20954733575965412  0.4397515619148201  0.8326417060729033  1.0000
  N   N4        1.0  0.6314485309375306  0.7028133378118265  0.09184655178498646  1.0000
  C   C421      1.0  0.6048992061891949  0.6893019304173617  0.1043694067866272  1.0000
  C   C422      1.0  0.6324689695094227  0.6863127377184675  0.0673564051383082  1.0000
  C   C423      1.0  0.6506295817260024  0.7061626082783122  0.11513908237405479  1.0000
  C   C424      1.0  0.6378525860236648  0.7294577225046737  0.08061521459595866  1.0000
  H   H309      1.0  0.6035654956777513  0.7009551039382211  0.12332366342831369  1.0000
  H   H310      1.0  0.5995145000508776  0.6691281034358086  0.113106922212594  1.0000
  H   H311      1.0  0.5898418327810265  0.6864991537165118  0.08755098183417043  1.0000
  H   H312      1.0  0.6523430756931138  0.6957471437283622  0.05764357382594665  1.0000
  H   H313      1.0  0.6278181280535226  0.6660916056449298  0.07517213050190197  1.0000
  H   H314      1.0  0.6183268292320506  0.6833120921827749  0.04925124080754961  1.0000
  H   H315      1.0  0.650331040245671  0.7183011052769462  0.13420540144844084  1.0000
  H   H316      1.0  0.6708938397059047  0.715800721436566  0.106510634899452  1.0000
  H   H317      1.0  0.6461570217008795  0.6864593737148617  0.12414330679922436  1.0000
  H   H318      1.0  0.6578244469139558  0.7401582324076821  0.07112199208596115  1.0000
  H   H319      1.0  0.6372507819268888  0.7423575745981117  0.0986365415430166  1.0000
  H   H320      1.0  0.6237979240177535  0.7277063345657985  0.06293771605912091  1.0000
  N   N5        1.0  0.655927774917754  0.7392697282067411  0.7320301960834138  1.0000
  C   C425      1.0  0.6652225765282973  0.7660173128038508  0.7455418804393746  1.0000
  C   C426      1.0  0.6759515393740759  0.73139997196139  0.7366147790500953  1.0000
  C   C427      1.0  0.6512942588945668  0.7404035767905861  0.6999928431940227  1.0000
  C   C428      1.0  0.6312847787204001  0.7192924454251041  0.74599641247259  1.0000
  H   H321      1.0  0.6500873855243341  0.7720435591622529  0.7438280127240564  1.0000
  H   H322      1.0  0.682958356488286  0.7818524834945432  0.7343644811829187  1.0000
  H   H323      1.0  0.6702783061084627  0.7663781140433369  0.76935772986816  1.0000
  H   H324      1.0  0.6696040301881959  0.7112859001321988  0.726756076878554  1.0000
  H   H325      1.0  0.6948579474679357  0.7461127341023875  0.7264983941575873  1.0000
  H   H326      1.0  0.6797821590465222  0.7303049656967721  0.7606707183961139  1.0000
  H   H327      1.0  0.6363450063547087  0.7464138858946959  0.6959062847598597  1.0000
  H   H328      1.0  0.6443334663911771  0.7206582875552342  0.688915321929782  1.0000
  H   H329      1.0  0.6694208901369195  0.755545974692977  0.6887934303237513  1.0000
  H   H330      1.0  0.6228786154649497  0.6992150244166729  0.7352086866819029  1.0000
  H   H331      1.0  0.6161941108330339  0.725460571565014  0.7449148858842408  1.0000
  H   H332      1.0  0.6344758332676405  0.7166343416754074  0.7697377488040531  1.0000
  N   N6        1.0  0.7743107597690069  0.3841888053253587  0.3039293656690482  1.0000
  C   C429      1.0  0.7750902881416067  0.3774755944129847  0.3352888428926031  1.0000
  C   C430      1.0  0.7533850187046632  0.36040395908533296  0.288155827675243  1.0000
  C   C431      1.0  0.7997966107866564  0.392201973638573  0.29040193800222347  1.0000
  C   C432      1.0  0.7689462990943424  0.4066031989331551  0.30205167719877607  1.0000
  H   H333      1.0  0.790150061581251  0.3950678193291793  0.34825615773458235  1.0000
  H   H334      1.0  0.7791749219185112  0.3607071502590636  0.33771683968874283  1.0000
  H   H335      1.0  0.7560436962440232  0.3710571377266666  0.3458392496714646  1.0000
  H   H336      1.0  0.7522386608911754  0.3644949647474769  0.264330167756652  1.0000
  H   H337      1.0  0.7564924746129518  0.34289957991385206  0.2897535556070367  1.0000
  H   H338      1.0  0.7338734016069409  0.3538848710700464  0.29786125896327675  1.0000
  H   H339      1.0  0.8159513387697729  0.41001991223757506  0.3020078021921462  1.0000
  H   H340      1.0  0.7999633852942224  0.3974798925098075  0.2667080998282489  1.0000
  H   H341      1.0  0.8043696654412689  0.3756785784831777  0.2915611545387076  1.0000
  H   H342      1.0  0.7680985603465762  0.4122545189480539  0.2787402396596825  1.0000
  H   H343      1.0  0.7842367537926539  0.42481453554030396  0.31402115218407434  1.0000
  H   H344      1.0  0.7499740354136629  0.4013107199556066  0.3124418386802404  1.0000
  N   N7        1.0  0.42331015016470086  0.7002394864374023  0.4794830121110451  1.0000
  C   C433      1.0  0.41802936282774716  0.7194257964659851  0.463556301989282  1.0000
  C   C434      1.0  0.4355367597400035  0.6897832401548365  0.459115984483085  1.0000
  C   C435      1.0  0.39850977055223685  0.6776952975322676  0.49035004506195573  1.0000
  C   C436      1.0  0.4411215652467808  0.714084041955199  0.5048883498571245  1.0000
  H   H345      1.0  0.4360965408570806  0.7359217420395221  0.4536011548629078  1.0000
  H   H346      1.0  0.410090908442089  0.7288274643302328  0.4785434248789276  1.0000
  H   H347      1.0  0.40357992433182416  0.7093601681977119  0.4451882802924298  1.0000
  H   H348      1.0  0.4224441190102951  0.6792944302765865  0.4397497470735531  1.0000
  H   H349      1.0  0.4541489743527058  0.7063132599965973  0.4501480743190437  1.0000
  H   H350      1.0  0.4399567490887383  0.6753276455516098  0.47030975382048923  1.0000
  H   H351      1.0  0.38953127492614137  0.6847239034495223  0.5069647653709005  1.0000
  H   H352      1.0  0.40151372833706744  0.6621685517566441  0.5012730442651685  1.0000
  H   H353      1.0  0.3838732514107251  0.6677077640377084  0.47205546531944015  1.0000
  H   H354      1.0  0.45997101476348484  0.7313494823443295  0.49751367917270395  1.0000
  H   H355      1.0  0.44555517078240336  0.7002394048642341  0.5174732077420299  1.0000
  H   H356      1.0  0.4322503372651552  0.7220781787999734  0.5206882784369052  1.0000
  N   N8        1.0  0.5442126553780022  0.8373540550953912  0.24065826662381531  1.0000
  C   C437      1.0  0.5166997372849507  0.8168435468383892  0.23415381280205153  1.0000
  C   C438      1.0  0.551755055655892  0.8613992924467375  0.22247940488372916  1.0000
  C   C439      1.0  0.5612915344855398  0.8262701058244118  0.23367107475205062  1.0000
  C   C440      1.0  0.5471197178066387  0.8448029475740508  0.27238547394441354  1.0000
  H   H357      1.0  0.5104979549738891  0.7985566196716476  0.24779362291840304  1.0000
  H   H358      1.0  0.5138401813108273  0.8104338052037025  0.21050211912955555  1.0000
  H   H359      1.0  0.5032330094152592  0.8245357360344283  0.23903225697462352  1.0000
  H   H360      1.0  0.5726545984697679  0.8768745991620441  0.22626177443542078  1.0000
  H   H361      1.0  0.5493092580949004  0.8564280970151613  0.19841753978967963  1.0000
  H   H362      1.0  0.5398889245729589  0.8709005903290729  0.22775587056469385  1.0000
  H   H363      1.0  0.5556314093440887  0.807625214100715  0.2462453311780653  1.0000
  H   H364      1.0  0.5820570164990978  0.8407535152571546  0.23944390131515123  1.0000
  H   H365      1.0  0.5604240175222064  0.8213036317388603  0.2097356283029008  1.0000
  H   H366      1.0  0.567623242761286  0.8602142208416806  0.2781350239997094  1.0000
  H   H367      1.0  0.5417964174018243  0.8271278029623021  0.28671646515765703  1.0000
  H   H368      1.0  0.5344390065727632  0.853139470980373  0.2785334799207515  1.0000
  N   N9        1.0  0.832403864457051  0.5827671610850201  0.6285167616417214  1.0000
  C   C441      1.0  0.8511895457491574  0.5852941250059026  0.651936457345949  1.0000
  C   C442      1.0  0.8059554858911179  0.560699430435676  0.6358211915736642  1.0000
  C   C443      1.0  0.8403887293699505  0.5768450572814998  0.5999166717825349  1.0000
  C   C444      1.0  0.8321581396821499  0.6082404271969195  0.6263920151236804  1.0000
  H   H369      1.0  0.8713494771898875  0.6019310190889521  0.6474013463909856  1.0000
  H   H370      1.0  0.8517191744165311  0.5663620931227381  0.6545289022301616  1.0000
  H   H371      1.0  0.8457579041877936  0.5898193328546701  0.6737312460056329  1.0000
  H   H372      1.0  0.7912097719129129  0.5581257393452373  0.6186723616716381  1.0000
  H   H373      1.0  0.8055104121514902  0.5412104013143865  0.6379443891763473  1.0000
  H   H374      1.0  0.7993313501355331  0.5644160445360522  0.6573590971438987  1.0000
  H   H375      1.0  0.8266757647697434  0.5748806637583661  0.5817030696533533  1.0000
  H   H376      1.0  0.8407412415176203  0.5577145435306725  0.6008104344922784  1.0000
  H   H377      1.0  0.8603102072054233  0.5930832040331405  0.593808118514719  1.0000
  H   H378      1.0  0.817946194356318  0.6070751924880788  0.6092783892487815  1.0000
  H   H379      1.0  0.851782783238278  0.6252376023106945  0.620649557914966  1.0000
  H   H380      1.0  0.8267778044048931  0.6136419086951087  0.6478130681063912  1.0000
  N   N10       1.0  0.436064857910202  0.32922136876566527  0.9191800533577212  1.0000
  C   C445      1.0  0.44401103607606024  0.3119050242624098  0.9035947526897741  1.0000
  C   C446      1.0  0.40995111564103665  0.3230771305908024  0.9082583348977116  1.0000
  C   C447      1.0  0.45528822633109306  0.357672277189238  0.913471304596487  1.0000
  C   C448      1.0  0.4350137036603616  0.32436108606810427  0.9513666029997085  1.0000
  H   H381      1.0  0.4635232585856787  0.3157906546884927  0.9114523051380395  1.0000
  H   H382      1.0  0.4454444460451247  0.31556103464153046  0.8793047182209061  1.0000
  H   H383      1.0  0.4297029356314507  0.2902342205993287  0.9068335697890159  1.0000
  H   H384      1.0  0.4035223571422492  0.3360810781973043  0.9192881524539276  1.0000
  H   H385      1.0  0.40996776712914024  0.32635469391020133  0.8839932030982167  1.0000
  H   H386      1.0  0.39487029632017145  0.3018470162866509  0.9124826583243385  1.0000
  H   H387      1.0  0.45044017425417354  0.37138976530372697  0.9255852696998996  1.0000
  H   H388      1.0  0.45575507410560856  0.3623071996560664  0.8896138426840098  1.0000
  H   H389      1.0  0.47543720860087213  0.3628818855796784  0.9202900767722644  1.0000
  H   H390      1.0  0.42076038582433956  0.3030692028569705  0.9565719749424431  1.0000
  H   H391      1.0  0.4288904910601909  0.3371311337840698  0.9635622221555065  1.0000
  H   H392      1.0  0.45446493187114184  0.32914537785879505  0.9604649016939135  1.0000
  N   N11       1.0  0.7057768437005544  0.5281760936760131  0.26094253816053625  1.0000
  C   C449      1.0  0.7333700063680294  0.5387828449046916  0.2528110031584307  1.0000
  C   C450      1.0  0.6987321484520348  0.5492120124757262  0.25669508625003146  1.0000
  C   C451      1.0  0.7023099780193793  0.5200195761242247  0.2923165943406709  1.0000
  C   C452      1.0  0.688768346342466  0.5047029765447272  0.24195738786571958  1.0000
  H   H393      1.0  0.7367050266595134  0.5444291015891319  0.22903990841192404  1.0000
  H   H394      1.0  0.739809799279807  0.5239360638432081  0.25708786675105205  1.0000
  H   H395      1.0  0.7466130876410367  0.5571032748697698  0.265856934429514  1.0000
  H   H396      1.0  0.7025103612031667  0.5569956413754414  0.23364702455578162  1.0000
  H   H397      1.0  0.6777045380643125  0.541592495526079  0.2612217436265823  1.0000
  H   H398      1.0  0.7103014239697023  0.5666100474188349  0.2718446958281922  1.0000
  H   H399      1.0  0.7154571055075182  0.5371431807021614  0.307200329426309  1.0000
  H   H400      1.0  0.7071952694975641  0.5039482834294737  0.29631676658763806  1.0000
  H   H401      1.0  0.6818697045048006  0.5123815711939252  0.2995380746737258  1.0000
  H   H402      1.0  0.667796759969601  0.4959894567522862  0.247673352740583  1.0000
  H   H403      1.0  0.6938253186261276  0.4886106171197506  0.24443724514145404  1.0000
  H   H404      1.0  0.6907993359110313  0.5103217038073956  0.218164079613151  1.0000
  N   N12       1.0  0.20030269889165933  0.2410601940010138  0.6129295302244424  1.0000
  C   C453      1.0  0.21643737881669373  0.2497854601227197  0.6403321205370109  1.0000
  C   C454      1.0  0.17305986473695822  0.23342312089046763  0.61979078686466  1.0000
  C   C455      1.0  0.20077668101244625  0.21778952045403444  0.5997317743832798  1.0000
  C   C456      1.0  0.21092647188963334  0.263386923484472  0.5917054643900543  1.0000
  H   H405      1.0  0.23710319172450908  0.2556429697015634  0.6357937429612387  1.0000
  H   H406      1.0  0.2089347993962747  0.233496776383627  0.656997913863196  1.0000
  H   H407      1.0  0.2165878066479242  0.26748711310531537  0.6505871840679864  1.0000
  H   H408      1.0  0.16040751573181597  0.22654569387778883  0.5994969176932556  1.0000
  H   H409      1.0  0.1644105870061789  0.21682619582679338  0.6360432732300343  1.0000
  H   H410      1.0  0.17194730883963164  0.25074614162476994  0.6291481596206482  1.0000
  H   H411      1.0  0.19358598072986985  0.20074107634433716  0.6153806086859125  1.0000
  H   H412      1.0  0.22090764574328986  0.22308574215119362  0.5931353032910011  1.0000
  H   H413      1.0  0.18816496095855054  0.21031303700084586  0.5794329596431621  1.0000
  H   H414      1.0  0.19913755800760413  0.25739487433344443  0.5708233600041807  1.0000
  H   H415      1.0  0.23147066715252435  0.26978208647477164  0.5859265538030768  1.0000
  H   H416      1.0  0.21078915612255242  0.28129537527906323  0.6008079461453428  1.0000
  N   N13       1.0  0.48433329916479784  0.5049721429984396  0.09851320782962061  1.0000
  C   C457      1.0  0.5090592993033969  0.5300634727350955  0.10537303583293942  1.0000
  C   C458      1.0  0.4898203842454646  0.4829416185528687  0.09333420872757543  1.0000
  C   C459      1.0  0.47192387149748527  0.5085820027153999  0.07169979518936753  1.0000
  C   C460      1.0  0.4664459423568905  0.49822393819601357  0.12370615193174256  1.0000
  H   H417      1.0  0.5057871196779334  0.5472846180016386  0.10865027733520566  1.0000
  H   H418      1.0  0.523587650449416  0.535312565300489  0.08750926498752076  1.0000
  H   H419      1.0  0.5182681011391603  0.528199039361824  0.12614151107124622  1.0000
  H   H420      1.0  0.4715630238857164  0.4636681085729394  0.08824187790107706  1.0000
  H   H421      1.0  0.5032799964462535  0.4873238437854154  0.0745185264398846  1.0000
  H   H422      1.0  0.4990228314545113  0.4795124124166866  0.11313088512478123  1.0000
  H   H423      1.0  0.4671051545277924  0.5247454647578816  0.07494312655450737  1.0000
  H   H424      1.0  0.4532953554835166  0.4898128366315902  0.0659525045322185  1.0000
  H   H425      1.0  0.48489836463017383  0.513805170396598  0.05225170447358036  1.0000
  H   H426      1.0  0.44724146598069947  0.47998644026138554  0.11892935378375721  1.0000
  H   H427      1.0  0.4626585601294579  0.5147851126953444  0.12913015444041995  1.0000
  H   H428      1.0  0.474616180758414  0.4941446796968967  0.14399756705073316  1.0000
  N   N14       1.0  0.23424601810026538  0.5297158381085768  0.30755834450020064  1.0000
  C   C461      1.0  0.2462279339227246  0.5282009567514115  0.2796294576399716  1.0000
  C   C462      1.0  0.20896966829845745  0.5281233462305456  0.3009003987780513  1.0000
  C   C463      1.0  0.252019451253082  0.5553459809044778  0.3229708190471576  1.0000
  C   C464      1.0  0.22973809133028592  0.5070728098979193  0.32669803356168575  1.0000
  H   H429      1.0  0.2652598696315037  0.5291743386060893  0.2838211334231878  1.0000
  H   H430      1.0  0.24998692678946752  0.5450298101380778  0.26466516395778167  1.0000
  H   H431      1.0  0.23331506725027132  0.5090804018471874  0.26744996068218013  1.0000
  H   H432      1.0  0.1992632342569954  0.5289958187472067  0.3214848843468618  1.0000
  H   H433      1.0  0.21156677206695343  0.5448799909882247  0.286466810114479  1.0000
  H   H434      1.0  0.19520805519211815  0.5089376135398687  0.28919470704724975  1.0000
  H   H435      1.0  0.24362998831605376  0.55728870821892  0.34412486789133456  1.0000
  H   H436      1.0  0.25622806896175304  0.5729580452154673  0.30908227753688017  1.0000
  H   H437      1.0  0.2711386375733605  0.5569400661140953  0.32851439775157026  1.0000
  H   H438      1.0  0.22134583627044926  0.5078970595133907  0.3483107020370193  1.0000
  H   H439      1.0  0.24824491619226374  0.507155024532369  0.331467417186625  1.0000
  H   H440      1.0  0.21595756378317357  0.48742517087812104  0.3160458214488045  1.0000
  N   N15       1.0  0.20381656492933065  0.704247721517727  0.2763161920048876  1.0000
  C   C465      1.0  0.2022865718783689  0.7235156525577514  0.296586889221267  1.0000
  C   C466      1.0  0.2124802132408279  0.6880868815809316  0.2931823847175136  1.0000
  C   C467      1.0  0.22281562101097263  0.7191532733904298  0.25285849091198426  1.0000
  C   C468      1.0  0.17776375556033625  0.6864676372691353  0.26272654133779677  1.0000
  H   H441      1.0  0.1971374155250543  0.7369339559610357  0.2843801490788999  1.0000
  H   H442      1.0  0.22131859882949845  0.7365409357409323  0.3080317051350706  1.0000
  H   H443      1.0  0.1873647121189544  0.7132081291911928  0.31394650321298356  1.0000
  H   H444      1.0  0.2320005974684923  0.7010742344146934  0.3039430777171263  1.0000
  H   H445      1.0  0.1985573584845457  0.676704500066301  0.31110861111427957  1.0000
  H   H446      1.0  0.2141075262235746  0.6734100469858104  0.2786289797318049  1.0000
  H   H447      1.0  0.2243502579663144  0.7053046030029577  0.2368916341701702  1.0000
  H   H448      1.0  0.24268414812012848  0.7327487985221878  0.26235171100251975  1.0000
  H   H449      1.0  0.21696163142095776  0.7318726090320561  0.24001961621702025  1.0000
  H   H450      1.0  0.17794412443831473  0.6711692643214743  0.24783407406666083  1.0000
  H   H451      1.0  0.1710902236602637  0.6980761165368737  0.24918667679157785  1.0000
  H   H452      1.0  0.16261792586831997  0.6757235106198676  0.2797722702661646  1.0000
  N   N16       1.0  0.8041040609112822  0.743028666558958  0.556328884091462  1.0000
  C   C469      1.0  0.8063759852869179  0.7534046625921305  0.5259640482928996  1.0000
  C   C470      1.0  0.7815958654559397  0.7424248185353095  0.5709615890258611  1.0000
  C   C471      1.0  0.8282917669885232  0.7607426519727325  0.5733800987209606  1.0000
  C   C472      1.0  0.8001844117872665  0.7155982555992273  0.5550929581262747  1.0000
  H   H453      1.0  0.8238128762358683  0.7551909196882424  0.5146072794216662  1.0000
  H   H454      1.0  0.8084722268243105  0.7737147877926078  0.5260717576616124  1.0000
  H   H455      1.0  0.7888981813666592  0.7400781821574501  0.5120717486351333  1.0000
  H   H456      1.0  0.779431879157717  0.7348143842993254  0.5939839699448385  1.0000
  H   H457      1.0  0.783983112818616  0.7628726436474911  0.5722104174790401  1.0000
  H   H458      1.0  0.7629847587176581  0.7292245150251669  0.5587036274755489  1.0000
  H   H459      1.0  0.8458075751653376  0.7625254465192229  0.5623051528534396  1.0000
  H   H460      1.0  0.8278020473632286  0.7528410118759273  0.5959686923362343  1.0000
  H   H461      1.0  0.8312970774443227  0.7813005316565894  0.5759109173593111  1.0000
  H   H462      1.0  0.7821293824468123  0.701578613450627  0.5424215708510024  1.0000
  H   H463      1.0  0.798745423513525  0.7072847565246998  0.5776726574770702  1.0000
  H   H464      1.0  0.8169043389814065  0.7153987833298882  0.5443229815656183  1.0000
  N   N17       1.0  0.3579929210016263  0.3155226547484043  0.21997180769310856  1.0000
  C   C473      1.0  0.3739878728337332  0.3095962954001895  0.19980429794379226  1.0000
  C   C474      1.0  0.37533532829471955  0.3389959748596617  0.23878802995514786  1.0000
  C   C475      1.0  0.34240442240220115  0.29206912725858664  0.23893392560139906  1.0000
  C   C476      1.0  0.34031751760836004  0.32150726146921244  0.20241054141756865  1.0000
  H   H465      1.0  0.36162702210102576  0.2923578825264807  0.18478837245661578  1.0000
  H   H466      1.0  0.38729207632715557  0.30459787884592265  0.21230394711627962  1.0000
  H   H467      1.0  0.3864854827444011  0.32714163712209215  0.1856348531590208  1.0000
  H   H468      1.0  0.36396778479239744  0.3447350507693302  0.2535734062771309  1.0000
  H   H469      1.0  0.38859934080678155  0.3351055727594365  0.25287481130670436  1.0000
  H   H470      1.0  0.38774262933715126  0.35684768996417304  0.22510597583506703  1.0000
  H   H471      1.0  0.33017696802896296  0.29596882334834856  0.2544553159021534  1.0000
  H   H472      1.0  0.35527539526032315  0.28712845867639014  0.25247721625678804  1.0000
  H   H473      1.0  0.32911472861971275  0.2739507921557775  0.22546457706515124  1.0000
  H   H474      1.0  0.3283328927466121  0.3266664215004628  0.21691133078206815  1.0000
  H   H475      1.0  0.3267976734120047  0.3042651481824081  0.18800290549416765  1.0000
  H   H476      1.0  0.35155173254076766  0.3391306254849365  0.18787451222262225  1.0000
  N   N18       1.0  0.22357804939741852  0.9745755959374274  0.6031697805711433  1.0000
  C   C477      1.0  0.2235068573909932  0.9711439356827134  0.635572256956464  1.0000
  C   C478      1.0  0.2331939462767996  0.9582154757962594  0.5886874629846464  1.0000
  C   C479      1.0  0.24076016173481146  0.003142846153834755  0.5956610070986728  1.0000
  C   C480      1.0  0.19668044788029926  0.9656196541696095  0.5926250863493081  1.0000
  H   H477      1.0  0.21608831985051968  0.9829938949153608  0.6471742849188473  1.0000
  H   H478      1.0  0.24347874757959106  0.97764398896958  0.6443780755070703  1.0000
  H   H479      1.0  0.21067573482807467  0.9496515550771377  0.6416809222222919  1.0000
  H   H480      1.0  0.2333563723523525  0.9602270267819351  0.5641466724902399  1.0000
  H   H481      1.0  0.25343715552828694  0.9643244312920557  0.5960809205000069  1.0000
  H   H482      1.0  0.22054116070446142  0.9365077675216323  0.5937901251652596  1.0000
  H   H483      1.0  0.241371224035891  0.006125158681324905  0.5712780123757535  1.0000
  H   H484      1.0  0.2611994059940628  0.010764594105455938  0.6035371121152123  1.0000
  H   H485      1.0  0.23374001271388864  0.01606927383137635  0.6055437531857085  1.0000
  H   H486      1.0  0.19580988303429517  0.9664629384772295  0.5681029088954279  1.0000
  H   H487      1.0  0.1891646335566275  0.9783620126290721  0.6017428645094984  1.0000
  H   H488      1.0  0.18293160211219125  0.9445276995424112  0.5991442394462582  1.0000
  N   N19       1.0  0.25865268793260454  0.6123982928484867  0.6960235897774653  1.0000
  C   C481      1.0  0.24575482642320648  0.5831472841124791  0.7010209441837827  1.0000
  C   C482      1.0  0.2386264545224789  0.6203299049655339  0.6918757449921006  1.0000
  C   C483      1.0  0.2748477458517227  0.6192678532543902  0.6692492486739388  1.0000
  C   C484      1.0  0.2753696537938977  0.6269358681428139  0.7219451192102384  1.0000
  H   H489      1.0  0.26034576061183134  0.5764695601421881  0.7038610742016977  1.0000
  H   H490      1.0  0.23277723868647193  0.5715482253934763  0.6820336883762693  1.0000
  H   H491      1.0  0.2336706387026356  0.5772335214707103  0.7213066223458147  1.0000
  H   H492      1.0  0.22605464009017087  0.6155332537040077  0.7116591653982434  1.0000
  H   H493      1.0  0.24785682322044147  0.6423629582053402  0.6881348532094647  1.0000
  H   H494      1.0  0.22571348955363515  0.6099529448749621  0.6724012492416843  1.0000
  H   H495      1.0  0.29028167924063303  0.6137279436621562  0.671445712984784  1.0000
  H   H496      1.0  0.28484324306911857  0.641170992054683  0.6648588620475899  1.0000
  H   H497      1.0  0.26287669143892034  0.6087540526326297  0.6492364865301313  1.0000
  H   H498      1.0  0.2637893134187146  0.6221220350905605  0.7425435879835912  1.0000
  H   H499      1.0  0.28530569089972824  0.649067733273796  0.7190269686781894  1.0000
  H   H500      1.0  0.29091378133786494  0.6218117320621187  0.7256023455336281  1.0000
  N   N20       1.0  0.564417329830923  0.0018487269491922473  0.07461408549085456  1.0000
  C   C485      1.0  0.5908961699961358  0.024681489063314906  0.08100637643895943  1.0000
  C   C486      1.0  0.5534017741792658  0.007813011118103619  0.04811854249824985  1.0000
  C   C487      1.0  0.5474736572232665  0.997562270117519  0.10024200495143179  1.0000
  C   C488      1.0  0.5660093446832742  0.9774125000235713  0.06910285034283271  1.0000
  H   H501      1.0  0.6001472343252613  0.020314869366621968  0.10009336115990042  1.0000
  H   H502      1.0  0.5904032063532927  0.04322540886650129  0.0867635232943688  1.0000
  H   H503      1.0  0.6039722878521542  0.02918112840238644  0.06175786173398083  1.0000
  H   H504      1.0  0.5333347225525864  0.9910717851608714  0.04272125110936027  1.0000
  H   H505      1.0  0.5521661408660625  0.026296406186067565  0.051459152008928095  1.0000
  H   H506      1.0  0.5656991383096309  0.011000625683017295  0.028344479212281677  1.0000
  H   H507      1.0  0.5273788547529523  0.9802852897848158  0.09649674015673239  1.0000
  H   H508      1.0  0.5457637623075899  0.015601298381874074  0.10487800924262539  1.0000
  H   H509      1.0  0.5555555493009599  0.9935954498318049  0.12075754918008383  1.0000
  H   H510      1.0  0.546449229809258  0.9597337104704409  0.06403429881465422  1.0000
  H   H511      1.0  0.5742969285426278  0.9723489671126889  0.08865927740195863  1.0000
  H   H512      1.0  0.578934784044649  0.9801015894096143  0.050124623746028746  1.0000
  N   N21       1.0  0.7416420205286199  0.31487954583792804  0.5884397154236759  1.0000
  C   C489      1.0  0.7490656820749856  0.33838967495769057  0.6078137959510859  1.0000
  C   C490      1.0  0.7132828987117772  0.2957445033636331  0.5908400408956825  1.0000
  C   C491      1.0  0.7563655444364318  0.30161458115146644  0.5978151091082485  1.0000
  C   C492      1.0  0.747819655021007  0.3238250581036325  0.5574467867154801  1.0000
  H   H513      1.0  0.7700726602157913  0.3538657170954087  0.6057123061764439  1.0000
  H   H514      1.0  0.7455796692376461  0.3325862386261505  0.6314744332150867  1.0000
  H   H515      1.0  0.7375030100353527  0.34815930253471505  0.6022725827442126  1.0000
  H   H516      1.0  0.7069890075891131  0.27763499280201465  0.5766959211246998  1.0000
  H   H517      1.0  0.707849065163613  0.2888925820452864  0.6140367885447325  1.0000
  H   H518      1.0  0.7015599882449747  0.30504561857814677  0.5838912050216941  1.0000
  H   H519      1.0  0.7513910760148133  0.28381407807817294  0.5836467533742168  1.0000
  H   H520      1.0  0.7518602144731931  0.29458156620935533  0.6211339475037999  1.0000
  H   H521      1.0  0.7778519978357205  0.31559040730425436  0.596724113806132  1.0000
  H   H522      1.0  0.7419230507364977  0.30659973897947007  0.5419797493579472  1.0000
  H   H523      1.0  0.7690926933663741  0.3380777595929104  0.5547147851871245  1.0000
  H   H524      1.0  0.7373909665382148  0.3344455634690386  0.5500756775131348  1.0000
  N   N22       1.0  0.7898436914075689  0.21386834920766645  0.17571862737533034  1.0000
  C   C493      1.0  0.7695683426462205  0.2188562461169151  0.18795554067813652  1.0000
  C   C494      1.0  0.7880618540222093  0.1898684368236808  0.1897098940682915  1.0000
  C   C495      1.0  0.8159989382103221  0.23738643919208416  0.18184972492916204  1.0000
  C   C496      1.0  0.7857096327231822  0.20929458175800733  0.14342970022024604  1.0000
  H   H525      1.0  0.7728690496626263  0.2236661929622304  0.212051301254942  1.0000
  H   H526      1.0  0.7496543896782486  0.20086205890370956  0.1855255004600361  1.0000
  H   H527      1.0  0.7694188295768599  0.23602223497507438  0.17697143636298468  1.0000
  H   H528      1.0  0.8033187226393194  0.18567036041382642  0.181496363854118  1.0000
  H   H529      1.0  0.7905812586658534  0.1924591853748805  0.21412158524326946  1.0000
  H   H530      1.0  0.7686120310808577  0.1716547732699517  0.1854279835276803  1.0000
  H   H531      1.0  0.8319297932174292  0.23432414873708235  0.17338269202049797  1.0000
  H   H532      1.0  0.8196356899953205  0.24135702694066663  0.2060483633954132  1.0000
  H   H533      1.0  0.8181808369366756  0.25594289360567113  0.1716587956853291  1.0000
  H   H534      1.0  0.8005987327012668  0.20529119817707842  0.13357139732736215  1.0000
  H   H535      1.0  0.7870399100174996  0.2270546487251488  0.13208982366745559  1.0000
  H   H536      1.0  0.766057929029699  0.1917078325038845  0.13818505479638896  1.0000
  N   N23       1.0  0.04425957919829604  0.5688455425781586  0.08373716221811472  1.0000
  C   C497      1.0  0.0325872630822186  0.5666554324662375  0.05400327312814986  1.0000
  C   C498      1.0  0.043614709418570374  0.543519369106838  0.0910118038419558  1.0000
  C   C499      1.0  0.029188497938519742  0.5740778477494001  0.10590513052755877  1.0000
  C   C500      1.0  0.0716420267554232  0.5912482357241615  0.08422696903693436  1.0000
  H   H537      1.0  0.03288403470324264  0.5855363848656518  0.047913432506659505  1.0000
  H   H538      1.0  0.011806956581251304  0.5501899544056763  0.05290698984900848  1.0000
  H   H539      1.0  0.04346323606708635  0.5627691326187073  0.036603516578094936  1.0000
  H   H540      1.0  0.05262385032645245  0.5447735333613811  0.11319491578145632  1.0000
  H   H541      1.0  0.02316937832647059  0.5263361855947724  0.09167187003376702  1.0000
  H   H542      1.0  0.05448319670897739  0.5386227948508898  0.07458186566933168  1.0000
  H   H543      1.0  0.037334806918218666  0.575631624440632  0.12858076012717717  1.0000
  H   H544      1.0  0.008330663149831663  0.5577579662665122  0.10626168353076185  1.0000
  H   H545      1.0  0.029601877299028967  0.5932181534370733  0.10142591689549935  1.0000
  H   H546      1.0  0.08080311988519506  0.5940223622678942  0.10660261240772465  1.0000
  H   H547      1.0  0.07282182683832938  0.6105987893633369  0.07839317302954928  1.0000
  H   H548      1.0  0.0838002259238193  0.5878522596105714  0.06813594736676043  1.0000
  N   N24       1.0  0.1625762126642729  0.38527692741979225  0.6859987251221107  1.0000
  C   C501      1.0  0.13798704182464516  0.36384720981192187  0.6724505487809672  1.0000
  C   C502      1.0  0.17263387868973834  0.3733272431685185  0.7076063675328663  1.0000
  C   C503      1.0  0.1575127498808706  0.40489679080951185  0.7013094177883775  1.0000
  C   C504      1.0  0.1821267571261238  0.3989056217625609  0.6626456392598743  1.0000
  H   H549      1.0  0.12285358182303319  0.3530839781231568  0.6894964762863798  1.0000
  H   H550      1.0  0.14118207500854973  0.3487115416053835  0.6607034255705289  1.0000
  H   H551      1.0  0.12985479554485946  0.37216198314908105  0.656001170177287  1.0000
  H   H552      1.0  0.19176698722460794  0.38878394291651924  0.7173152707052204  1.0000
  H   H553      1.0  0.1589849770024856  0.3639915918736758  0.7263423423108692  1.0000
  H   H554      1.0  0.175572783104895  0.3575756075242462  0.6971660779711564  1.0000
  H   H555      1.0  0.17559214668507583  0.42117732540736685  0.7120407325244433  1.0000
  H   H556      1.0  0.14300291328747572  0.3953054626369266  0.719267208158149  1.0000
  H   H557      1.0  0.14998709154191303  0.4144710223244566  0.6857817986818797  1.0000
  H   H558      1.0  0.17572248229669496  0.4090420122154308  0.6464863293582278  1.0000
  H   H559      1.0  0.1856741326494722  0.38444211826758173  0.6500210565350357  1.0000
  H   H560      1.0  0.20137156421602342  0.4144455871661759  0.6721016152481161  1.0000
  N   N25       1.0  0.4171016114849386  0.6531294734725062  0.7136465395875274  1.0000
  C   C505      1.0  0.39031764150644194  0.633596467425763  0.7231330214318296  1.0000
  C   C506      1.0  0.41563808144408176  0.6656724188941743  0.6858188536780465  1.0000
  C   C507      1.0  0.43198300803796313  0.6391960700184958  0.7087332074911369  1.0000
  C   C508      1.0  0.4303935349192935  0.6741553176528383  0.7366939904337811  1.0000
  H   H561      1.0  0.3904540604242  0.6236318421125022  0.7441206980696543  1.0000
  H   H562      1.0  0.37970867345059955  0.6175857111318224  0.7060520921593483  1.0000
  H   H563      1.0  0.37855314893409575  0.6435296345976591  0.7267357483678643  1.0000
  H   H564      1.0  0.43542305791068225  0.6805133144881562  0.6777178544886302  1.0000
  H   H565      1.0  0.4051723256382724  0.650435942887717  0.6679628071306455  1.0000
  H   H566      1.0  0.40488327438894517  0.6766472244110335  0.6891104063020471  1.0000
  H   H567      1.0  0.4522579909981897  0.6534588661874243  0.7014376140726629  1.0000
  H   H568      1.0  0.4224395196241642  0.6233219270408512  0.6913076332435437  1.0000
  H   H569      1.0  0.43345037343215614  0.6294336997166758  0.7293014762370137  1.0000
  H   H570      1.0  0.4505524126894844  0.6893912144515354  0.7300006557725112  1.0000
  H   H571      1.0  0.43189550789773556  0.6655421484170442  0.7581169148965115  1.0000
  H   H572      1.0  0.41969641101354  0.6851886472366789  0.740710149604199  1.0000
  N   N26       1.0  0.5219276684594149  0.33465002579118547  0.2708819052230384  1.0000
  C   C509      1.0  0.5035462198147157  0.3069166862282838  0.2608537824425451  1.0000
  C   C510      1.0  0.5336073506777224  0.33396256927538226  0.2997323987701682  1.0000
  C   C511      1.0  0.5076476675255676  0.3494530159501118  0.2740313345724743  1.0000
  C   C512      1.0  0.5428177718338839  0.348044509833703  0.24890212326844313  1.0000
  H   H573      1.0  0.48697145551168397  0.29678010270649136  0.276335810699897  1.0000
  H   H574      1.0  0.5132688211961698  0.29463305342058693  0.25962843839355376  1.0000
  H   H575      1.0  0.4950202771693517  0.3064461348518404  0.23862967316758119  1.0000
  H   H576      1.0  0.5476185064564582  0.354499032826448  0.30818139993333554  1.0000
  H   H577      1.0  0.5183310655272745  0.323708499945209  0.3167623062241967  1.0000
  H   H578      1.0  0.5444133225252721  0.32280183107923144  0.2980232465049792  1.0000
  H   H579      1.0  0.5208808030922689  0.3705873233622358  0.28129140552895204  1.0000
  H   H580      1.0  0.491845525565025  0.33986643894987767  0.29067530489260635  1.0000
  H   H581      1.0  0.4980901424708868  0.3498139105909821  0.25276589620662576  1.0000
  H   H582      1.0  0.5572138398141224  0.3689747694044103  0.25588618990827344  1.0000
  H   H583      1.0  0.5346273530694137  0.3489456810684172  0.22689243519143443  1.0000
  H   H584      1.0  0.553702747655208  0.33707619722319665  0.24590965856074523  1.0000
  N   N27       1.0  0.8072692579420759  0.22917656622198046  0.41745632606507704  1.0000
  C   C513      1.0  0.8089649342127697  0.23355909253145649  0.44984271621576905  1.0000
  C   C514      1.0  0.8311666890839785  0.2507154018366891  0.40372141492764185  1.0000
  C   C515      1.0  0.7841607728947063  0.2296957848827246  0.4054228984084308  1.0000
  C   C516      1.0  0.8048620941757576  0.20284137108815886  0.410920779996015  1.0000
  H   H585      1.0  0.7912518472084672  0.21765373684979542  0.4609546748222489  1.0000
  H   H586      1.0  0.8108829872808763  0.2532912094688519  0.4555419121835737  1.0000
  H   H587      1.0  0.8262411880843744  0.2333102500451678  0.45962010662878  1.0000
  H   H588      1.0  0.8308586600185469  0.24763808660683423  0.3793595114179434  1.0000
  H   H589      1.0  0.833062196152906  0.2707737822636455  0.40720484971752813  1.0000
  H   H590      1.0  0.8490861266451571  0.2516001741141575  0.41299564856986387  1.0000
  H   H591      1.0  0.782307287672204  0.22653342083401146  0.38103125324571496  1.0000
  H   H592      1.0  0.785568783589339  0.24946898517833685  0.40951996139618074  1.0000
  H   H593      1.0  0.7656912239681629  0.21385637807381033  0.4153038143001825  1.0000
  H   H594      1.0  0.8048763264111767  0.19934227590187395  0.3866688671298911  1.0000
  H   H595      1.0  0.7864608404968938  0.18600740562783907  0.4198055894235778  1.0000
  H   H596      1.0  0.8213944848620198  0.20133698934897795  0.4208753085887541  1.0000
  N   N28       1.0  0.915774420409771  0.23907075571825584  0.2915693333553413  1.0000
  C   C517      1.0  0.8923822016773248  0.222478626510784  0.2728538992461343  1.0000
  C   C518      1.0  0.9253960401910978  0.26778804171717163  0.2858409495956529  1.0000
  C   C519      1.0  0.936378533642654  0.23269613547569243  0.2844080128329506  1.0000
  C   C520      1.0  0.9088116805440635  0.23324887987643037  0.32308516208491617  1.0000
  H   H597      1.0  0.8840263664790584  0.20064804578753156  0.2770451476637473  1.0000
  H   H598      1.0  0.8968127377505254  0.2261513635226923  0.24886081333338533  1.0000
  H   H599      1.0  0.876797663973836  0.22729421895422336  0.277388137410061  1.0000
  H   H600      1.0  0.9430862330494348  0.28106483679561484  0.2994853210693568  1.0000
  H   H601      1.0  0.9305642320309114  0.2727913216797865  0.26215174561554794  1.0000
  H   H602      1.0  0.9102374161289892  0.27322328433433957  0.29086429703898686  1.0000
  H   H603      1.0  0.9420562415136708  0.2368698671923902  0.260760236744209  1.0000
  H   H604      1.0  0.9296513170790085  0.21112907320458218  0.2883959112466679  1.0000
  H   H605      1.0  0.9543304380095351  0.24485725511079337  0.29817592339726956  1.0000
  H   H606      1.0  0.9259277889340473  0.24529321590154998  0.3380329764257585  1.0000
  H   H607      1.0  0.9011026061889722  0.21163270917628293  0.32810406886235627  1.0000
  H   H608      1.0  0.8932294594205589  0.23772711674165403  0.3291836908869224  1.0000
  N   N29       1.0  0.9925004773756582  0.21225489388069593  0.5991060609233031  1.0000
  C   C521      1.0  0.02029264283686305  0.2207977363601617  0.5942927153366986  1.0000
  C   C522      1.0  0.9880495136194617  0.2138442282764294  0.630979036786154  1.0000
  C   C523      1.0  0.9758908145819671  0.18428874992508276  0.5885525444874266  1.0000
  C   C524      1.0  0.9856471879670873  0.23000533791849578  0.5825346408259133  1.0000
  H   H609      1.0  0.026242119399164432  0.20803590248726886  0.6067197216603678  1.0000
  H   H610      1.0  0.03346964708062394  0.2420298340545955  0.6012951795759395  1.0000
  H   H611      1.0  0.02404111576947554  0.21921405104028138  0.5704928754167389  1.0000
  H   H612      1.0  0.0003125524938394353  0.23464944873884497  0.6397710184648615  1.0000
  H   H613      1.0  0.9672057074330574  0.2076590194407132  0.6351209449704648  1.0000
  H   H614      1.0  0.9926465128718481  0.20040608983825664  0.6441412756948954  1.0000
  H   H615      1.0  0.9548620101371222  0.17685737703414325  0.5926403223926071  1.0000
  H   H616      1.0  0.9810862141565321  0.17037240359318434  0.5996717904030645  1.0000
  H   H617      1.0  0.9779075617495476  0.18254188661509424  0.5643763028410672  1.0000
  H   H618      1.0  0.9647160201115658  0.22395960675397203  0.5854905444280694  1.0000
  H   H619      1.0  0.9887342214659957  0.22929098806133902  0.558393055964931  1.0000
  H   H620      1.0  0.997691012808655  0.2512699205026512  0.5899680737914788  1.0000
  N   N30       1.0  0.35212281520173083  0.9520664011782848  0.0925524834043207  1.0000
  C   C525      1.0  0.3604187515165968  0.9540317576348657  0.06146172495299602  1.0000
  C   C526      1.0  0.3627018095651016  0.9379342174824354  0.1100677265730838  1.0000
  C   C527      1.0  0.3232642123771614  0.9371270223207637  0.0939110619078485  1.0000
  C   C528      1.0  0.3621947680453422  0.9793043239782525  0.10495527373696929  1.0000
  H   H621      1.0  0.3821590710879273  0.9648589066921556  0.05989419894385221  1.0000
  H   H622      1.0  0.3534667426355492  0.9652912351498888  0.0476974537886361  1.0000
  H   H623      1.0  0.3528505647232591  0.9338704934393135  0.05114031412311382  1.0000
  H   H624      1.0  0.38441491296852287  0.9482406524766304  0.10860650448448401  1.0000
  H   H625      1.0  0.35780849468309384  0.9371806929446483  0.1339592728426852  1.0000
  H   H626      1.0  0.3548047819440402  0.9169487132774302  0.10207449918301548  1.0000
  H   H627      1.0  0.3148935340608737  0.9164140862915966  0.08478409405864384  1.0000
  H   H628      1.0  0.31468572381297866  0.9473631988873328  0.0810364595875483  1.0000
  H   H629      1.0  0.3165841362607503  0.9354449201944671  0.1172027256884438  1.0000
  H   H630      1.0  0.3549334310219512  0.990771385075114  0.09215135619516206  1.0000
  H   H631      1.0  0.38391460345013373  0.9909857162894967  0.10463843539922185  1.0000
  H   H632      1.0  0.3561927731298132  0.9786337848555078  0.1283464210079785  1.0000
  N   N31       1.0  0.9985238893858156  0.6815234271590216  0.1049651189070385  1.0000
  C   C529      1.0  0.9885423421655344  0.692928861241678  0.08258422935119782  1.0000
  C   C530      1.0  0.0008335260385137211  0.6944190062310759  0.13405119901564636  1.0000
  C   C531      1.0  0.024506488063161802  0.6863349274754055  0.09609578521688589  1.0000
  C   C532      1.0  0.980191298492742  0.6523365701208346  0.10714741580001617  1.0000
  H   H633      1.0  0.9689689963715672  0.6896671539521291  0.08866396158980999  1.0000
  H   H634      1.0  0.9864987326093417  0.6834598382632237  0.06042540521316806  1.0000
  H   H635      1.0  0.0019712178198940666  0.7149197967293136  0.08021776896776535  1.0000
  H   H636      1.0  0.008836146484678231  0.6865914589848697  0.15126184288193395  1.0000
  H   H637      1.0  0.014055143543814985  0.7165402164494457  0.13322738904696474  1.0000
  H   H638      1.0  0.9814289535326498  0.6903153388084711  0.14205370621578797  1.0000
  H   H639      1.0  0.03236547283879743  0.6774634407810076  0.11218278378020073  1.0000
  H   H640      1.0  0.039065736875671275  0.7081382992872238  0.09483356416588903  1.0000
  H   H641      1.0  0.02366750111491167  0.6772589379469721  0.07403116616715368  1.0000
  H   H642      1.0  0.9870610406490024  0.6432060813882898  0.12401440990209092  1.0000
  H   H643      1.0  0.9780077673384615  0.6418126456525995  0.08569137958305086  1.0000
  H   H644      1.0  0.9604291217105698  0.6479110584092054  0.1141492037151072  1.0000
  N   N32       1.0  0.03815781378643979  0.4602047103493101  0.9769017057459968  1.0000
  C   C533      1.0  0.013712444648058542  0.4384039182729858  0.9634998932057266  1.0000
  C   C534      1.0  0.05189746788689975  0.4815977295215237  0.9549090336843546  1.0000
  C   C535      1.0  0.05513633768656323  0.4494730089562303  0.9863218642713559  1.0000
  C   C536      1.0  0.03178096288746124  0.47133691970095537  0.0029025293990112555  1.0000
  H   H645      1.0  0.0022750072969175417  0.42237274488435317  0.9797125652288645  1.0000
  H   H646      1.0  0.017777673376931924  0.42890489475586563  0.9443722065028513  1.0000
  H   H647      1.0  0.0009258363032591532  0.4460344116922844  0.954973710883752  1.0000
  H   H648      1.0  0.0705889314326904  0.49837797136964207  0.9639539363390366  1.0000
  H   H649      1.0  0.05661510951724269  0.47376541934872035  0.9348018949104149  1.0000
  H   H650      1.0  0.03968291415832015  0.490247456429443  0.9474076441563509  1.0000
  H   H651      1.0  0.07425199529162807  0.46558352732446645  0.9953120003414666  1.0000
  H   H652      1.0  0.05928420322549077  0.43963385652608844  0.9675798877533475  1.0000
  H   H653      1.0  0.045852084395442194  0.4341925659750705  0.003942312706416873  1.0000
  H   H654      1.0  0.021391114974635528  0.45564052423116064  0.019938237213315668  1.0000
  H   H655      1.0  0.018887021735211285  0.4794837965254764  0.9965176058945742  1.0000
  H   H656      1.0  0.04978374312298772  0.48786890731626165  0.013538003048673586  1.0000
  N   N33       1.0  0.5336891910304905  0.8375296353835011  0.7213616205291186  1.0000
  C   C537      1.0  0.5064917503809734  0.8249828537971656  0.7099090504687015  1.0000
  C   C538      1.0  0.5449165671523565  0.8668803117754826  0.724180663276361  1.0000
  C   C539      1.0  0.5495291388317753  0.8318915090280834  0.7006489223643868  1.0000
  C   C540      1.0  0.5339026796751626  0.8263651983519249  0.7507130823889905  1.0000
  H   H657      1.0  0.49769188855412594  0.802891632496966  0.7069795662747308  1.0000
  H   H658      1.0  0.5055534400259051  0.8331575875363545  0.6879378417377406  1.0000
  H   H659      1.0  0.49376752896933035  0.8283034429449614  0.725230278903861  1.0000
  H   H660      1.0  0.5654188791182841  0.8768113552005989  0.732914852386588  1.0000
  H   H661      1.0  0.545358735839226  0.8760692833672684  0.7024203795826008  1.0000
  H   H662      1.0  0.5334942799368683  0.8719290594689749  0.7396673141950602  1.0000
  H   H663      1.0  0.5492268087840474  0.8392498272738594  0.6780089071043379  1.0000
  H   H664      1.0  0.5422284313650102  0.8100215026775889  0.6987837238479448  1.0000
  H   H665      1.0  0.5703140111777083  0.8416402833468086  0.7081142031758684  1.0000
  H   H666      1.0  0.5542009657283675  0.8352055150085446  0.7598275363907776  1.0000
  H   H667      1.0  0.5254101376443764  0.8042192199919431  0.7494924611698639  1.0000
  H   H668      1.0  0.5224207771423065  0.8305273574118307  0.767039496489276  1.0000
  N   N34       1.0  0.11498713112853698  0.3075888057179237  0.4371863733295391  1.0000
  C   C541      1.0  0.12633330418832053  0.3214972545011062  0.40910632797085494  1.0000
  C   C542      1.0  0.13335581618875766  0.32232114599757505  0.46184642911627016  1.0000
  C   C543      1.0  0.11045391932269454  0.27992755081506693  0.43557217047952107  1.0000
  C   C544      1.0  0.08988527907713652  0.306598153144741  0.44233908323347154  1.0000
  H   H669      1.0  0.14542330610407467  0.32270961037636414  0.40483454991878465  1.0000
  H   H670      1.0  0.13008065903272711  0.34245866075478304  0.4095215926376556  1.0000
  H   H671      1.0  0.11314930408176234  0.3108885428269649  0.389884396150041  1.0000
  H   H672      1.0  0.12510968490178057  0.3131739328516023  0.48357784412595733  1.0000
  H   H673      1.0  0.15191976591495435  0.32218042742021613  0.4594675782471103  1.0000
  H   H674      1.0  0.1383992514688423  0.34368833068757587  0.46294963215454993  1.0000
  H   H675      1.0  0.10242923676549201  0.26903174112231626  0.4566712827328756  1.0000
  H   H676      1.0  0.12893286628282086  0.2798753734128923  0.4312835468121339  1.0000
  H   H677      1.0  0.09625848505251487  0.2680214349925281  0.4175935655100378  1.0000
  H   H678      1.0  0.0808581302777324  0.2959439579359887  0.4633146317872683  1.0000
  H   H679      1.0  0.07552850452200993  0.29573857833404055  0.4241064590105556  1.0000
  H   H680      1.0  0.09261574268895555  0.327116433276999  0.44415641739078726  1.0000
  N   N35       1.0  0.7163902653050082  0.6349485070952556  0.9627085950491692  1.0000
  C   C545      1.0  0.7353638568493052  0.62704423800134  0.9529161816446415  1.0000
  C   C546      1.0  0.7162735946976172  0.6358408989525339  0.9954092727163433  1.0000
  C   C547      1.0  0.6899659259926918  0.6151453959750632  0.9515362635448702  1.0000
  C   C548      1.0  0.7239297224704121  0.661751933081404  0.9509128377254208  1.0000
  H   H681      1.0  0.7360091452612988  0.6263356951636306  0.9282979454482371  1.0000
  H   H682      1.0  0.7301503362356457  0.6067805348837962  0.9610641322109083  1.0000
  H   H683      1.0  0.7555335572773365  0.6415420965560217  0.9609114518360642  1.0000
  H   H684      1.0  0.7357664064134325  0.6509300779292632  0.00465645451321639  1.0000
  H   H685      1.0  0.7018344052252539  0.6412862794577133  0.0035133875535875436  1.0000
  H   H686      1.0  0.7109358214867194  0.6160209160257112  0.0050763046757873465  1.0000
  H   H687      1.0  0.6833457900063226  0.5947826067448495  0.9604072756397982  1.0000
  H   H688      1.0  0.6894958307997684  0.6135579880710504  0.9269802238246632  1.0000
  H   H689      1.0  0.6752805900549006  0.6208862950550221  0.9577352188631074  1.0000
  H   H690      1.0  0.7099661930773055  0.6683212593252884  0.9576824913788597  1.0000
  H   H691      1.0  0.7242154250924022  0.6617427625260196  0.9262471147145781  1.0000
  H   H692      1.0  0.7437856712664974  0.6772402095651839  0.9587830077980406  1.0000
  N   N36       1.0  0.69036555849541  0.971241108692577  0.8212820104934935  1.0000
  C   C549      1.0  0.6692487779125177  0.9771068208241653  0.8147405351317382  1.0000
  C   C550      1.0  0.7087953639076652  0.9803502021603435  0.7964165071762374  1.0000
  C   C551      1.0  0.678981554886895  0.942010546183851  0.8252922107068983  1.0000
  C   C552      1.0  0.7042874895238834  0.9855672402161249  0.8487322613153048  1.0000
  H   H693      1.0  0.6550577350421583  0.970454108224308  0.8331183761260728  1.0000
  H   H694      1.0  0.6582051753070157  0.9666652063860914  0.7942000045977963  1.0000
  H   H695      1.0  0.67701284514389  0.9989880253451001  0.8117210708685257  1.0000
  H   H696      1.0  0.7251323818768884  0.9764060058584239  0.8006102491931226  1.0000
  H   H697      1.0  0.6987748633084825  0.9698058836474058  0.7754283958449533  1.0000
  H   H698      1.0  0.7174711329537984  0.0023175854776888993  0.7927632663448597  1.0000
  H   H699      1.0  0.6672420201527735  0.9304168595093605  0.8055138648460338  1.0000
  H   H700      1.0  0.6656395126710825  0.9347551563414737  0.8445645088102712  1.0000
  H   H701      1.0  0.6943600846647193  0.936631299653227  0.8293153994381461  1.0000
  H   H702      1.0  0.7206300829418999  0.9819593611469932  0.8542550091032163  1.0000
  H   H703      1.0  0.6908285645843616  0.9788244329876936  0.867909163545756  1.0000
  H   H704      1.0  0.7125349756842915  0.00765138846228508  0.8467063607006967  1.0000
  N   N37       1.0  0.8809352093650273  0.9321548101238788  0.5191917534169974  1.0000
  C   C553      1.0  0.8792576431732804  0.946150349139053  0.4926109406671912  1.0000
  C   C554      1.0  0.907928456085593  0.9465027049930912  0.5313207747769192  1.0000
  C   C555      1.0  0.8736875891684421  0.9043628680499662  0.5111301931244765  1.0000
  C   C556      1.0  0.8627694493617531  0.931557552027591  0.5417550793061545  1.0000
  H   H705      1.0  0.8926727840300839  0.9470378548563452  0.4750479540560776  1.0000
  H   H706      1.0  0.8842426364156664  0.9671049472292661  0.49796976124687176  1.0000
  H   H707      1.0  0.8590519115595571  0.9358879258667654  0.483010238641393  1.0000
  H   H708      1.0  0.9097747507408968  0.9364489044893949  0.5514612137778888  1.0000
  H   H709      1.0  0.9221573425156037  0.9472584418192803  0.5148893361320763  1.0000
  H   H710      1.0  0.9139309890618829  0.9675558614067441  0.5375916128308271  1.0000
  H   H711      1.0  0.8746101617702676  0.8931659835399215  0.5307165551484467  1.0000
  H   H712      1.0  0.886814518752958  0.9038244326753072  0.4940486669894489  1.0000
  H   H713      1.0  0.8533078611912344  0.8929703759124357  0.5021548801337425  1.0000
  H   H714      1.0  0.8630470908852049  0.9207189703323444  0.5619931717992124  1.0000
  H   H715      1.0  0.8423391001045412  0.9210491121022786  0.5331520496923275  1.0000
  H   H716      1.0  0.8673929177157341  0.9521588929356064  0.5482916536489139  1.0000
  N   N38       1.0  0.6414598004698492  0.38387441097708624  0.7366738848715016  1.0000
  C   C557      1.0  0.6433973623244883  0.3964308195120444  0.7658507630666557  1.0000
  C   C558      1.0  0.6567792783372906  0.4049349240972891  0.714870475917875  1.0000
  C   C559      1.0  0.613759107426043  0.36847973455462085  0.7268233760610472  1.0000
  C   C560      1.0  0.6520193334347393  0.3655571189208272  0.7391198532945741  1.0000
  H   H717      1.0  0.632081081575691  0.3810127740250354  0.7827821419800738  1.0000
  H   H718      1.0  0.6356577874782814  0.4104754614124691  0.7648832196051752  1.0000
  H   H719      1.0  0.6641249670364671  0.4080732259019039  0.7737929555218889  1.0000
  H   H720      1.0  0.6548456154646797  0.39612211476809694  0.6923769306688049  1.0000
  H   H721      1.0  0.6501047004152645  0.419818140467646  0.7132325577505021  1.0000
  H   H722      1.0  0.6780453032926103  0.41602724756776766  0.7208430794633554  1.0000
  H   H723      1.0  0.611798126057519  0.35929359777175357  0.7045095014678843  1.0000
  H   H724      1.0  0.6048476442403908  0.3814510992610074  0.7253959821273437  1.0000
  H   H725      1.0  0.601784897892524  0.3516846598588311  0.7421420594271458  1.0000
  H   H726      1.0  0.6409530673321601  0.34932337947756786  0.7553089323223894  1.0000
  H   H727      1.0  0.672912289711301  0.37638635985701463  0.746398795582391  1.0000
  H   H728      1.0  0.6508621746739546  0.3558400393267354  0.7174431639912956  1.0000
  N   N39       1.0  0.8100519297557601  0.68946832302067  0.2696826701780939  1.0000
  C   C561      1.0  0.7929028252467679  0.6705706869304396  0.29235146734923434  1.0000
  C   C562      1.0  0.8057533486322044  0.7125835965155166  0.26822901128490184  1.0000
  C   C563      1.0  0.8038555786490208  0.6757413591614403  0.24053164540577537  1.0000
  C   C564      1.0  0.8376684000928281  0.6989384894447935  0.27769277392522657  1.0000
  H   H729      1.0  0.7719017464064946  0.6632431922668396  0.28735093215853025  1.0000
  H   H730      1.0  0.7974701258788484  0.6800533096085222  0.31478765425608546  1.0000
  H   H731      1.0  0.7954858087435672  0.6527789312852192  0.2938443489353962  1.0000
  H   H732      1.0  0.8183397304670857  0.7272673388228663  0.25130599646864665  1.0000
  H   H733      1.0  0.7850224259646045  0.705992600477167  0.2622774389819982  1.0000
  H   H734      1.0  0.81023087986807  0.7233428003150298  0.2899166475464015  1.0000
  H   H735      1.0  0.8167948845130992  0.6891803545171852  0.22297392922519033  1.0000
  H   H736      1.0  0.7832963690513135  0.6687793510203733  0.23345852738914152  1.0000
  H   H737      1.0  0.8062724152788415  0.6577670661619115  0.2410192449700133  1.0000
  H   H738      1.0  0.8414927757711651  0.6819032440264247  0.2787620527885216  1.0000
  H   H739      1.0  0.8428652818807799  0.7088246707231057  0.2999317143562077  1.0000
  H   H740      1.0  0.8512917438731542  0.7135046601096136  0.26135118713766176  1.0000
  N   N40       1.0  0.34687459957917766  0.8306307487628425  0.3346730019031375  1.0000
  C   C565      1.0  0.33452136704026864  0.8199696602035403  0.30538901397208595  1.0000
  C   C566      1.0  0.3313027314277914  0.8113208770750586  0.35789789415614937  1.0000
  C   C567      1.0  0.3480288001443328  0.8564957015312237  0.3402648364172504  1.0000
  C   C568      1.0  0.37363256728492444  0.834717779272986  0.3350580445355534  1.0000
  H   H741      1.0  0.3341330908465123  0.8009574328329478  0.29989593247609664  1.0000
  H   H742      1.0  0.345169824981552  0.8345073116538321  0.2874429334088568  1.0000
  H   H743      1.0  0.31402094710285827  0.8158752965137493  0.30461011548178607  1.0000
  H   H744      1.0  0.3305794568319201  0.7917794089998751  0.3547764098282575  1.0000
  H   H745      1.0  0.339652967001683  0.818951955903129  0.38038324171246796  1.0000
  H   H746      1.0  0.31072539802861227  0.8071127239410077  0.3577416073876255  1.0000
  H   H747      1.0  0.3573174179864952  0.8652866651332082  0.3621036217670879  1.0000
  H   H748      1.0  0.3280996300836467  0.8539998613912848  0.3400305386230692  1.0000
  H   H749      1.0  0.3593159935510737  0.8714301480613321  0.32287502863940365  1.0000
  H   H750      1.0  0.3835816581894363  0.8427778009036787  0.35682794590237854  1.0000
  H   H751      1.0  0.38587181367835544  0.8490884384590819  0.31768649235014856  1.0000
  H   H752      1.0  0.3733420351890298  0.8154720830596749  0.330944281183003  1.0000
  N   N41       1.0  0.25937261428203  0.7928838460947146  0.6352805904590804  1.0000
  C   C569      1.0  0.27368508901639116  0.8031712173065236  0.607382329323292  1.0000
  C   C570      1.0  0.2668418035527123  0.8155225542683022  0.6560670636485164  1.0000
  C   C571      1.0  0.2660716125274875  0.7736758621665244  0.6486106824061842  1.0000
  C   C572      1.0  0.23090309265249145  0.7792105271090642  0.6291867100313993  1.0000
  H   H753      1.0  0.26857958058005127  0.7866019132322583  0.5911980205231141  1.0000
  H   H754      1.0  0.2952275147358348  0.813659495739602  0.6113410864003739  1.0000
  H   H755      1.0  0.2689888584487153  0.8177243106135725  0.5968370276121979  1.0000
  H   H756      1.0  0.2562848060247129  0.808379541231172  0.6771999063907645  1.0000
  H   H757      1.0  0.28811732471540213  0.8260979188118277  0.6617055711311831  1.0000
  H   H758      1.0  0.2618512060031425  0.8303826683119662  0.6470236364930747  1.0000
  H   H759      1.0  0.26071696396694694  0.7562038550297896  0.6337364054648669  1.0000
  H   H760      1.0  0.2557038394592844  0.765754885027462  0.6698517405130054  1.0000
  H   H761      1.0  0.28740305986645676  0.7833741576185677  0.6537237470183851  1.0000
  H   H762      1.0  0.21955537413219933  0.7712287825197964  0.6498703882299653  1.0000
  H   H763      1.0  0.22448694084624599  0.7620750082308053  0.6134847789608785  1.0000
  H   H764      1.0  0.2250502516323784  0.7932628481570151  0.6196327893002574  1.0000
  N   N42       1.0  0.8265606278640646  0.10173732397675161  0.6031060484600912  1.0000
  C   C573      1.0  0.8549306309097154  0.11226825783920522  0.600164557627432  1.0000
  C   C574      1.0  0.8173470927874117  0.11256608112147361  0.5791962758546636  1.0000
  C   C575      1.0  0.8215241348141991  0.11004338302971928  0.632133806701544  1.0000
  C   C576      1.0  0.8125153459516239  0.07210694577461212  0.6008309703233903  1.0000
  H   H765      1.0  0.8627516771177953  0.10504970197619304  0.6181784807134755  1.0000
  H   H766      1.0  0.8660953510669596  0.13456796463369589  0.6009052254107063  1.0000
  H   H767      1.0  0.8593714806477736  0.10589544288357036  0.578800953405561  1.0000
  H   H768      1.0  0.7959766769856921  0.10488671667324122  0.5805718100881344  1.0000
  H   H769      1.0  0.8274996017599401  0.13487220127401298  0.5802181049611462  1.0000
  H   H770      1.0  0.8210483409736451  0.10684332376127213  0.5569602563611326  1.0000
  H   H771      1.0  0.8003552858258672  0.10286933164778762  0.6349866499213458  1.0000
  H   H772      1.0  0.832211768117534  0.13232322111558745  0.6346454145886322  1.0000
  H   H773      1.0  0.8280249006429466  0.10204817199561458  0.6507153320336412  1.0000
  H   H774      1.0  0.8191742601992781  0.06320978582210227  0.6182799839081954  1.0000
  H   H775      1.0  0.8159149004660049  0.06531654107799885  0.5790305906033986  1.0000
  H   H776      1.0  0.7910283468400816  0.06338144929330233  0.602951876000569  1.0000
  N   N43       1.0  0.03147756032056703  0.6773022594754063  0.7997848742909637  1.0000
  C   C577      1.0  0.05214421769972333  0.7052259642707702  0.7939590506851579  1.0000
  C   C578      1.0  0.010736088301086744  0.6679742897360145  0.7767145862692167  1.0000
  C   C579      1.0  0.0199855528577908  0.6761191333685648  0.8289935009093062  1.0000
  C   C580      1.0  0.04304856291070269  0.6597843172736718  0.7996109775643823  1.0000
  H   H777      1.0  0.06794201109999332  0.7125683123707076  0.8112470307606344  1.0000
  H   H778      1.0  0.044218187842113066  0.7191093620228141  0.7939531528960294  1.0000
  H   H779      1.0  0.061471326068768706  0.7068816116083549  0.7722187956244831  1.0000
  H   H780      1.0  0.9949362720464031  0.6469037455185027  0.7808643988102771  1.0000
  H   H781      1.0  0.0014424730072573055  0.6806346807958283  0.7762378254422629  1.0000
  H   H782      1.0  0.018604848751417657  0.6683931406971864  0.7543591448489816  1.0000
  H   H783      1.0  0.004513610216241304  0.6552919346608784  0.8342987253067178  1.0000
  H   H784      1.0  0.010901256197048514  0.6889403499901685  0.8298988841619257  1.0000
  H   H785      1.0  0.035042321740452964  0.6830269643590626  0.846982873260983  1.0000
  H   H786      1.0  0.027965508289669927  0.6384771753560423  0.8036336667650834  1.0000
  H   H787      1.0  0.058519913624752506  0.6659866085716041  0.8170637449985635  1.0000
  H   H788      1.0  0.05224150772644798  0.660437408945462  0.7780702397733753  1.0000
  N   N44       1.0  0.4234347634443361  0.29348764181070064  0.7080548774267961  1.0000
  C   C581      1.0  0.4369385666680288  0.3109793823710179  0.7339685282209775  1.0000
  C   C582      1.0  0.40345045367544285  0.2994048712093965  0.6963933539531713  1.0000
  C   C583      1.0  0.4106378093777958  0.2651125424103635  0.7170959756361011  1.0000
  C   C584      1.0  0.44267329251253795  0.2982864612775653  0.6848170551684911  1.0000
  H   H789      1.0  0.4518339849710976  0.3066569893643425  0.743638962811938  1.0000
  H   H790      1.0  0.4229580906739817  0.30782764606829294  0.751928030652955  1.0000
  H   H791      1.0  0.4471132423321199  0.3326036250059784  0.7280956615921148  1.0000
  H   H792      1.0  0.39296135626719003  0.286505891895309  0.6767912103538622  1.0000
  H   H793      1.0  0.38854789445167703  0.29573545887102515  0.7133892111995641  1.0000
  H   H794      1.0  0.4123982910556988  0.32071850584042355  0.6894813839585113  1.0000
  H   H795      1.0  0.3998995842118519  0.2511968740650988  0.6982788955317059  1.0000
  H   H796      1.0  0.396664690237786  0.26079308568486514  0.7354208499966077  1.0000
  H   H797      1.0  0.4253609960149252  0.260033704520968  0.7251753993244464  1.0000
  H   H798      1.0  0.43321087358329546  0.28490273505205826  0.665215979280893  1.0000
  H   H799      1.0  0.45808025542952086  0.2940491307777687  0.6929793136865756  1.0000
  H   H800      1.0  0.4526233001906688  0.31941779228043565  0.6771419797937536  1.0000
  N   N45       1.0  0.9152966952430286  0.6496513644891426  0.34632722248673226  1.0000
  C   C585      1.0  0.8996895690542512  0.6236410482576978  0.3613120347328992  1.0000
  C   C586      1.0  0.92683711302725  0.6715396562124429  0.3686659014171822  1.0000
  C   C587      1.0  0.8982399666273518  0.6541300408143678  0.32582460167148636  1.0000
  C   C588      1.0  0.9363606630959623  0.6492336290375866  0.3294305095807486  1.0000
  H   H801      1.0  0.8905284471567037  0.6066891965427152  0.34504603175880116  1.0000
  H   H802      1.0  0.8836435030818792  0.6232037700061439  0.3743552700835879  1.0000
  H   H803      1.0  0.911960772169848  0.6194637053705008  0.376765602777511  1.0000
  H   H804      1.0  0.9114082341927536  0.672636723619267  0.38146535576991175  1.0000
  H   H805      1.0  0.939479401403344  0.6686128298316262  0.3848725388954145  1.0000
  H   H806      1.0  0.9389634727930727  0.6914391607775037  0.3581732867371769  1.0000
  H   H807      1.0  0.8817727705491474  0.6540118011216282  0.33764135307995163  1.0000
  H   H808      1.0  0.8896293366545767  0.6382261399464306  0.3083964059110491  1.0000
  H   H809      1.0  0.9092407858317205  0.6737292522434614  0.3144254840812463  1.0000
  H   H810      1.0  0.9482802955662795  0.6683169126678832  0.31732997388904116  1.0000
  H   H811      1.0  0.9282143184834553  0.6326892356684835  0.3126233210937449  1.0000
  H   H812      1.0  0.9497594264726011  0.6460692690534493  0.34415535431706873  1.0000
  N   N46       1.0  0.3899527248092651  0.13682481687142276  0.37103364261558847  1.0000
  C   C589      1.0  0.36728814026610296  0.11047050251908037  0.3627255913635259  1.0000
  C   C590      1.0  0.3916259064786942  0.14016655256592364  0.40359880673522835  1.0000
  C   C591      1.0  0.3867168674145955  0.15828614634168087  0.35757136569924214  1.0000
  C   C592      1.0  0.41424274664039384  0.13861687552432225  0.36009415295694874  1.0000
  H   H813      1.0  0.3690332382852194  0.09372104654777194  0.37246265956432106  1.0000
  H   H814      1.0  0.3656107137386083  0.10758620096038077  0.3382138894129294  1.0000
  H   H815      1.0  0.3486662216313113  0.10862464033769367  0.37055076150287863  1.0000
  H   H816      1.0  0.40895504893052154  0.15968103834103808  0.410467049369856  1.0000
  H   H817      1.0  0.37407175791969244  0.14005614315786913  0.41251484903253605  1.0000
  H   H818      1.0  0.393429343456737  0.12396879212141798  0.41470191578159854  1.0000
  H   H819      1.0  0.4037999778174572  0.1783186381700523  0.3629797482348689  1.0000
  H   H820      1.0  0.3689014982610416  0.15803159881461612  0.3656748005422836  1.0000
  H   H821      1.0  0.38504840919278377  0.15634272576565  0.33302423651324325  1.0000
  H   H822      1.0  0.43172437342714876  0.15814630195410173  0.366521080595029  1.0000
  H   H823      1.0  0.4140006673500005  0.13713991114529717  0.3354536566924055  1.0000
  H   H824      1.0  0.41713272864525414  0.12237726748773087  0.3691993056371987  1.0000
  N   N47       1.0  0.6633238915425761  0.8302464709381178  0.5138818394702632  1.0000
  C   C593      1.0  0.6352218676778508  0.8216296927356133  0.5117864374591239  1.0000
  C   C594      1.0  0.6790169128073831  0.8596274295038158  0.5100189032742568  1.0000
  C   C595      1.0  0.6698366257974693  0.8166738617608407  0.49048549955524834  1.0000
  C   C596      1.0  0.6692400752226105  0.8231442773143456  0.5432350071141571  1.0000
  H   H825      1.0  0.6227679375209961  0.7995548929916548  0.5146323158031169  1.0000
  H   H826      1.0  0.6301469422348923  0.8267516190605332  0.48985553102146295  1.0000
  H   H827      1.0  0.6297459546097188  0.8316200067970423  0.5291241821242533  1.0000
  H   H828      1.0  0.675289290822522  0.8706074784886983  0.5278738582091169  1.0000
  H   H829      1.0  0.7003155736213914  0.8667207460994645  0.5109142205196141  1.0000
  H   H830      1.0  0.6746984645300559  0.8658718836991015  0.4884044593400585  1.0000
  H   H831      1.0  0.6646039294921874  0.820743100242771  0.468121147720928  1.0000
  H   H832      1.0  0.6591783561365447  0.7945327693582867  0.49333671542018925  1.0000
  H   H833      1.0  0.6911799467209951  0.8236819373831004  0.4905339288891627  1.0000
  H   H834      1.0  0.6579588252669792  0.8011353291885063  0.5470067602180612  1.0000
  H   H835      1.0  0.6645063991670587  0.8330446217537776  0.561401981013447  1.0000
  H   H836      1.0  0.6904079279547949  0.8298020085755821  0.5457318384673012  1.0000
  N   N48       1.0  0.10427131222482267  0.8122202751519959  0.44655439191702234  1.0000
  C   C597      1.0  0.07731294565923519  0.8036360951403201  0.4364411526091353  1.0000
  C   C598      1.0  0.12163937077369558  0.8406573384302186  0.438853043175394  1.0000
  C   C599      1.0  0.11368467804236304  0.7956687159575515  0.43209093842942103  1.0000
  C   C600      1.0  0.10457427968666266  0.8090983472360718  0.4789724861765322  1.0000
  H   H837      1.0  0.06991351823492864  0.8159274806544982  0.44730170659144547  1.0000
  H   H838      1.0  0.06358704559794326  0.7822759072186616  0.4419286489350748  1.0000
  H   H839      1.0  0.07633177039886241  0.8059528420033292  0.41210984183729726  1.0000
  H   H840      1.0  0.14198424165269485  0.8479677023215139  0.44686525827737456  1.0000
  H   H841      1.0  0.12242456728603424  0.8437395920806641  0.41452752731631254  1.0000
  H   H842      1.0  0.1149151263837791  0.8537449623687572  0.448956376740116  1.0000
  H   H843      1.0  0.1340645972237302  0.8019534779949977  0.4395096404276258  1.0000
  H   H844      1.0  0.11395479940945363  0.7976690858902205  0.4075945322262758  1.0000
  H   H845      1.0  0.10117030268815208  0.7740591483658897  0.437470728935688  1.0000
  H   H846      1.0  0.12460854946834243  0.8153087822966778  0.48739757173191867  1.0000
  H   H847      1.0  0.09153929191755172  0.7879328426642044  0.4856653251051904  1.0000
  H   H848      1.0  0.09789209112581321  0.8215787137682579  0.49064566124377706  1.0000
  N   N49       1.0  0.8921302989053178  0.3335280736785922  0.778355111223423  1.0000
  C   C601      1.0  0.882809935622882  0.3522513952496212  0.7858729339026763  1.0000
  C   C602      1.0  0.8918469129286484  0.33040197129575943  0.7458381819622435  1.0000
  C   C603      1.0  0.874676733877114  0.30714449782565173  0.7916827488933822  1.0000
  C   C604      1.0  0.9190763067347967  0.3441576995127825  0.7899707585204603  1.0000
  H   H849      1.0  0.8825115849595303  0.35479877464711274  0.810266865573452  1.0000
  H   H850      1.0  0.8625409112822419  0.3447343328298221  0.7771550428472385  1.0000
  H   H851      1.0  0.8955733970955913  0.3724494605324972  0.7762995807772338  1.0000
  H   H852      1.0  0.8987315742248725  0.3163296601069409  0.739409825067319  1.0000
  H   H853      1.0  0.8717360453194629  0.32214509216105186  0.736380795226452  1.0000
  H   H854      1.0  0.9046751311624971  0.3499320705756075  0.7349531712804981  1.0000
  H   H855      1.0  0.8801007721329287  0.29210688025586573  0.784819649528903  1.0000
  H   H856      1.0  0.8539486454521877  0.2991402609482217  0.7847186653367954  1.0000
  H   H857      1.0  0.8755496314772037  0.3081424491639809  0.8162979326124162  1.0000
  H   H858      1.0  0.9267211580670591  0.3305956057778148  0.7842686937139488  1.0000
  H   H859      1.0  0.9200020407249095  0.34621666008064533  0.8145309645315779  1.0000
  H   H860      1.0  0.9328116841304589  0.3642394789013085  0.7807306493360657  1.0000
  N   N50       1.0  0.212440806302524  0.788234611662167  0.8683937708620103  1.0000
  C   C605      1.0  0.2007314520801557  0.799023624548986  0.8474534771669411  1.0000
  C   C606      1.0  0.20578082950856882  0.760936814827782  0.8587753478619288  1.0000
  C   C607      1.0  0.20200503896531558  0.7870322727257245  0.8982524330322261  1.0000
  C   C608      1.0  0.24118217472289988  0.8059873468642118  0.8690662796840627  1.0000
  H   H861      1.0  0.2062944773880372  0.8200657532476467  0.8532064886444253  1.0000
  H   H862      1.0  0.17902238434368065  0.7867288205073645  0.8470366691800416  1.0000
  H   H863      1.0  0.20758903156189307  0.7994003000648352  0.8245778725014427  1.0000
  H   H864      1.0  0.21477750962017828  0.7523323667714873  0.8735886841010918  1.0000
  H   H865      1.0  0.1842553898668464  0.746884786739348  0.858553380655612  1.0000
  H   H866      1.0  0.21264886984749926  0.7608961408735163  0.8359402732696516  1.0000
  H   H867      1.0  0.21044753441766548  0.7790059905424865  0.9146573666492356  1.0000
  H   H868      1.0  0.18033192469762577  0.7737233850063738  0.8984226740603894  1.0000
  H   H869      1.0  0.20655722516458772  0.807297072904915  0.9060586337180146  1.0000
  H   H870      1.0  0.2468803772622544  0.8268917682532929  0.875707391859286  1.0000
  H   H871      1.0  0.2496377566360834  0.8074142061977231  0.8468220025425248  1.0000
  H   H872      1.0  0.2508149979345517  0.7986270292952519  0.8846477729179398  1.0000
  N   N51       1.0  0.42260963919481725  0.4957088581729823  0.8195592521066414  1.0000
  C   C609      1.0  0.4141213874314334  0.47999688837507104  0.8470507704867428  1.0000
  C   C610      1.0  0.4464372289940363  0.496416641279978  0.8086991162953683  1.0000
  C   C611      1.0  0.42836858314678233  0.5233619792855145  0.8257423885625297  1.0000
  C   C612      1.0  0.4015034849799346  0.4829598071223326  0.796924975782835  1.0000
  H   H873      1.0  0.3961712432248707  0.47896832127575445  0.8559118904627515  1.0000
  H   H874      1.0  0.42951846454156967  0.48887873596481884  0.8646828403916875  1.0000
  H   H875      1.0  0.4096220896530966  0.45904499967957246  0.8431411031891394  1.0000
  H   H876      1.0  0.45407042969510647  0.5090045239933653  0.7886253600235404  1.0000
  H   H877      1.0  0.4623778602273845  0.5047061747682303  0.8258285765395064  1.0000
  H   H878      1.0  0.4424753970641225  0.47593904969618445  0.8027395125776691  1.0000
  H   H879      1.0  0.4108002047034898  0.5235032307679927  0.8341071090210359  1.0000
  H   H880      1.0  0.43488113340042367  0.5358824464190499  0.8055034796742697  1.0000
  H   H881      1.0  0.44422411994886535  0.5333367714385148  0.8428253508336317  1.0000
  H   H882      1.0  0.4069217991003352  0.49444770276033606  0.7759537982965791  1.0000
  H   H883      1.0  0.38293803905942486  0.4813043148175732  0.8047272570814573  1.0000
  H   H884      1.0  0.39707732152600006  0.4621721447451718  0.7915499964280226  1.0000
  N   N52       1.0  0.5717273978219523  0.5331643354771893  0.9354950367326115  1.0000
  C   C613      1.0  0.5978669762991983  0.5429372861860718  0.9490582534927227  1.0000
  C   C614      1.0  0.5518684171992935  0.5100687778876573  0.9523479729044559  1.0000
  C   C615      1.0  0.5716909111744278  0.5247103099169158  0.9045790573462021  1.0000
  C   C616      1.0  0.5654091303333392  0.5549337483915197  0.9359497693154372  1.0000
  H   H885      1.0  0.6131820884921771  0.5602363407454842  0.9366252755819073  1.0000
  H   H886      1.0  0.603236959805156  0.5270099122067506  0.949356464404963  1.0000
  H   H887      1.0  0.5988034061545683  0.5500797454715675  0.9722156830066645  1.0000
  H   H888      1.0  0.5319033002955971  0.5022459971468783  0.9425251788424028  1.0000
  H   H889      1.0  0.5559377758832832  0.4931959780394563  0.9523967150221905  1.0000
  H   H890      1.0  0.5513004859638778  0.5157941707008388  0.9757525756289952  1.0000
  H   H891      1.0  0.5772445383825993  0.5089535330622275  0.903165982137803  1.0000
  H   H892      1.0  0.5856086911805322  0.5418769370720656  0.8907340591399429  1.0000
  H   H893      1.0  0.5519954710142614  0.5163321575287629  0.8941386396695828  1.0000
  H   H894      1.0  0.5450688288850187  0.5476939843060435  0.9280557855878391  1.0000
  H   H895      1.0  0.5787746828336253  0.5719220553071535  0.9215679663594907  1.0000
  H   H896      1.0  0.5672857022967556  0.5633317355773347  0.9586444289409665  1.0000
  N   N53       1.0  0.007446283880877758  0.4604649900040307  0.24279059547094597  1.0000
  C   C617      1.0  0.999708697463998  0.44962628476955896  0.21242583119239444  1.0000
  C   C618      1.0  0.023967998369014865  0.4900263714173892  0.24165941686857179  1.0000
  C   C619      1.0  0.022386959765722914  0.44905160187651644  0.2567701575854573  1.0000
  C   C620      1.0  0.9837218769065773  0.453041557992409  0.26003090335770424  1.0000
  H   H897      1.0  0.9867146709656655  0.42745036563095684  0.21228506938056316  1.0000
  H   H898      1.0  0.01717048544770683  0.4541599869076769  0.19921801764115807  1.0000
  H   H899      1.0  0.9889732929819711  0.4582420096626688  0.20077381631042912  1.0000
  H   H900      1.0  0.042244208676887274  0.4961178921019214  0.22920312675487273  1.0000
  H   H901      1.0  0.013623861943094617  0.49926721959367687  0.23028689081251383  1.0000
  H   H902      1.0  0.029791436156132  0.4990832584327648  0.26419408060771504  1.0000
  H   H903      1.0  0.02822234343225194  0.4563530060013191  0.2799405422287344  1.0000
  H   H904      1.0  0.040564508764107776  0.454590252732421  0.24436384881031017  1.0000
  H   H905      1.0  0.010715658071074996  0.4266840046214284  0.2571369039554819  1.0000
  H   H906      1.0  0.9708936545457026  0.43079420393601753  0.2610312984534525  1.0000
  H   H907      1.0  0.9720071278743193  0.461283013446152  0.24986872279153124  1.0000
  H   H908      1.0  0.9887531719420111  0.4608386187686456  0.2831483103459891  1.0000
  N   N54       1.0  0.4110319967077913  0.13872718736642053  0.6904285505274983  1.0000
  C   C621      1.0  0.39546931569391974  0.11332994328075119  0.673699588531559  1.0000
  C   C622      1.0  0.39352332506645127  0.14324109851136851  0.7096367630252866  1.0000
  C   C623      1.0  0.42408121003858035  0.16122507536524097  0.6695087095641696  1.0000
  C   C624      1.0  0.43096038994754926  0.13706029932591093  0.7089072333141806  1.0000
  H   H909      1.0  0.4080295060323542  0.10927806610126839  0.6589056825968946  1.0000
  H   H910      1.0  0.3801850337701895  0.1139409521314616  0.6595968291566796  1.0000
  H   H911      1.0  0.38536077322353113  0.09598442311155672  0.688894003081396  1.0000
  H   H912      1.0  0.40451586572916864  0.1625507115804789  0.7220636394081825  1.0000
  H   H913      1.0  0.37775968965107254  0.14383393596998217  0.6966073463028908  1.0000
  H   H914      1.0  0.3840973439255103  0.1271945274807815  0.726485859366388  1.0000
  H   H915      1.0  0.4096565768548847  0.1625224666937704  0.65455416736526  1.0000
  H   H916      1.0  0.43814349918391743  0.15902310510464698  0.6553261909843587  1.0000
  H   H917      1.0  0.4352146701343327  0.18088317707234292  0.6813676755069741  1.0000
  H   H918      1.0  0.44315444980028407  0.1559815801291714  0.721653829593934  1.0000
  H   H919      1.0  0.44437714582672566  0.13330624213240652  0.6953296133719917  1.0000
  H   H920      1.0  0.42178908310850916  0.12075962152557508  0.7255393648931966  1.0000
  N   N55       1.0  0.7084838052361836  0.8082722353269007  0.32021676883413885  1.0000
  C   C625      1.0  0.7150756757836108  0.8344836959009153  0.33344956462392555  1.0000
  C   C626      1.0  0.7007286556754834  0.8073393171848057  0.2888096341726739  1.0000
  C   C627      1.0  0.686601077969986  0.7864525438788658  0.3364451934839539  1.0000
  C   C628      1.0  0.7315190119862479  0.8047151003505943  0.32215403817324245  1.0000
  H   H921      1.0  0.722018256292798  0.8363056199953934  0.35681153091972756  1.0000
  H   H922      1.0  0.6977854788192602  0.8373298106047496  0.33356413335634855  1.0000
  H   H923      1.0  0.7307790621950296  0.8514837247722676  0.32103826389245343  1.0000
  H   H924      1.0  0.6834217109476055  0.8099916731861508  0.28651483674008715  1.0000
  H   H925      1.0  0.7167440704243213  0.8233188240235637  0.2756868249359822  1.0000
  H   H926      1.0  0.6950378873170621  0.7875806578321313  0.2783084340116389  1.0000
  H   H927      1.0  0.680421598729654  0.7664330033771708  0.32635208675394645  1.0000
  H   H928      1.0  0.6690572759643008  0.7888682265459895  0.3360857436970023  1.0000
  H   H929      1.0  0.6919286255370968  0.7858471855134326  0.35994999120381577  1.0000
  H   H930      1.0  0.7271095166467739  0.7850734025624879  0.3124037669380805  1.0000
  H   H931      1.0  0.7378659751115378  0.805288163242322  0.345591523534671  1.0000
  H   H932      1.0  0.7484182654736932  0.8208330493681765  0.3101353032191953  1.0000
  N   N56       1.0  0.42684409177138294  0.6569467063074197  0.3087679539171457  1.0000
  C   C629      1.0  0.4164832744113671  0.6287863601913362  0.2991877677373849  1.0000
  C   C630      1.0  0.4191501759808589  0.6574651872502343  0.3396388367573507  1.0000
  C   C631      1.0  0.4159034628987399  0.6696173530837575  0.28936971504557  1.0000
  C   C632      1.0  0.4557086644426493  0.6718888599724211  0.3069470534894094  1.0000
  H   H933      1.0  0.42191205926924696  0.6275544113322861  0.27597986389236473  1.0000
  H   H934      1.0  0.39469045240565437  0.6170882977106105  0.3002736326568469  1.0000
  H   H935      1.0  0.4240966413287207  0.6184765270698135  0.31350630463410034  1.0000
  H   H936      1.0  0.4275439756167046  0.648681644031191  0.35508837456409686  1.0000
  H   H937      1.0  0.42593519572117317  0.6783208465421919  0.34732742379451  1.0000
  H   H938      1.0  0.3975181146895773  0.6458528566720032  0.3419092376448637  1.0000
  H   H939      1.0  0.4233027675819762  0.6908961281492234  0.29592930189543387  1.0000
  H   H940      1.0  0.3941365722877325  0.6589394639301543  0.29044891252713506  1.0000
  H   H941      1.0  0.42114290413506045  0.6694306556607543  0.26584637019521035  1.0000
  H   H942      1.0  0.46462656376542294  0.6627231688718482  0.32107325215016513  1.0000
  H   H943      1.0  0.46412007620761125  0.6931012058394528  0.3145419224464269  1.0000
  H   H944      1.0  0.4622941684518019  0.6723630316433168  0.28386865654105253  1.0000
  N   N57       1.0  0.7145587019999434  0.10208006091735689  0.9217787267361435  1.0000
  C   C633      1.0  0.7141281577946644  0.11102357972423738  0.891277825779684  1.0000
  C   C634      1.0  0.7093940974570363  0.07418342073645134  0.9209885206175823  1.0000
  C   C635      1.0  0.6941700142669067  0.10329535723137795  0.9392106676377211  1.0000
  C   C636      1.0  0.7405026224083056  0.11973581075460449  0.9355643869311518  1.0000
  H   H945      1.0  0.7178568624204229  0.13195723891643518  0.8907824022284118  1.0000
  H   H946      1.0  0.694807067505906  0.09795254099335327  0.8802906262083429  1.0000
  H   H947      1.0  0.7291696669362286  0.11023975221094151  0.8773945260573693  1.0000
  H   H948      1.0  0.7093089117497972  0.066550086574519  0.943634013248467  1.0000
  H   H949      1.0  0.6899093574459001  0.0603909103844229  0.9109479974237584  1.0000
  H   H950      1.0  0.7240596200701644  0.07230333242857134  0.9075514050870073  1.0000
  H   H951      1.0  0.6935697286473209  0.09618508359213318  0.9622471610287643  1.0000
  H   H952      1.0  0.6743211904576856  0.09014763581291252  0.9293378326302817  1.0000
  H   H953      1.0  0.6973929143243263  0.12401813966918418  0.9403978988435107  1.0000
  H   H954      1.0  0.7414070383868906  0.11343743028925846  0.9586198666550081  1.0000
  H   H955      1.0  0.7450703824501971  0.14096980941374615  0.9364313743404947  1.0000
  H   H956      1.0  0.756267597646246  0.11919859398590993  0.9228711487018588  1.0000
  N   N58       1.0  0.6883729305980315  0.009785269728043167  0.26312741928246625  1.0000
  C   C637      1.0  0.7157747323878711  0.029986250966417913  0.2706370564916679  1.0000
  C   C638      1.0  0.6873583036165871  0.9978558609684178  0.2338200475266276  1.0000
  C   C639      1.0  0.6724068047695712  0.0229204621754604  0.26233071472303654  1.0000
  C   C640      1.0  0.6778676545926331  0.9883761199205854  0.28554763055401433  1.0000
  H   H957      1.0  0.7173368307419572  0.039487997702792745  0.2926102742661109  1.0000
  H   H958      1.0  0.7240009065250597  0.04637466410590293  0.25395790689839437  1.0000
  H   H959      1.0  0.7284713079635055  0.02085671361454988  0.2712247718410069  1.0000
  H   H960      1.0  0.698690843289706  0.9872274685823994  0.2336967977716006  1.0000
  H   H961      1.0  0.6668928536924544  0.9830011978186757  0.2271558023029567  1.0000
  H   H962      1.0  0.6955435446863871  0.013483516524481987  0.2163964098893071  1.0000
  H   H963      1.0  0.6515946373464415  0.008283798154156363  0.25666114717382865  1.0000
  H   H964      1.0  0.6796826525983086  0.03908861162411305  0.24550704541409116  1.0000
  H   H965      1.0  0.672749472738613  0.032224729186718926  0.2840426230438027  1.0000
  H   H966      1.0  0.6891975460340087  0.9777378185422873  0.2865227021029076  1.0000
  H   H967      1.0  0.6571258152021459  0.9730126998795372  0.2803173576911244  1.0000
  H   H968      1.0  0.6783607053970382  0.996579272732277  0.30801153450642527  1.0000
  N   N59       1.0  0.840318149727399  0.5214792098033993  0.8029841067323013  1.0000
  C   C641      1.0  0.8629436034841362  0.528599650745939  0.8229156569547529  1.0000
  C   C642      1.0  0.8208643393867515  0.5256907317068651  0.8187084415670963  1.0000
  C   C643      1.0  0.8282549232888601  0.4930618241081493  0.7935805603281765  1.0000
  C   C644      1.0  0.8492449737724578  0.5387518914149881  0.7766453653713764  1.0000
  H   H969      1.0  0.8785758137004419  0.5267867292355353  0.8114935985599578  1.0000
  H   H970      1.0  0.8571399854039317  0.5155613088177335  0.8427431609674277  1.0000
  H   H971      1.0  0.8719248566003671  0.5497305348713712  0.8310186566264356  1.0000
  H   H972      1.0  0.8293326165500327  0.5470948895290624  0.8257304883831115  1.0000
  H   H973      1.0  0.803494613168498  0.5204808904427687  0.8043553170393208  1.0000
  H   H974      1.0  0.8138735643440045  0.5132439276165813  0.838951631002923  1.0000
  H   H975      1.0  0.8209799791976421  0.47934709812973975  0.8128385030334896  1.0000
  H   H976      1.0  0.8424855349160385  0.4892502139229089  0.7817257029485813  1.0000
  H   H977      1.0  0.8113176714830149  0.4872409195025991  0.7782039625033494  1.0000
  H   H978      1.0  0.8327186729466951  0.5340096597130237  0.7610721598725229  1.0000
  H   H979      1.0  0.8641173021257801  0.5364004914428883  0.7642291987233379  1.0000
  H   H980      1.0  0.8582940443424482  0.5602539013123914  0.7830727664000152  1.0000
  N   N60       1.0  0.719415847039397  0.22275057477340632  0.7632696993307531  1.0000
  C   C645      1.0  0.7455616658676465  0.23785925987223247  0.77756363697793  1.0000
  C   C646      1.0  0.7007170454080722  0.20291916345286148  0.7842311485231822  1.0000
  C   C647      1.0  0.7209055750230473  0.20857318565378796  0.7366991451716499  1.0000
  C   C648      1.0  0.7104824240640336  0.24160307975502784  0.754613485382104  1.0000
  H   H981      1.0  0.7603220706844035  0.2525847644477807  0.7621908483803926  1.0000
  H   H982      1.0  0.7527200690482216  0.2242143166351927  0.784788253323088  1.0000
  H   H983      1.0  0.7453452184767313  0.249173801986464  0.7974239142103668  1.0000
  H   H984      1.0  0.6807624054134236  0.19119704714203636  0.7741938182444863  1.0000
  H   H985      1.0  0.7068172491575524  0.18826521493048784  0.7910139834875773  1.0000
  H   H986      1.0  0.6992774559114593  0.21281451708076563  0.8047216590541233  1.0000
  H   H987      1.0  0.7276546026120028  0.19422501329628092  0.742487148941346  1.0000
  H   H988      1.0  0.7348770257502559  0.2228410824892584  0.7204152044129624  1.0000
  H   H989      1.0  0.7015331817693562  0.19689315892527331  0.7253578110023962  1.0000
  H   H990      1.0  0.7085380667847276  0.25218772688693775  0.7741946553958912  1.0000
  H   H991      1.0  0.6911810598555469  0.23109171530599562  0.7428889642567758  1.0000
  H   H992      1.0  0.7245380317520916  0.2573042097968552  0.7395111901054957  1.0000
  N   N61       1.0  0.9981681917253744  0.3001990766819498  0.9172409254598327  1.0000
  C   C649      1.0  0.9856577128811945  0.27161533644129765  0.9254677174405168  1.0000
  C   C650      1.0  0.9900258314498379  0.31443401977194585  0.9379850538208474  1.0000
  C   C651      1.0  0.9900701982400296  0.3023515873056237  0.8867667880866756  1.0000
  C   C652      1.0  0.02691968521734478  0.312402486135645  0.91876639611032  1.0000
  H   H993      1.0  0.9639321864005557  0.2618277560282024  0.9245890361185917  1.0000
  H   H994      1.0  0.9914298196258  0.26931615121297775  0.9483408804784288  1.0000
  H   H995      1.0  0.991304839466844  0.26026055951654237  0.910175952378358  1.0000
  H   H996      1.0  0.9684437383479524  0.3057918027664543  0.9375556832685954  1.0000
  H   H997      1.0  0.9962692188742471  0.3137315189061688  0.9611677494560671  1.0000
  H   H998      1.0  0.9990746973280954  0.3360199870195553  0.9323575132748131  1.0000
  H   H999      1.0  0.9963715059816954  0.2924290373303173  0.8702796055531524  1.0000
  H   H1000     1.0  0.9987962046092347  0.3236738134479928  0.8799838763361846  1.0000
  H   H1001     1.0  0.9684554475084165  0.29296454811003897  0.8845787001338561  1.0000
  H   H1002     1.0  0.033811691993479  0.30192576229218093  0.903840332369404  1.0000
  H   H1003     1.0  0.033890549055383135  0.31208772828222286  0.9416871193813632  1.0000
  H   H1004     1.0  0.03692951902618424  0.3338122857980023  0.9120888654609007  1.0000
  N   N62       1.0  0.42737177713797525  0.9342437572771527  0.8264420046503205  1.0000
  C   C653      1.0  0.41128660664480615  0.9326215936604415  0.8519816995853536  1.0000
  C   C654      1.0  0.45522613741854984  0.9532469556940212  0.8334586545974872  1.0000
  C   C655      1.0  0.4192270928950951  0.9437636242613033  0.8002844901772218  1.0000
  C   C656      1.0  0.4236948000513859  0.9073815493996299  0.8201472744061392  1.0000
  H   H1005     1.0  0.4172295178237864  0.9261577138118512  0.8724063302010198  1.0000
  H   H1006     1.0  0.3900742180977758  0.9185672489037714  0.8475687896170857  1.0000
  H   H1007     1.0  0.4134307239938295  0.9524787868259404  0.8569583835549376  1.0000
  H   H1008     1.0  0.45856052686651083  0.9736728831145355  0.8384327570133568  1.0000
  H   H1009     1.0  0.4619980871516942  0.9469131711039295  0.8533446529939214  1.0000
  H   H1010     1.0  0.46812925106813125  0.9551436397698982  0.8148048070106179  1.0000
  H   H1011     1.0  0.4307393386383352  0.9450572046008137  0.7804568892579388  1.0000
  H   H1012     1.0  0.42186633217322317  0.9640759281787848  0.8043240515511862  1.0000
  H   H1013     1.0  0.3981028668421937  0.9302341840127751  0.7947863011750391  1.0000
  H   H1014     1.0  0.43561538587460813  0.9078707471327472  0.8010337009290764  1.0000
  H   H1015     1.0  0.40283220033336736  0.8926297902204824  0.8147565147316163  1.0000
  H   H1016     1.0  0.42958440506110124  0.8996548572707693  0.8395612127738263  1.0000
  N   N63       1.0  0.6125835924115451  0.3054869990430028  0.4602248086933285  1.0000
  C   C657      1.0  0.621258502408568  0.28660148052211215  0.46956813906983824  1.0000
  C   C658      1.0  0.5963578433119563  0.3075882884300627  0.4835168502775656  1.0000
  C   C659      1.0  0.5971517391269433  0.29566676366997996  0.43238197982051874  1.0000
  C   C660      1.0  0.6357157596838361  0.332198736199191  0.45535425278317393  1.0000
  H   H1017     1.0  0.6338414671788339  0.28487571280594287  0.4525389193713737  1.0000
  H   H1018     1.0  0.6043875793786189  0.26615531450425745  0.473348022367907  1.0000
  H   H1019     1.0  0.6331704158184042  0.293552668367578  0.4903922753120561  1.0000
  H   H1020     1.0  0.5896177878452465  0.32179732226690005  0.4770854069979689  1.0000
  H   H1021     1.0  0.5786806612681863  0.2877859162500958  0.48778331803686337  1.0000
  H   H1022     1.0  0.607545874607827  0.3150380285092713  0.5047689058130937  1.0000
  H   H1023     1.0  0.6089887206542869  0.2941531958458249  0.4142503231720229  1.0000
  H   H1024     1.0  0.5905088854065401  0.30960261844632053  0.4245634619024384  1.0000
  H   H1025     1.0  0.5795142401062632  0.2755149706914524  0.4350182002872482  1.0000
  H   H1026     1.0  0.63010111303153  0.3470050231613263  0.44773930206743384  1.0000
  H   H1027     1.0  0.6482676445958949  0.33111696252332473  0.43800606051473767  1.0000
  H   H1028     1.0  0.6480795986494465  0.3403039145423259  0.47575702945008247  1.0000
  N   N64       1.0  0.21611247905084055  0.4232997089663757  0.1774023490849555  1.0000
  C   C661      1.0  0.21013279233254079  0.3975814951612246  0.19105984096975906  1.0000
  C   C662      1.0  0.22340030423827129  0.4439634437462101  0.20075590125008422  1.0000
  C   C663      1.0  0.192802685152295  0.419790369401822  0.16097136701506734  1.0000
  C   C664      1.0  0.23818887857466156  0.43188361310883594  0.1569349921206969  1.0000
  H   H1029     1.0  0.20473266180685837  0.38154940566193624  0.17408544408760035  1.0000
  H   H1030     1.0  0.19352834669494567  0.3904401918640949  0.20662759627703034  1.0000
  H   H1031     1.0  0.22732929547208672  0.3995971392121359  0.20376173904541964  1.0000
  H   H1032     1.0  0.22753064851849997  0.46351468019586795  0.19138815224631503  1.0000
  H   H1033     1.0  0.20748368422973226  0.43789146054355266  0.21702614286064487  1.0000
  H   H1034     1.0  0.24121023694774887  0.4474773472798246  0.21319975809218766  1.0000
  H   H1035     1.0  0.19659495668487764  0.4387882826604913  0.1503285294372627  1.0000
  H   H1036     1.0  0.1758782338387972  0.41353118973388225  0.17590617377846932  1.0000
  H   H1037     1.0  0.18653355710086456  0.4041544175022869  0.14332221302747195  1.0000
  H   H1038     1.0  0.24346658129726664  0.45136758116481235  0.14642229389126427  1.0000
  H   H1039     1.0  0.23344835707209877  0.41678328250204616  0.13899962684729106  1.0000
  H   H1040     1.0  0.2560213532583785  0.43455914616254754  0.1687954798360433  1.0000
  N   N65       1.0  0.9451977873852174  0.7735227658508482  0.6390771464537104  1.0000
  C   C665      1.0  0.9170788606386465  0.7612475667598197  0.645723367443397  1.0000
  C   C666      1.0  0.9599066789880919  0.7750453293755238  0.6663720923883588  1.0000
  C   C667      1.0  0.9549957515726043  0.8008250236026783  0.6273631904920293  1.0000
  C   C668      1.0  0.9488277935726994  0.7569398468084767  0.6167499303609155  1.0000
  H   H1041     1.0  0.9053407814443837  0.7591910447607115  0.6253856723730223  1.0000
  H   H1042     1.0  0.9134734957241756  0.7734841832970774  0.6620161764956101  1.0000
  H   H1043     1.0  0.9091164716392711  0.7407922411635202  0.6551253869626138  1.0000
  H   H1044     1.0  0.981203016815501  0.7842301847437799  0.6620193397160623  1.0000
  H   H1045     1.0  0.9575885032922454  0.7873767947290826  0.6837618857083526  1.0000
  H   H1046     1.0  0.9530003476772423  0.7547105903201878  0.6756716229192115  1.0000
  H   H1047     1.0  0.9760612015490846  0.8104968909104813  0.6215074525221935  1.0000
  H   H1048     1.0  0.9528428839423198  0.8140863112687006  0.6436057367804097  1.0000
  H   H1049     1.0  0.9442655502720355  0.8003362968368473  0.6067225376611162  1.0000
  H   H1050     1.0  0.9697929926121952  0.7657884569312103  0.6108125039904563  1.0000
  H   H1051     1.0  0.9380909338247634  0.7555407440540998  0.5958788122873842  1.0000
  H   H1052     1.0  0.9416212180864717  0.7361423973420625  0.624663948798878  1.0000
  N   N66       1.0  0.5217096355328953  0.09335346870455022  0.2229038002312859  1.0000
  C   C669      1.0  0.5445400224339935  0.08988086029213298  0.22831560530647857  1.0000
  C   C670      1.0  0.5240900931607652  0.11585761088001416  0.24110160005182107  1.0000
  C   C671      1.0  0.49758440645885155  0.06843520619267661  0.2308730687926836  1.0000
  C   C672      1.0  0.520505632204625  0.09913570920270834  0.19125591089274313  1.0000
  H   H1053     1.0  0.5430108163867888  0.07277722837964842  0.2150346393956981  1.0000
  H   H1054     1.0  0.5461420755800552  0.0855631877636518  0.2519889024208154  1.0000
  H   H1055     1.0  0.563139351342142  0.10815609795334352  0.22224342252605603  1.0000
  H   H1056     1.0  0.5070575359315111  0.11886831377608706  0.2372286392511117  1.0000
  H   H1057     1.0  0.5247680871265509  0.1120916264630968  0.26513881504459663  1.0000
  H   H1058     1.0  0.5420822894263866  0.13505205087639136  0.23577110366484091  1.0000
  H   H1059     1.0  0.47993762170565657  0.07037547164039494  0.22767477676340278  1.0000
  H   H1060     1.0  0.49804020078779276  0.06295157217488957  0.2543541773304927  1.0000
  H   H1061     1.0  0.4947757649588956  0.05126263955356267  0.21697902202329153  1.0000
  H   H1062     1.0  0.5033025556217122  0.10155168552460724  0.18628998649862832  1.0000
  H   H1063     1.0  0.5188060515792914  0.0826262210243369  0.17682851911739175  1.0000
  H   H1064     1.0  0.5382871343399194  0.11795605506152104  0.18454818695866806  1.0000
  N   N67       1.0  0.278648990777881  0.9219840437503312  0.3074509701000843  1.0000
  C   C673      1.0  0.2875280187250443  0.9037299561122839  0.3184961355001967  1.0000
  C   C674      1.0  0.26985029389220233  0.9317693793490365  0.33261478619816176  1.0000
  C   C675      1.0  0.2566637160411109  0.9073660490645532  0.2862182087681589  1.0000
  C   C676      1.0  0.3005158773317773  0.9449706440746928  0.29248799231058725  1.0000
  H   H1065     1.0  0.2716867481755595  0.8864479136679434  0.3304236223073539  1.0000
  H   H1066     1.0  0.30444673050880955  0.9141576093280084  0.33410245354990775  1.0000
  H   H1067     1.0  0.29362120026243743  0.8953787868125942  0.30005850593329547  1.0000
  H   H1068     1.0  0.26296119342328267  0.9455883645211229  0.3251671441102063  1.0000
  H   H1069     1.0  0.25327510448969753  0.914806556260395  0.3442622011848131  1.0000
  H   H1070     1.0  0.2858219767373471  0.9426531697507039  0.3492808290182655  1.0000
  H   H1071     1.0  0.24937840998050045  0.9204756730414757  0.2774814232327513  1.0000
  H   H1072     1.0  0.2398364212778424  0.8898391605683631  0.2968026803898869  1.0000
  H   H1073     1.0  0.2625411420628005  0.8995903879743019  0.266981464588323  1.0000
  H   H1074     1.0  0.317387368129787  0.9565908046921883  0.3078973685692284  1.0000
  H   H1075     1.0  0.29446525545816227  0.9590036872637143  0.2834333531090185  1.0000
  H   H1076     1.0  0.30781730818701125  0.9381707605422713  0.2736502721819463  1.0000
  N   N68       1.0  0.29626460050704817  0.2222446202509237  0.45073849853965026  1.0000
  C   C677      1.0  0.2727509133426884  0.21876890580264788  0.4658719070011398  1.0000
  C   C678      1.0  0.30730759783404293  0.2465848602227939  0.43235898090216845  1.0000
  C   C679      1.0  0.2890551870731016  0.19851702533421936  0.4317592333808725  1.0000
  C   C680      1.0  0.31599183806358716  0.22510934835218654  0.4730555730994767  1.0000
  H   H1077     1.0  0.2642239414934047  0.20078124037141373  0.480334574984004  1.0000
  H   H1078     1.0  0.25720942356053716  0.2162119359076513  0.449881748870691  1.0000
  H   H1079     1.0  0.2774764089910596  0.23633849945299634  0.4803635462512971  1.0000
  H   H1080     1.0  0.3250933894236187  0.24969211484547535  0.42067948993311344  1.0000
  H   H1081     1.0  0.29291394782546215  0.24517750197373978  0.41533227033754255  1.0000
  H   H1082     1.0  0.3130378101747629  0.26482243343365736  0.4461385284050475  1.0000
  H   H1083     1.0  0.2742347541089579  0.195675066563066  0.4145996756235779  1.0000
  H   H1084     1.0  0.28070059623472693  0.17979617517137403  0.4450259733996485  1.0000
  H   H1085     1.0  0.30643214539481023  0.20023575257341505  0.42037861106521346  1.0000
  H   H1086     1.0  0.33405858483483375  0.22767383214402476  0.46257909425133525  1.0000
  H   H1087     1.0  0.30834626519682734  0.20697199983930323  0.4869808915417166  1.0000
  H   H1088     1.0  0.32149490149798227  0.2423967158985558  0.4883343556562028  1.0000
