data_image0
_chemical_formula_structural       C2H3C2H5CHC2H6NC2HCHCH4NCH3C2H3CHCHC2H2CHNHCHCH4SHCH2CS2H2SHC5NHSCFeSHFeS2FeSFeHSFeS2FeS2FeHFeHS4H2CHC7H5C6H4C5H3CSCH3FeSCH5SHSHC2NH2CH2CFeCHCHS2CH3CH7CH6CHC2HNFeSHNH4CHC3SHC2FeSFeH3FeCS2FeSCFeH2CHCHNHSCHCSCH3CH2CH2C2H3CHCSHFeSFeSCHSHCH2SHFe2HC2HSHCHCHFeCH6C2HSHCH2CHSH3FeS2FeCH5SNSHCSH2C3NC3HC3H2CHCH4FeH3S2H2C3H3CH2C3HCH2CHCH3FeH6CSH2FeH3CFeCHCHSCHSNHCFeSNHC4H2CHCH3CSCH3CHSH2C2HCNHCH3SHSFeHCH2NH2C2H2C2H2C2SCH2CSHFeHC2FeS2C3FeH2SHSHCH2NHCH2C2HC2HCH4SHSH4C2S2HCSFeHSFeHC4SFeHCSCFe2CNH2CSH3CSH4C2HFeH3CH2C3H3NCHCHCHCH2NHC2H4CHCSNHSHC2HCHC3HCH4CHC2H4CHCH3SH2C2HCHC2H2CH2CSFeS2FeHFeC2SHFeS2FeCFeHSH2SCH3SCNH2C6H3C2H2SFeH2CHFeCHC2SHNHCSH8C3H3C3H3CSH2CHC4SCHCH2C3H3CHSHCH5CS3CH2FeCHNHSCH3CH2SNH3CHCFeH2C3H2FeH2CFeHFeSHFeSCSHCFeSHFe2H2C4HCH3C2HCHS2C2HCHCSHS2FeC2H2CNH3CH3CFeCSHCH2CH5SCS2NCHCH3CH7CSH3CH4CH2NH6CH4FeSFeS2FeSFeS3FeS2FeHSFe2S3H2C6H2S2HC6H4C6H5SH2SHC2H2NC4H12CH2SHSC3SHCHCFeH5NHNCH2CH7CH2CHC2FeS3FeHS2FeH3CFeH2CHCFeH3NHCH2CHCHCSHCH4NHCHC3HCH3SHCHSHCH3CHCH3C2HNFeH7C2H2CHCH3SH2SC2NCHCSC2SH5CH2CH4SH3C2H3NC2SNH2C4H2CH5SH4CHCFeSCFeSHFeSFeS2FeHSFeS2FeHFeHS2NHSC6H2C2H2CH3C7H4C5H3CH2SCS2CHCH3SCH8SHNCH3N2H3C3HCHC2H3SH4C3HCH2FeHCS2NSFeSHFeSFeS2HFeSFeS2FeHFeS2HC2H2CH3C6H4C7H2CH2C6H2SHCH3CNH2CH4SNHCH2CHCNC4H10FeCSH3CH2FeSCHSFeCSHCH2C3H3CNC2HCNHCHSH5CH2CH6C3HC2HCHCFeHNSHCH2CHSH14CH5C2H3SCH3C2H7SHFeCHCH2NHCFe2HCHSC2SH2NHS2FeSHSFeSCHCH2C2HC2H3NC4H8SH5SCHCH6C2SHCH5CSH3SFeSHFe2S2FeS2FeSFe2S3H2C6H4C6H6CFeC2HC3HFeHCSH2SH2SHSHNC4H12C2H3C2HSHCHC2HCNCHCSHC2H4CS2CHSCH2CH3C3H2FeCNSH2S2HC2H2C2H2SNS2FeNH5FeH3CHSC2H2NH2C2H3C2H3C2NH2CHC3FeSHCHFeHFeSHSCFeSCSHFeHSHCH7CH2C2HSHC2H2SHFeHSH2C4H3C2H2CH6SFeCSCNH5CHC4S2H2CHCHNH2C3HSC3HSH7NH3CH2CSCH2C2H2SFeS2Fe3S3HFeS2CHFeCSCHCHC7H2CH2CH3CSHCH2NCSCFeH2CH3CH2C2FeCH5C2HNHCHFeHC2H4CH2CH2CH2FeSHSC3HCH2CHCHC3HCH2SH6CNCHCH2CHCH3SC3H2CHCH3C2H2C2HSCNH2CSCHC2H2SC2H3SHNHCNCH2CH6SHSHC2HCHS3CSH3FeCSH2CH5CHSCHFe3CHFeSFeNS2H8Fe2C2H3CHC4H3CHCHC2HFeSHCHCSH2NHS3C2HCH2CHNC3HCH2CH2C2HCHCH2NSH2C4HCH6CH2CHCH2C2H4FeS2C2H2CH5CHCFeCS2CH2CH2C2H4CNCH2FeH2SC2H2FeNH3C3SCSCH2CH2C2HCSCH2FeSFeSHSHFeSCFeH2FeH5SCSNH4CSCH2C2SHCH3CH3CH3CHCHNHC2H3CH3C3HNHSH2CH3Fe2C2FeHFeS2FeS2Fe2HFeS2H3CHC4H2SHC2H3CHSH2CHFeS2FeNSFeHFeS2FeS2FeCSFeSFeHS2H2C7H4S2CHCH3SC7H2CHC6H2NH3SHCHNCH3C2H3CHCH3CSHCH3NSH3SHSH4CHCH3C2HC2NH3C3H12C2H2SCSHCH2SC2HCH2C3H3C2H2CH2CH4CHC2H3SH2NCH2C2H
_chemical_formula_sum              "C800 H1280 N80 S320 Fe160"
_cell_length_a       82.7221
_cell_length_b       82.3671
_cell_length_c       36.4899
_cell_angle_alpha    90.8472
_cell_angle_beta     91.0636
_cell_angle_gamma    115.457

_space_group_name_H-M_alt    "P 1"
_space_group_IT_number       1

loop_
  _space_group_symop_operation_xyz
  'x, y, z'

loop_
  _atom_site_type_symbol
  _atom_site_label
  _atom_site_symmetry_multiplicity
  _atom_site_fract_x
  _atom_site_fract_y
  _atom_site_fract_z
  _atom_site_occupancy
  C   C1        1.0  0.14456  0.45254  0.48696  1.0000
  C   C2        1.0  0.01694  0.58086  0.04071  1.0000
  H   H1        1.0  0.10207  0.47229  0.45216  1.0000
  H   H2        1.0  0.06467  0.40126  0.07911  1.0000
  H   H3        1.0  0.13429  0.48202  0.46011  1.0000
  C   C3        1.0  0.10019  0.63085  0.46127  1.0000
  C   C4        1.0  0.09326  0.43364  0.07725  1.0000
  H   H4        1.0  0.14812  0.65294  0.02312  1.0000
  H   H5        1.0  0.04093  0.54282  0.06114  1.0000
  H   H6        1.0  0.13704  0.44040  0.47074  1.0000
  H   H7        1.0  0.06453  0.57478  0.01596  1.0000
  H   H8        1.0  0.09726  0.42245  0.08056  1.0000
  C   C5        1.0  0.07791  0.42090  0.01972  1.0000
  H   H9        1.0  0.02171  0.53502  0.03025  1.0000
  C   C6        1.0  0.15805  0.66619  0.01641  1.0000
  C   C7        1.0  0.01985  0.57906  0.47355  1.0000
  H   H10       1.0  0.03448  0.55864  0.03958  1.0000
  H   H11       1.0  0.09736  0.66394  0.41101  1.0000
  H   H12       1.0  0.07757  0.65685  0.46473  1.0000
  H   H13       1.0  0.11218  0.52001  0.47321  1.0000
  H   H14       1.0  0.00491  0.39682  0.03984  1.0000
  H   H15       1.0  0.06898  0.63318  0.45349  1.0000
  N   N1        1.0  0.12085  0.49892  0.46957  1.0000
  C   C8        1.0  0.06170  0.41313  0.07586  1.0000
  C   C9        1.0  0.12384  0.51772  0.46390  1.0000
  H   H16       1.0  0.02430  0.58338  0.06661  1.0000
  C   C10       1.0  0.02944  0.58997  0.50385  1.0000
  H   H17       1.0  0.14206  0.48200  0.05119  1.0000
  C   C11       1.0  0.14614  0.47518  0.03029  1.0000
  H   H18       1.0  0.06979  0.44837  0.07960  1.0000
  H   H19       1.0  0.09253  0.48807  0.45774  1.0000
  H   H20       1.0  0.02704  0.57613  0.45195  1.0000
  H   H21       1.0  0.14887  0.50481  0.47301  1.0000
  N   N2        1.0  0.07609  0.42766  0.05640  1.0000
  C   C12       1.0  0.07994  0.64467  0.46843  1.0000
  H   H22       1.0  0.08868  0.64033  0.39965  1.0000
  H   H23       1.0  0.04036  0.55769  0.50620  1.0000
  H   H24       1.0  0.07841  0.64140  0.49801  1.0000
  C   C13       1.0  0.10463  0.48661  0.44857  1.0000
  C   C14       1.0  0.06512  0.56165  0.01159  1.0000
  H   H25       1.0  0.11349  0.63231  0.45198  1.0000
  H   H26       1.0  0.13897  0.49943  0.42750  1.0000
  H   H27       1.0  0.12573  0.52120  0.43446  1.0000
  C   C15       1.0  0.11192  0.66251  0.47665  1.0000
  H   H28       1.0  0.11243  0.65360  0.40582  1.0000
  C   C16       1.0  0.07144  0.44300  0.05250  1.0000
  H   H29       1.0  0.09246  0.43894  0.10505  1.0000
  C   C17       1.0  0.09911  0.65151  0.41624  1.0000
  C   C18       1.0  0.16314  0.46234  0.48148  1.0000
  H   H30       1.0  0.10431  0.44460  0.06289  1.0000
  H   H31       1.0  0.10590  0.48925  0.41872  1.0000
  C   C19       1.0  0.00035  0.40575  0.49574  1.0000
  H   H32       1.0  0.08956  0.61900  0.44667  1.0000
  N   N3        1.0  0.09779  0.64740  0.45566  1.0000
  H   H33       1.0  0.09956  0.62767  0.49076  1.0000
  C   C20       1.0  0.03553  0.54573  0.03517  1.0000
  H   H34       1.0  0.05988  0.41773  0.10365  1.0000
  C   C21       1.0  0.13645  0.49624  0.45696  1.0000
  H   H35       1.0  0.13589  0.52735  0.47965  1.0000
  H   H36       1.0  0.08205  0.45426  0.03810  1.0000
  H   H37       1.0  0.08134  0.40927  0.02151  1.0000
  H   H38       1.0  0.05867  0.43903  0.03639  1.0000
  S   S1        1.0  0.02395  0.41255  0.49744  1.0000
  H   H39       1.0  0.04862  0.40846  0.06046  1.0000
  C   C22       1.0  0.00097  0.57207  0.47059  1.0000
  H   H40       1.0  0.05457  0.52656  0.02440  1.0000
  H   H41       1.0  0.07175  0.55919  0.03631  1.0000
  C   C23       1.0  0.16275  0.47430  0.03446  1.0000
  S   S2        1.0  0.07113  0.45376  0.50084  1.0000
  S   S3        1.0  0.05004  0.60089  0.01162  1.0000
  H   H42       1.0  0.11150  0.65977  0.50649  1.0000
  H   H43       1.0  0.08260  0.53764  0.49957  1.0000
  S   S4        1.0  0.05331  0.59899  0.50525  1.0000
  H   H44       1.0  0.12555  0.66481  0.46783  1.0000
  C   C24       1.0  0.11839  0.49502  0.50898  1.0000
  C   C25       1.0  0.99815  0.57065  0.03986  1.0000
  C   C26       1.0  0.08899  0.61406  0.72347  1.0000
  C   C27       1.0  0.01989  0.59373  0.53136  1.0000
  C   C28       1.0  0.01317  0.41475  0.62292  1.0000
  N   N4        1.0  0.01490  0.39765  0.62462  1.0000
  H   H45       1.0  0.01316  0.42042  0.65082  1.0000
  S   S5        1.0  0.09656  0.60144  0.54084  1.0000
  C   C29       1.0  0.04868  0.52975  0.99941  1.0000
  Fe  Fe1       1.0  0.04727  0.43434  0.53051  1.0000
  S   S6        1.0  0.04579  0.45603  0.56590  1.0000
  H   H46       1.0  0.08447  0.56244  0.90782  1.0000
  Fe  Fe2       1.0  0.08887  0.44965  0.54349  1.0000
  S   S7        1.0  0.08968  0.47195  0.58145  1.0000
  S   S8        1.0  0.07166  0.59884  0.61099  1.0000
  Fe  Fe3       1.0  0.06441  0.45088  0.60533  1.0000
  S   S9        1.0  0.05330  0.44845  0.66303  1.0000
  Fe  Fe4       1.0  0.07092  0.47495  0.53957  1.0000
  H   H47       1.0  0.03651  0.57251  0.57804  1.0000
  S   S10       1.0  0.06485  0.42814  0.57058  1.0000
  Fe  Fe5       1.0  0.06614  0.47376  0.91455  1.0000
  S   S11       1.0  0.06706  0.46353  0.97052  1.0000
  S   S12       1.0  0.06014  0.49707  0.89985  1.0000
  Fe  Fe6       1.0  0.07337  0.44517  0.87646  1.0000
  S   S13       1.0  0.07468  0.43198  0.92973  1.0000
  S   S14       1.0  0.08092  0.43750  0.82122  1.0000
  Fe  Fe7       1.0  0.05029  0.43607  0.94573  1.0000
  H   H48       1.0  0.06448  0.47784  0.83154  1.0000
  Fe  Fe8       1.0  0.09131  0.46001  0.95215  1.0000
  H   H49       1.0  0.05698  0.55863  0.60123  1.0000
  S   S15       1.0  0.04764  0.44667  0.89029  1.0000
  S   S16       1.0  0.09170  0.47291  0.89802  1.0000
  S   S17       1.0  0.10958  0.57366  0.96976  1.0000
  S   S18       1.0  0.09581  0.56823  0.62049  1.0000
  H   H50       1.0  0.05855  0.56878  0.53845  1.0000
  H   H51       1.0  0.02348  0.58978  0.95018  1.0000
  C   C30       1.0  0.08383  0.63056  0.78723  1.0000
  H   H52       1.0  0.13068  0.50333  0.52561  1.0000
  C   C31       1.0  0.07480  0.51825  0.91824  1.0000
  C   C32       1.0  0.07383  0.53360  0.90453  1.0000
  C   C33       1.0  0.08499  0.55068  0.91930  1.0000
  C   C34       1.0  0.09689  0.55250  0.94846  1.0000
  C   C35       1.0  0.09808  0.53715  0.96181  1.0000
  C   C36       1.0  0.08711  0.52003  0.94658  1.0000
  C   C37       1.0  0.13477  0.46729  0.99950  1.0000
  H   H53       1.0  0.08798  0.50822  0.95719  1.0000
  H   H54       1.0  0.99959  0.42101  0.54341  1.0000
  H   H55       1.0  0.03329  0.38805  0.64753  1.0000
  H   H56       1.0  0.02842  0.52010  0.54056  1.0000
  H   H57       1.0  0.13923  0.47827  0.55497  1.0000
  C   C38       1.0  0.06149  0.44555  0.70659  1.0000
  C   C39       1.0  0.07702  0.44292  0.71092  1.0000
  C   C40       1.0  0.08272  0.44035  0.74616  1.0000
  C   C41       1.0  0.07310  0.44059  0.77743  1.0000
  C   C42       1.0  0.05759  0.44325  0.77306  1.0000
  C   C43       1.0  0.05180  0.44565  0.73782  1.0000
  H   H58       1.0  0.08458  0.44274  0.68716  1.0000
  H   H59       1.0  0.09470  0.43822  0.74925  1.0000
  H   H60       1.0  0.04992  0.44319  0.79680  1.0000
  H   H61       1.0  0.03970  0.44754  0.73474  1.0000
  C   C44       1.0  0.08094  0.51958  0.54298  1.0000
  C   C45       1.0  0.08284  0.51796  0.58070  1.0000
  C   C46       1.0  0.08774  0.53309  0.60416  1.0000
  C   C47       1.0  0.09067  0.54984  0.59005  1.0000
  C   C48       1.0  0.08882  0.55145  0.55228  1.0000
  H   H62       1.0  0.01263  0.52246  0.57094  1.0000
  H   H63       1.0  0.08045  0.50506  0.59187  1.0000
  H   H64       1.0  0.08912  0.53179  0.63339  1.0000
  C   C49       1.0  0.11529  0.65344  0.85685  1.0000
  S   S19       1.0  0.02989  0.41639  0.98475  1.0000
  C   C50       1.0  0.99918  0.38409  0.64280  1.0000
  H   H65       1.0  0.02461  0.42511  0.60854  1.0000
  H   H66       1.0  0.06446  0.53232  0.88233  1.0000
  H   H67       1.0  0.09118  0.56432  0.54116  1.0000
  Fe  Fe9       1.0  0.09564  0.59374  0.59927  1.0000
  S   S20       1.0  0.09266  0.63730  0.56909  1.0000
  C   C51       1.0  0.14569  0.47390  0.53407  1.0000
  H   H68       1.0  0.13159  0.45211  0.94923  1.0000
  H   H69       1.0  0.10734  0.53849  0.98426  1.0000
  H   H70       1.0  0.05686  0.47738  0.78495  1.0000
  H   H71       1.0  0.05284  0.53651  0.58519  1.0000
  H   H72       1.0  0.01821  0.55319  0.59558  1.0000
  S   S21       1.0  0.11396  0.46890  0.99613  1.0000
  H   H73       1.0  0.09585  0.51860  0.75788  1.0000
  S   S22       1.0  0.07344  0.58839  0.93079  1.0000
  H   H74       1.0  0.04349  0.41092  0.63311  1.0000
  C   C52       1.0  0.14018  0.45835  0.97298  1.0000
  C   C53       1.0  0.08824  0.63064  0.72094  1.0000
  N   N5        1.0  0.08287  0.49865  0.79816  1.0000
  H   H75       1.0  0.02700  0.60220  0.55471  1.0000
  H   H76       1.0  0.08646  0.47891  0.76430  1.0000
  C   C54       1.0  0.01657  0.58446  0.97523  1.0000
  H   H77       1.0  0.00009  0.37102  0.64466  1.0000
  H   H78       1.0  0.10730  0.49774  0.51984  1.0000
  C   C55       1.0  0.03935  0.55054  0.97019  1.0000
  Fe  Fe10      1.0  0.07383  0.60861  0.55322  1.0000
  C   C56       1.0  0.01580  0.39121  0.58699  1.0000
  H   H79       1.0  0.00066  0.41301  0.60800  1.0000
  C   C57       1.0  0.03139  0.40059  0.64579  1.0000
  H   H80       1.0  0.01721  0.37837  0.58702  1.0000
  S   S23       1.0  0.11211  0.44523  0.51852  1.0000
  S   S24       1.0  0.09997  0.61506  0.99634  1.0000
  C   C58       1.0  0.08217  0.50921  0.76625  1.0000
  H   H81       1.0  0.08870  0.43150  0.00431  1.0000
  H   H82       1.0  0.15598  0.65424  0.84129  1.0000
  H   H83       1.0  0.07475  0.51740  0.77252  1.0000
  C   C59       1.0  0.09273  0.48793  0.78861  1.0000
  H   H84       1.0  0.10688  0.49666  0.78199  1.0000
  H   H85       1.0  0.02742  0.40115  0.57231  1.0000
  H   H86       1.0  0.09087  0.60753  0.69904  1.0000
  H   H87       1.0  0.00286  0.42059  0.93702  1.0000
  H   H88       1.0  0.14469  0.65157  0.88396  1.0000
  H   H89       1.0  0.09264  0.50347  0.85416  1.0000
  H   H90       1.0  0.07532  0.50029  0.74209  1.0000
  C   C60       1.0  0.09208  0.51100  0.82946  1.0000
  H   H91       1.0  0.10605  0.52039  0.82301  1.0000
  H   H92       1.0  0.08494  0.51925  0.83742  1.0000
  H   H93       1.0  0.05682  0.49409  0.81719  1.0000
  H   H94       1.0  0.09291  0.47921  0.81156  1.0000
  H   H95       1.0  0.03769  0.53955  0.61613  1.0000
  H   H96       1.0  0.01398  0.52991  0.52457  1.0000
  C   C61       1.0  0.06444  0.48645  0.80830  1.0000
  H   H97       1.0  0.08761  0.59288  0.75909  1.0000
  C   C62       1.0  0.04621  0.54535  0.59215  1.0000
  C   C63       1.0  0.12998  0.65658  0.79911  1.0000
  H   H98       1.0  0.05753  0.53034  0.97632  1.0000
  N   N6        1.0  0.04715  0.54689  0.00410  1.0000
  Fe  Fe11      1.0  0.10077  0.59519  0.95445  1.0000
  S   S25       1.0  0.13593  0.66419  0.95562  1.0000
  H   H99       1.0  0.01774  0.55914  0.54865  1.0000
  N   N7        1.0  0.03566  0.54708  0.56054  1.0000
  H   H100      1.0  0.04745  0.55083  0.94594  1.0000
  H   H101      1.0  0.00362  0.38896  0.57013  1.0000
  H   H102      1.0  0.08117  0.63668  0.81136  1.0000
  H   H103      1.0  0.03121  0.40561  0.67425  1.0000
  C   C64       1.0  0.04772  0.55543  0.52999  1.0000
  H   H104      1.0  0.13506  0.63501  0.84757  1.0000
  C   C65       1.0  0.00631  0.40958  0.98804  1.0000
  C   C66       1.0  0.08398  0.53634  0.52878  1.0000
  C   C67       1.0  0.02664  0.55845  0.57125  1.0000
  S   S26       1.0  0.08203  0.60252  0.83157  1.0000
  H   H105      1.0  0.08482  0.65158  0.75117  1.0000
  C   C68       1.0  0.14260  0.64971  0.85362  1.0000
  C   C69       1.0  0.08571  0.63888  0.75301  1.0000
  Fe  Fe12      1.0  0.08746  0.61090  0.89207  1.0000
  S   S27       1.0  0.08492  0.63169  0.92973  1.0000
  Fe  Fe13      1.0  0.07284  0.60915  0.97027  1.0000
  H   H106      1.0  0.14289  0.66134  0.78474  1.0000
  H   H107      1.0  0.03876  0.56378  0.97216  1.0000
  H   H108      1.0  0.12224  0.64198  0.79208  1.0000
  Fe  Fe14      1.0  0.11218  0.63590  0.95331  1.0000
  C   C70       1.0  0.08716  0.60579  0.75761  1.0000
  S   S28       1.0  0.09041  0.64134  0.67826  1.0000
  S   S29       1.0  0.11492  0.61616  0.91352  1.0000
  Fe  Fe15      1.0  0.11536  0.62964  0.55958  1.0000
  S   S30       1.0  0.11632  0.62108  0.61775  1.0000
  C   C71       1.0  0.08468  0.61400  0.78970  1.0000
  Fe  Fe16      1.0  0.09235  0.62673  0.62631  1.0000
  H   H109      1.0  0.10724  0.63873  0.85224  1.0000
  H   H110      1.0  0.05427  0.54692  0.52028  1.0000
  C   C72       1.0  0.02206  0.52907  0.54863  1.0000
  H   H111      1.0  0.02547  0.54010  0.96446  1.0000
  C   C73       1.0  0.15677  0.45739  0.97727  1.0000
  H   H112      1.0  0.11501  0.48067  0.51403  1.0000
  N   N8        1.0  0.13280  0.65973  0.83922  1.0000
  H   H113      1.0  0.11692  0.65603  0.88700  1.0000
  S   S31       1.0  0.07473  0.50087  0.51304  1.0000
  C   C74       1.0  0.13566  0.45821  0.51321  1.0000
  H   H114      1.0  0.07404  0.56323  0.98828  1.0000
  C   C75       1.0  0.00105  0.58702  0.52803  1.0000
  S   S32       1.0  0.13864  0.64276  0.52017  1.0000
  C   C76       1.0  0.15644  0.66468  0.51561  1.0000
  H   H115      1.0  0.16078  0.45039  0.95660  1.0000
  H   H116      1.0  0.06522  0.41639  0.00311  1.0000
  H   H117      1.0  0.03541  0.51831  0.99331  1.0000
  C   C77       1.0  0.02632  0.58782  0.00845  1.0000
  H   H118      1.0  0.12225  0.66359  0.78733  1.0000
  H   H119      1.0  0.10728  0.66033  0.84602  1.0000
  C   C78       1.0  0.16428  0.48365  0.52874  1.0000
  H   H120      1.0  0.99805  0.38860  0.67116  1.0000
  H   H121      1.0  0.11056  0.67527  0.47336  1.0000
  C   C79       1.0  0.15540  0.67452  0.98518  1.0000
  C   C80       1.0  0.15746  0.67966  0.53585  1.0000
  H   H122      1.0  0.14739  0.67806  0.55578  1.0000
  H   H123      1.0  0.14557  0.68182  0.87774  1.0000
  H   H124      1.0  0.13621  0.68708  0.83729  1.0000
  C   C81       1.0  0.14330  0.67914  0.84755  1.0000
  H   H125      1.0  0.15665  0.68442  0.83480  1.0000
  C   C82       1.0  0.16968  0.66715  0.48972  1.0000
  S   S33       1.0  0.22094  0.46718  0.42741  1.0000
  H   H126      1.0  0.27893  0.55195  0.04039  1.0000
  Fe  Fe17      1.0  0.21825  0.48939  0.45965  1.0000
  S   S34       1.0  0.22628  0.50793  0.41183  1.0000
  Fe  Fe18      1.0  0.21597  0.48266  0.04064  1.0000
  S   S35       1.0  0.22034  0.50334  0.08565  1.0000
  C   C83       1.0  0.31032  0.46611  0.50602  1.0000
  H   H127      1.0  0.29933  0.47604  0.15233  1.0000
  S   S36       1.0  0.23650  0.47379  0.06431  1.0000
  H   H128      1.0  0.28978  0.49054  0.16918  1.0000
  C   C84       1.0  0.22472  0.48172  0.21277  1.0000
  H   H129      1.0  0.21603  0.47742  0.18858  1.0000
  H   H130      1.0  0.21426  0.43782  0.31273  1.0000
  S   S37       1.0  0.21866  0.47615  0.32346  1.0000
  H   H131      1.0  0.24809  0.43140  0.39593  1.0000
  Fe  Fe19      1.0  0.23086  0.48654  0.38083  1.0000
  Fe  Fe20      1.0  0.24205  0.49587  0.10724  1.0000
  H   H132      1.0  0.20754  0.52463  0.03328  1.0000
  C   C85       1.0  0.30056  0.49003  0.15186  1.0000
  C   C86       1.0  0.22849  0.48283  0.27989  1.0000
  H   H133      1.0  0.22509  0.41502  0.39096  1.0000
  S   S38       1.0  0.25340  0.49595  0.16530  1.0000
  H   H134      1.0  0.29748  0.44755  0.01868  1.0000
  C   C87       1.0  0.24614  0.45453  0.34720  1.0000
  H   H135      1.0  0.27025  0.48292  0.11448  1.0000
  C   C88       1.0  0.21744  0.47740  0.24798  1.0000
  H   H136      1.0  0.20313  0.46981  0.25049  1.0000
  Fe  Fe21      1.0  0.24148  0.52232  0.04897  1.0000
  C   C89       1.0  0.24323  0.49126  0.20898  1.0000
  H   H137      1.0  0.17118  0.48022  0.05858  1.0000
  H   H138      1.0  0.24223  0.46297  0.36562  1.0000
  H   H139      1.0  0.22122  0.52621  0.48155  1.0000
  H   H140      1.0  0.26009  0.45706  0.35522  1.0000
  H   H141      1.0  0.23051  0.43733  0.40803  1.0000
  H   H142      1.0  0.31245  0.48082  0.08960  1.0000
  C   C90       1.0  0.23431  0.42945  0.38773  1.0000
  C   C91       1.0  0.19508  0.51515  0.01865  1.0000
  H   H143      1.0  0.31364  0.49907  0.16515  1.0000
  S   S39       1.0  0.24662  0.49977  0.48309  1.0000
  H   H144      1.0  0.32693  0.50366  0.10336  1.0000
  C   C92       1.0  0.30056  0.51404  0.11479  1.0000
  H   H145      1.0  0.18367  0.51402  0.03576  1.0000
  H   H146      1.0  0.21444  0.65157  0.04468  1.0000
  C   C93       1.0  0.29614  0.46980  0.49141  1.0000
  H   H147      1.0  0.24539  0.65599  0.03147  1.0000
  S   S40       1.0  0.18932  0.46433  0.01120  1.0000
  H   H148      1.0  0.30851  0.57657  0.02743  1.0000
  H   H149      1.0  0.25251  0.42614  0.33007  1.0000
  H   H150      1.0  0.31768  0.40122  0.49353  1.0000
  Fe  Fe22      1.0  0.25004  0.47903  0.44692  1.0000
  S   S41       1.0  0.25984  0.49707  0.39853  1.0000
  S   S42       1.0  0.26336  0.51678  0.07385  1.0000
  Fe  Fe23      1.0  0.25690  0.49525  0.03024  1.0000
  C   C94       1.0  0.25429  0.49660  0.24091  1.0000
  H   H151      1.0  0.29958  0.51863  0.08659  1.0000
  H   H152      1.0  0.26862  0.50401  0.23840  1.0000
  H   H153      1.0  0.29893  0.60176  0.50824  1.0000
  H   H154      1.0  0.24614  0.45950  0.31896  1.0000
  H   H155      1.0  0.21092  0.44103  0.35996  1.0000
  S   S43       1.0  0.19679  0.49076  0.49769  1.0000
  N   N9        1.0  0.23356  0.43536  0.34992  1.0000
  S   S44       1.0  0.24285  0.54931  0.03250  1.0000
  H   H156      1.0  0.32194  0.39284  0.42965  1.0000
  C   C95       1.0  0.28144  0.48313  0.09775  1.0000
  S   S45       1.0  0.26104  0.45840  0.46017  1.0000
  H   H157      1.0  0.25568  0.49689  0.30031  1.0000
  H   H158      1.0  0.27745  0.46290  0.02357  1.0000
  C   C96       1.0  0.28194  0.55876  0.47365  1.0000
  C   C97       1.0  0.27968  0.56421  0.02874  1.0000
  C   C98       1.0  0.31343  0.49472  0.09166  1.0000
  N   N10       1.0  0.29902  0.49548  0.11402  1.0000
  C   C99       1.0  0.28320  0.55002  0.50538  1.0000
  C   C100      1.0  0.29645  0.57819  0.02135  1.0000
  C   C101      1.0  0.28792  0.57748  0.47474  1.0000
  H   H159      1.0  0.28971  0.51503  0.13102  1.0000
  C   C102      1.0  0.21518  0.43303  0.34077  1.0000
  C   C103      1.0  0.27982  0.45563  0.47926  1.0000
  C   C104      1.0  0.27799  0.43797  0.48183  1.0000
  H   H160      1.0  0.20526  0.41873  0.34217  1.0000
  H   H161      1.0  0.28000  0.46909  0.09544  1.0000
  C   C105      1.0  0.24698  0.49258  0.27613  1.0000
  H   H162      1.0  0.28691  0.58428  0.45025  1.0000
  C   C106      1.0  0.23866  0.42456  0.32394  1.0000
  H   H163      1.0  0.31270  0.49906  0.06312  1.0000
  H   H164      1.0  0.22946  0.40999  0.32526  1.0000
  H   H165      1.0  0.26556  0.42688  0.47286  1.0000
  H   H166      1.0  0.31358  0.52372  0.12730  1.0000
  Fe  Fe24      1.0  0.25452  0.51693  0.43335  1.0000
  H   H167      1.0  0.29785  0.48353  0.48961  1.0000
  H   H168      1.0  0.33024  0.42477  0.44793  1.0000
  H   H169      1.0  0.23822  0.42876  0.29519  1.0000
  S   S46       1.0  0.27246  0.54675  0.43252  1.0000
  S   S47       1.0  0.30820  0.66518  0.49772  1.0000
  H   H170      1.0  0.27947  0.48729  0.06985  1.0000
  H   H171      1.0  0.16900  0.65570  0.47368  1.0000
  C   C107      1.0  0.26403  0.56633  0.02191  1.0000
  C   C108      1.0  0.24667  0.66718  0.01327  1.0000
  C   C109      1.0  0.29481  0.58740  0.50753  1.0000
  H   H172      1.0  0.16971  0.45768  0.46131  1.0000
  H   H173      1.0  0.22750  0.54980  0.47662  1.0000
  H   H174      1.0  0.19550  0.50185  0.01780  1.0000
  C   C110      1.0  0.17318  0.47793  0.50252  1.0000
  H   H175      1.0  0.28992  0.42052  0.49828  1.0000
  H   H176      1.0  0.27888  0.53561  0.50456  1.0000
  C   C111      1.0  0.29190  0.43433  0.49632  1.0000
  C   C112      1.0  0.23107  0.53988  0.49080  1.0000
  C   C113      1.0  0.30818  0.44823  0.50864  1.0000
  H   H177      1.0  0.24432  0.54167  0.48081  1.0000
  C   C114      1.0  0.21637  0.66257  0.02544  1.0000
  H   H178      1.0  0.20463  0.66606  0.56596  1.0000
  H   H179      1.0  0.31692  0.41892  0.87348  1.0000
  C   C115      1.0  0.19553  0.53989  0.98361  1.0000
  H   H180      1.0  0.30635  0.55576  0.87681  1.0000
  C   C116      1.0  0.32212  0.63887  0.72034  1.0000
  H   H181      1.0  0.21155  0.65638  0.99770  1.0000
  H   H182      1.0  0.20673  0.50647  0.95645  1.0000
  H   H183      1.0  0.31306  0.61518  0.75331  1.0000
  Fe  Fe25      1.0  0.32172  0.63488  0.96312  1.0000
  H   H184      1.0  0.33053  0.43963  0.89690  1.0000
  H   H185      1.0  0.28974  0.55666  0.90679  1.0000
  H   H186      1.0  0.23752  0.53053  0.57887  1.0000
  H   H187      1.0  0.24313  0.66161  0.98474  1.0000
  H   H188      1.0  0.33052  0.38975  0.51050  1.0000
  H   H189      1.0  0.27981  0.43164  0.85107  1.0000
  C   C117      1.0  0.26523  0.58237  0.00672  1.0000
  S   S48       1.0  0.30067  0.63577  0.92456  1.0000
  H   H190      1.0  0.19442  0.54495  0.95602  1.0000
  H   H191      1.0  0.17424  0.49519  0.96206  1.0000
  Fe  Fe26      1.0  0.32198  0.64310  0.88237  1.0000
  H   H192      1.0  0.28095  0.41933  0.89054  1.0000
  H   H193      1.0  0.30926  0.60621  0.91420  1.0000
  H   H194      1.0  0.29920  0.46051  0.88395  1.0000
  C   C118      1.0  0.32292  0.59119  0.86454  1.0000
  Fe  Fe27      1.0  0.31968  0.65574  0.54517  1.0000
  C   C119      1.0  0.30041  0.59238  0.90412  1.0000
  H   H195      1.0  0.20343  0.52472  0.53570  1.0000
  C   C120      1.0  0.31073  0.49376  0.97451  1.0000
  H   H196      1.0  0.29022  0.56329  0.85992  1.0000
  S   S49       1.0  0.31902  0.61142  0.99771  1.0000
  C   C121      1.0  0.29019  0.55996  0.53819  1.0000
  H   H197      1.0  0.29078  0.58582  0.92614  1.0000
  S   S50       1.0  0.30437  0.59076  0.58088  1.0000
  N   N11       1.0  0.31102  0.58238  0.89507  1.0000
  H   H198      1.0  0.31993  0.63147  0.69458  1.0000
  C   C122      1.0  0.31644  0.42990  0.89096  1.0000
  Fe  Fe28      1.0  0.31290  0.66532  0.93947  1.0000
  S   S51       1.0  0.23608  0.50216  0.00329  1.0000
  N   N12       1.0  0.30642  0.43876  0.87259  1.0000
  H   H199      1.0  0.29109  0.55315  0.56273  1.0000
  C   C123      1.0  0.32208  0.48503  0.97150  1.0000
  C   C124      1.0  0.31506  0.44643  0.83785  1.0000
  C   C125      1.0  0.29462  0.48598  0.99356  1.0000
  C   C126      1.0  0.20785  0.52044  0.95864  1.0000
  H   H200      1.0  0.25064  0.53135  0.53977  1.0000
  H   H201      1.0  0.29997  0.44795  0.92329  1.0000
  C   C127      1.0  0.31823  0.62967  0.75365  1.0000
  H   H202      1.0  0.24535  0.56281  0.57218  1.0000
  C   C128      1.0  0.31742  0.46834  0.98748  1.0000
  H   H203      1.0  0.25783  0.56385  0.53203  1.0000
  H   H204      1.0  0.20724  0.52503  0.93037  1.0000
  H   H205      1.0  0.24016  0.57081  0.52993  1.0000
  C   C129      1.0  0.29594  0.57867  0.53935  1.0000
  S   S52       1.0  0.32975  0.63557  0.52792  1.0000
  C   C130      1.0  0.23708  0.52923  0.54844  1.0000
  H   H206      1.0  0.29278  0.59367  0.87972  1.0000
  H   H207      1.0  0.31450  0.50667  0.96203  1.0000
  H   H208      1.0  0.22138  0.52910  0.97066  1.0000
  C   C131      1.0  0.30644  0.45330  0.89685  1.0000
  H   H209      1.0  0.28738  0.41426  0.84658  1.0000
  S   S53       1.0  0.31587  0.62723  0.82866  1.0000
  H   H210      1.0  0.18508  0.54095  0.00098  1.0000
  H   H211      1.0  0.25318  0.58412  0.00145  1.0000
  C   C132      1.0  0.28779  0.42540  0.86483  1.0000
  C   C133      1.0  0.29879  0.56368  0.88413  1.0000
  H   H212      1.0  0.32278  0.47704  0.51538  1.0000
  C   C134      1.0  0.32097  0.63915  0.78727  1.0000
  N   N13       1.0  0.23142  0.54214  0.53111  1.0000
  H   H213      1.0  0.17187  0.49554  0.54553  1.0000
  C   C135      1.0  0.32870  0.65762  0.72049  1.0000
  H   H214      1.0  0.30789  0.45322  0.82311  1.0000
  H   H215      1.0  0.32035  0.46342  0.90379  1.0000
  H   H216      1.0  0.31511  0.59137  0.83945  1.0000
  S   S54       1.0  0.30514  0.63992  0.59359  1.0000
  H   H217      1.0  0.20884  0.54916  0.99594  1.0000
  S   S55       1.0  0.32483  0.44174  0.52657  1.0000
  Fe  Fe29      1.0  0.31748  0.62118  0.57882  1.0000
  H   H218      1.0  0.21310  0.54034  0.57356  1.0000
  C   C136      1.0  0.24420  0.56070  0.54186  1.0000
  H   H219      1.0  0.31058  0.42424  0.91769  1.0000
  H   H220      1.0  0.28285  0.60866  0.98746  1.0000
  N   N14       1.0  0.19357  0.52120  0.98137  1.0000
  H   H221      1.0  0.31338  0.57625  0.95146  1.0000
  H   H222      1.0  0.20852  0.54805  0.53039  1.0000
  C   C137      1.0  0.17589  0.50930  0.96471  1.0000
  C   C138      1.0  0.21331  0.53870  0.54327  1.0000
  H   H223      1.0  0.17411  0.51364  0.93681  1.0000
  H   H224      1.0  0.22774  0.51508  0.54078  1.0000
  C   C139      1.0  0.32194  0.58236  0.92760  1.0000
  C   C140      1.0  0.30131  0.46055  0.00655  1.0000
  H   H225      1.0  0.31553  0.43584  0.81910  1.0000
  H   H226      1.0  0.32976  0.66535  0.81296  1.0000
  C   C141      1.0  0.16829  0.46553  0.00778  1.0000
  C   C142      1.0  0.32762  0.65789  0.78735  1.0000
  S   S56       1.0  0.28101  0.49780  0.99643  1.0000
  C   C143      1.0  0.28202  0.59628  0.99877  1.0000
  H   H227      1.0  0.32885  0.57248  0.55953  1.0000
  H   H228      1.0  0.32919  0.45651  0.84279  1.0000
  C   C144      1.0  0.29768  0.59427  0.00647  1.0000
  S   S57       1.0  0.33069  0.45624  0.98311  1.0000
  H   H229      1.0  0.32994  0.57470  0.92213  1.0000
  Fe  Fe30      1.0  0.33125  0.65582  0.62444  1.0000
  H   H230      1.0  0.16472  0.50906  0.98164  1.0000
  C   C145      1.0  0.28995  0.46927  0.00953  1.0000
  C   C146      1.0  0.30137  0.83262  0.50254  1.0000
  Fe  Fe31      1.0  0.23264  0.72813  0.06825  1.0000
  S   S58       1.0  0.24720  0.72447  0.11803  1.0000
  S   S59       1.0  0.27613  0.78736  0.01133  1.0000
  C   C147      1.0  0.18756  0.72764  0.11573  1.0000
  C   C148      1.0  0.20680  0.72342  0.16139  1.0000
  C   C149      1.0  0.29805  0.82028  0.04642  1.0000
  Fe  Fe32      1.0  0.22936  0.73290  0.47075  1.0000
  H   H231      1.0  0.17515  0.66854  0.06360  1.0000
  H   H232      1.0  0.29076  0.80801  0.31595  1.0000
  S   S60       1.0  0.23990  0.75482  0.42871  1.0000
  H   H233      1.0  0.21878  0.73025  0.14460  1.0000
  S   S61       1.0  0.23843  0.75665  0.08502  1.0000
  H   H234      1.0  0.18109  0.71300  0.10842  1.0000
  C   C150      1.0  0.18374  0.68431  0.48406  1.0000
  H   H235      1.0  0.31412  0.84626  0.07206  1.0000
  H   H236      1.0  0.21404  0.75756  0.14544  1.0000
  N   N15       1.0  0.19370  0.73090  0.15463  1.0000
  H   H237      1.0  0.18247  0.72426  0.20797  1.0000
  C   C151      1.0  0.20230  0.75046  0.16298  1.0000
  H   H238      1.0  0.26107  0.67687  0.01385  1.0000
  H   H239      1.0  0.29141  0.68127  0.45031  1.0000
  C   C152      1.0  0.29992  0.68127  0.50654  1.0000
  C   C153      1.0  0.24791  0.75368  0.30041  1.0000
  H   H240      1.0  0.29169  0.77068  0.37024  1.0000
  C   C154      1.0  0.24519  0.75924  0.26529  1.0000
  C   C155      1.0  0.17824  0.72204  0.17845  1.0000
  H   H241      1.0  0.29265  0.81389  0.07192  1.0000
  C   C156      1.0  0.18469  0.69933  0.50411  1.0000
  H   H242      1.0  0.19362  0.68596  0.46368  1.0000
  H   H243      1.0  0.26604  0.78754  0.35395  1.0000
  H   H244      1.0  0.23848  0.76793  0.26270  1.0000
  H   H245      1.0  0.16805  0.72733  0.17402  1.0000
  S   S62       1.0  0.24317  0.71712  0.44650  1.0000
  H   H246      1.0  0.24321  0.75797  0.32448  1.0000
  S   S63       1.0  0.24720  0.76097  0.18988  1.0000
  H   H247      1.0  0.20111  0.70880  0.15422  1.0000
  H   H248      1.0  0.20747  0.75340  0.19191  1.0000
  H   H249      1.0  0.21166  0.72544  0.19054  1.0000
  H   H250      1.0  0.29827  0.82437  0.35310  1.0000
  C   C157      1.0  0.31024  0.83868  0.04637  1.0000
  C   C158      1.0  0.27540  0.79248  0.37815  1.0000
  S   S64       1.0  0.28026  0.76403  0.10453  1.0000
  S   S65       1.0  0.29007  0.72124  0.08727  1.0000
  H   H251      1.0  0.26420  0.73789  0.21329  1.0000
  C   C159      1.0  0.17345  0.67512  0.03936  1.0000
  S   S66       1.0  0.27985  0.75533  0.44377  1.0000
  Fe  Fe33      1.0  0.26620  0.73385  0.48457  1.0000
  H   H252      1.0  0.30488  0.81578  0.41467  1.0000
  S   S67       1.0  0.20556  0.70298  0.06205  1.0000
  Fe  Fe34      1.0  0.27196  0.73544  0.08486  1.0000
  H   H253      1.0  0.30373  0.69498  0.07504  1.0000
  C   C160      1.0  0.18657  0.69242  0.03138  1.0000
  C   C161      1.0  0.26242  0.73687  0.27244  1.0000
  C   C162      1.0  0.30002  0.69836  0.04861  1.0000
  C   C163      1.0  0.29316  0.71124  0.04664  1.0000
  S   S68       1.0  0.20192  0.72143  0.49795  1.0000
  Fe  Fe35      1.0  0.25541  0.74010  0.40722  1.0000
  H   H254      1.0  0.26917  0.72821  0.27499  1.0000
  C   C164      1.0  0.29943  0.81238  0.34129  1.0000
  S   S69       1.0  0.25726  0.73716  0.03404  1.0000
  C   C165      1.0  0.25961  0.74234  0.23735  1.0000
  Fe  Fe36      1.0  0.26450  0.76564  0.05484  1.0000
  Fe  Fe37      1.0  0.26402  0.76916  0.46695  1.0000
  C   C166      1.0  0.30594  0.80407  0.40109  1.0000
  N   N16       1.0  0.29415  0.79775  0.36790  1.0000
  H   H255      1.0  0.17156  0.70725  0.17292  1.0000
  H   H256      1.0  0.27996  0.70427  0.46139  1.0000
  C   C167      1.0  0.25101  0.75361  0.23353  1.0000
  S   S70       1.0  0.27596  0.79981  0.47579  1.0000
  H   H257      1.0  0.29158  0.83756  0.49528  1.0000
  H   H258      1.0  0.19896  0.73394  0.09698  1.0000
  H   H259      1.0  0.28696  0.77690  0.32608  1.0000
  C   C168      1.0  0.29716  0.81429  0.49630  1.0000
  S   S71       1.0  0.26101  0.73538  0.34767  1.0000
  H   H260      1.0  0.19285  0.75665  0.15852  1.0000
  H   H261      1.0  0.27111  0.78152  0.39822  1.0000
  H   H262      1.0  0.31353  0.81674  0.33299  1.0000
  H   H263      1.0  0.27366  0.80387  0.39141  1.0000
  C   C169      1.0  0.28579  0.69994  0.48382  1.0000
  C   C170      1.0  0.29576  0.78208  0.35109  1.0000
  H   H264      1.0  0.20749  0.66889  0.03419  1.0000
  Fe  Fe38      1.0  0.25391  0.75306  0.13359  1.0000
  H   H265      1.0  0.30706  0.79413  0.50093  1.0000
  H   H266      1.0  0.32023  0.80819  0.39463  1.0000
  H   H267      1.0  0.30221  0.79340  0.42189  1.0000
  C   C171      1.0  0.25661  0.74247  0.30420  1.0000
  H   H268      1.0  0.30973  0.78546  0.34311  1.0000
  H   H269      1.0  0.17776  0.73321  0.10939  1.0000
  C   C172      1.0  0.29230  0.68694  0.47761  1.0000
  C   C173      1.0  0.28846  0.71559  0.01246  1.0000
  C   C174      1.0  0.31003  0.80815  0.50552  1.0000
  H   H270      1.0  0.32787  0.67073  0.42831  1.0000
  H   H271      1.0  0.30667  0.67936  0.01846  1.0000
  H   H272      1.0  0.22040  0.69474  0.50695  1.0000
  N   N17       1.0  0.23531  0.67596  0.02525  1.0000
  C   C175      1.0  0.30172  0.68954  0.01663  1.0000
  H   H273      1.0  0.25512  0.69436  0.06328  1.0000
  C   C176      1.0  0.29241  0.81035  0.01339  1.0000
  H   H274      1.0  0.24042  0.67340  0.08246  1.0000
  C   C177      1.0  0.31733  0.84740  0.01349  1.0000
  H   H275      1.0  0.23251  0.69008  0.07291  1.0000
  C   C178      1.0  0.24108  0.68377  0.06260  1.0000
  H   H276      1.0  0.28368  0.72586  0.01052  1.0000
  H   H277      1.0  0.23941  0.68698  0.61181  1.0000
  N   N18       1.0  0.31425  0.84278  0.63564  1.0000
  H   H278      1.0  0.32273  0.87132  0.63148  1.0000
  C   C179      1.0  0.16855  0.69182  0.97716  1.0000
  C   C180      1.0  0.29451  0.70162  0.54794  1.0000
  H   H279      1.0  0.32605  0.82947  0.60162  1.0000
  H   H280      1.0  0.24665  0.71938  0.56423  1.0000
  H   H281      1.0  0.25411  0.69385  0.57377  1.0000
  H   H282      1.0  0.20754  0.68164  0.60335  1.0000
  C   C181      1.0  0.18405  0.70068  0.99993  1.0000
  H   H283      1.0  0.19945  0.68485  0.55938  1.0000
  C   C182      1.0  0.31817  0.84465  0.51791  1.0000
  S   S72       1.0  0.25203  0.74882  0.51041  1.0000
  N   N19       1.0  0.22761  0.69159  0.56231  1.0000
  H   H284      1.0  0.29087  0.82704  0.66608  1.0000
  S   S73       1.0  0.29776  0.68253  0.94189  1.0000
  H   H285      1.0  0.32122  0.85870  0.52225  1.0000
  C   C183      1.0  0.33109  0.83852  0.52691  1.0000
  C   C184      1.0  0.23995  0.68565  0.58153  1.0000
  H   H286      1.0  0.29720  0.85085  0.66735  1.0000
  C   C185      1.0  0.30098  0.68861  0.54175  1.0000
  H   H287      1.0  0.29549  0.70734  0.57524  1.0000
  C   C186      1.0  0.29003  0.70671  0.98056  1.0000
  C   C187      1.0  0.29655  0.69360  0.98257  1.0000
  C   C188      1.0  0.29645  0.83941  0.64958  1.0000
  H   H288      1.0  0.30685  0.68434  0.56421  1.0000
  C   C189      1.0  0.20901  0.68053  0.57330  1.0000
  H   H289      1.0  0.32782  0.72611  0.95852  1.0000
  H   H290      1.0  0.28617  0.71003  0.95421  1.0000
  H   H291      1.0  0.17196  0.70835  0.54558  1.0000
  H   H292      1.0  0.30382  0.82574  0.58742  1.0000
  C   C190      1.0  0.23263  0.71068  0.57189  1.0000
  H   H293      1.0  0.22452  0.67525  0.51374  1.0000
  C   C191      1.0  0.31273  0.82746  0.61189  1.0000
  C   C192      1.0  0.32113  0.85939  0.61429  1.0000
  H   H294      1.0  0.24290  0.69715  0.51338  1.0000
  H   H295      1.0  0.31207  0.85835  0.59055  1.0000
  H   H296      1.0  0.19391  0.71398  0.99332  1.0000
  H   H297      1.0  0.29517  0.81162  0.95475  1.0000
  C   C193      1.0  0.31197  0.83740  0.98052  1.0000
  H   H298      1.0  0.23671  0.67136  0.57456  1.0000
  C   C194      1.0  0.29951  0.81907  0.98051  1.0000
  H   H299      1.0  0.28672  0.83766  0.62664  1.0000
  H   H300      1.0  0.30721  0.81459  0.62678  1.0000
  H   H301      1.0  0.31708  0.84385  0.95493  1.0000
  S   S74       1.0  0.27900  0.72365  0.52830  1.0000
  H   H302      1.0  0.23167  0.71275  0.60180  1.0000
  H   H303      1.0  0.22379  0.71572  0.55731  1.0000
  C   C195      1.0  0.32688  0.82021  0.52050  1.0000
  C   C196      1.0  0.22888  0.68956  0.52233  1.0000
  H   H304      1.0  0.32809  0.85630  0.68547  1.0000
  C   C197      1.0  0.32676  0.84495  0.66677  1.0000
  H   H305      1.0  0.32220  0.83259  0.68322  1.0000
  C   C198      1.0  0.17143  0.69685  0.52997  1.0000
  C   C199      1.0  0.28696  0.70736  0.51903  1.0000
  H   H306      1.0  0.23281  0.68500  0.97130  1.0000
  H   H307      1.0  0.16669  0.69849  0.95324  1.0000
  C   C200      1.0  0.23711  0.69039  0.99974  1.0000
  H   H308      1.0  0.25123  0.70071  0.99881  1.0000
  H   H309      1.0  0.22881  0.69739  0.00816  1.0000
  C   C201      1.0  0.48594  0.14203  0.49778  1.0000
  S   S75       1.0  0.47091  0.07790  0.50815  1.0000
  Fe  Fe39      1.0  0.45955  0.06371  0.40617  1.0000
  S   S76       1.0  0.43869  0.06326  0.44590  1.0000
  S   S77       1.0  0.45533  0.05213  0.34764  1.0000
  Fe  Fe40      1.0  0.45990  0.09040  0.46640  1.0000
  H   H310      1.0  0.42185  0.05184  0.13205  1.0000
  Fe  Fe41      1.0  0.45114  0.05079  0.48553  1.0000
  C   C202      1.0  0.47382  0.29323  0.48286  1.0000
  C   C203      1.0  0.46498  0.15541  0.02012  1.0000
  S   S78       1.0  0.47061  0.04945  0.44471  1.0000
  H   H311      1.0  0.49644  0.09563  0.30229  1.0000
  Fe  Fe42      1.0  0.46608  0.08149  0.13907  1.0000
  S   S79       1.0  0.44816  0.08338  0.09346  1.0000
  S   S80       1.0  0.46450  0.09230  0.19608  1.0000
  Fe  Fe43      1.0  0.44506  0.05559  0.07626  1.0000
  C   C204      1.0  0.46649  0.30168  0.11534  1.0000
  Fe  Fe44      1.0  0.47302  0.09460  0.05972  1.0000
  H   H312      1.0  0.40281  0.02102  0.22813  1.0000
  S   S81       1.0  0.46134  0.05323  0.12404  1.0000
  H   H313      1.0  0.41331  0.06035  0.16873  1.0000
  H   H314      1.0  0.38518  0.03203  0.16370  1.0000
  S   S82       1.0  0.41781  0.03226  0.06196  1.0000
  C   C205      1.0  0.42061  0.05207  0.16234  1.0000
  H   H315      1.0  0.45420  0.15730  0.03292  1.0000
  H   H316      1.0  0.49384  0.10036  0.34930  1.0000
  H   H317      1.0  0.49173  0.13314  0.48896  1.0000
  S   S83       1.0  0.47952  0.09164  0.42340  1.0000
  C   C206      1.0  0.42183  0.02344  0.16793  1.0000
  N   N20       1.0  0.41135  0.03368  0.17632  1.0000
  H   H318      1.0  0.38597  0.01065  0.16825  1.0000
  H   H319      1.0  0.46157  0.31893  0.01117  1.0000
  C   C207      1.0  0.45795  0.06363  0.30594  1.0000
  C   C208      1.0  0.45872  0.08090  0.30453  1.0000
  C   C209      1.0  0.46076  0.08948  0.27066  1.0000
  C   C210      1.0  0.46212  0.08095  0.23795  1.0000
  C   C211      1.0  0.46146  0.06372  0.23939  1.0000
  C   C212      1.0  0.45927  0.05508  0.27321  1.0000
  H   H320      1.0  0.45754  0.08756  0.32945  1.0000
  H   H321      1.0  0.46119  0.10279  0.26977  1.0000
  H   H322      1.0  0.46266  0.05708  0.21451  1.0000
  C   C213      1.0  0.39341  0.02458  0.15838  1.0000
  C   C214      1.0  0.48714  0.32506  0.50085  1.0000
  H   H323      1.0  0.49431  0.06627  0.32216  1.0000
  H   H324      1.0  0.45869  0.04171  0.27410  1.0000
  S   S84       1.0  0.46821  0.06692  0.03861  1.0000
  Fe  Fe45      1.0  0.48910  0.07732  0.46417  1.0000
  H   H325      1.0  0.49227  0.32391  0.16211  1.0000
  H   H326      1.0  0.48870  0.18789  0.06248  1.0000
  C   C215      1.0  0.46014  0.14756  0.50994  1.0000
  H   H327      1.0  0.43544  0.02988  0.18111  1.0000
  Fe  Fe46      1.0  0.48474  0.06624  0.08742  1.0000
  C   C216      1.0  0.46766  0.13998  0.02806  1.0000
  H   H328      1.0  0.42294  0.04165  0.23065  1.0000
  C   C217      1.0  0.40959  0.03465  0.21646  1.0000
  C   C218      1.0  0.45659  0.32527  0.11681  1.0000
  S   S85       1.0  0.49115  0.09441  0.10648  1.0000
  H   H329      1.0  0.45274  0.29149  0.10751  1.0000
  N   N21       1.0  0.46611  0.31663  0.13769  1.0000
  H   H330      1.0  0.39441  0.02361  0.12803  1.0000
  C   C219      1.0  0.49718  0.16003  0.50846  1.0000
  S   S86       1.0  0.45245  0.11310  0.48443  1.0000
  H   H331      1.0  0.45612  0.32068  0.18940  1.0000
  H   H332      1.0  0.43433  0.05925  0.17467  1.0000
  H   H333      1.0  0.44292  0.01613  0.05254  1.0000
  H   H334      1.0  0.46446  0.28236  0.46550  1.0000
  H   H335      1.0  0.46356  0.30314  0.18878  1.0000
  H   H336      1.0  0.47343  0.29469  0.13021  1.0000
  H   H337      1.0  0.46681  0.31328  0.45842  1.0000
  H   H338      1.0  0.45892  0.13013  0.04664  1.0000
  C   C220      1.0  0.47514  0.31080  0.47869  1.0000
  C   C221      1.0  0.45671  0.30967  0.17212  1.0000
  C   C222      1.0  0.41499  0.01034  0.04811  1.0000
  H   H339      1.0  0.40172  0.04226  0.22377  1.0000
  H   H340      1.0  0.44267  0.29953  0.16655  1.0000
  H   H341      1.0  0.42354  0.02260  0.13782  1.0000
  C   C223      1.0  0.46730  0.13568  0.49820  1.0000
  C   C224      1.0  0.48467  0.32997  0.14641  1.0000
  C   C225      1.0  0.48897  0.32483  0.02489  1.0000
  H   H342      1.0  0.41515  0.00942  0.17773  1.0000
  H   H343      1.0  0.44256  0.31561  0.10967  1.0000
  H   H344      1.0  0.47371  0.30662  0.08938  1.0000
  C   C226      1.0  0.48450  0.28962  0.50903  1.0000
  S   S87       1.0  0.48533  0.11787  0.01973  1.0000
  H   H345      1.0  0.46331  0.33061  0.09061  1.0000
  H   H346      1.0  0.49371  0.07166  0.36964  1.0000
  C   C227      1.0  0.42953  0.00600  0.04583  1.0000
  H   H347      1.0  0.42000  0.00366  0.47173  1.0000
  C   C228      1.0  0.48141  0.13721  0.01147  1.0000
  C   C229      1.0  0.49782  0.32144  0.52709  1.0000
  C   C230      1.0  0.48132  0.29084  0.99122  1.0000
  C   C231      1.0  0.46808  0.29727  0.99341  1.0000
  S   S88       1.0  0.48243  0.26718  0.51228  1.0000
  C   C232      1.0  0.43728  0.06772  0.58778  1.0000
  H   H348      1.0  0.44789  0.06680  0.57077  1.0000
  C   C233      1.0  0.49252  0.15018  0.98716  1.0000
  H   H349      1.0  0.48269  0.29100  0.63072  1.0000
  H   H350      1.0  0.48433  0.27783  0.59256  1.0000
  C   C234      1.0  0.48994  0.16568  0.97947  1.0000
  C   C235      1.0  0.49494  0.24190  0.79019  1.0000
  C   C236      1.0  0.47613  0.16841  0.99593  1.0000
  H   H351      1.0  0.42651  0.00515  0.58887  1.0000
  H   H352      1.0  0.40590  0.06927  0.59783  1.0000
  H   H353      1.0  0.45323  0.28764  0.60721  1.0000
  C   C237      1.0  0.42467  0.00683  0.53014  1.0000
  H   H354      1.0  0.45484  0.28917  0.98179  1.0000
  S   S89       1.0  0.47570  0.26939  0.96998  1.0000
  H   H355      1.0  0.46566  0.17451  0.52951  1.0000
  C   C238      1.0  0.45569  0.24750  0.60669  1.0000
  H   H356      1.0  0.48653  0.27148  0.63864  1.0000
  H   H357      1.0  0.46028  0.24787  0.57805  1.0000
  H   H358      1.0  0.43878  0.25609  0.66037  1.0000
  H   H359      1.0  0.46027  0.25850  0.67717  1.0000
  H   H360      1.0  0.47607  0.24334  0.75012  1.0000
  C   C239      1.0  0.41795  0.08244  0.59778  1.0000
  S   S90       1.0  0.48374  0.22853  0.57566  1.0000
  S   S91       1.0  0.49010  0.24310  0.67858  1.0000
  S   S92       1.0  0.43737  0.03074  0.53100  1.0000
  C   C240      1.0  0.47917  0.27704  0.62071  1.0000
  H   H361      1.0  0.46249  0.24104  0.62381  1.0000
  H   H362      1.0  0.45500  0.27481  0.56857  1.0000
  Fe  Fe47      1.0  0.48991  0.21524  0.96273  1.0000
  C   C241      1.0  0.45345  0.26459  0.65899  1.0000
  H   H363      1.0  0.44109  0.23855  0.60650  1.0000
  N   N22       1.0  0.45966  0.26574  0.62098  1.0000
  H   H364      1.0  0.44262  0.07071  0.61650  1.0000
  S   S93       1.0  0.48099  0.22951  0.91985  1.0000
  C   C242      1.0  0.42465  0.07675  0.53623  1.0000
  H   H365      1.0  0.41291  0.06336  0.53439  1.0000
  H   H366      1.0  0.42053  0.08693  0.52484  1.0000
  H   H367      1.0  0.45634  0.27812  0.67083  1.0000
  C   C243      1.0  0.45046  0.27381  0.59742  1.0000
  H   H368      1.0  0.43569  0.26562  0.59679  1.0000
  H   H369      1.0  0.44405  0.11001  0.56438  1.0000
  S   S94       1.0  0.47264  0.18807  0.98859  1.0000
  N   N23       1.0  0.43189  0.08155  0.57419  1.0000
  H   H370      1.0  0.45836  0.09919  0.55709  1.0000
  H   H371      1.0  0.45350  0.10341  0.60303  1.0000
  H   H372      1.0  0.42296  0.08609  0.62664  1.0000
  C   C244      1.0  0.49006  0.17198  0.51999  1.0000
  H   H373      1.0  0.41357  0.09272  0.58806  1.0000
  C   C245      1.0  0.44761  0.09928  0.57488  1.0000
  Fe  Fe48      1.0  0.49261  0.25402  0.95819  1.0000
  H   H374      1.0  0.41666  0.00420  0.91838  1.0000
  H   H375      1.0  0.42586  0.05407  0.58668  1.0000
  C   C246      1.0  0.48871  0.24257  0.75416  1.0000
  C   C247      1.0  0.49656  0.30389  0.53116  1.0000
  C   C248      1.0  0.47140  0.16556  0.52083  1.0000
  H   H376      1.0  0.49633  0.07644  0.98369  1.0000
  H   H377      1.0  0.43488  0.07615  0.51777  1.0000
  Fe  Fe49      1.0  0.49777  0.25472  0.54616  1.0000
  H   H378      1.0  0.48713  0.24218  0.81344  1.0000
  H   H379      1.0  0.44576  0.14288  0.51035  1.0000
  C   C249      1.0  0.47186  0.31416  0.01006  1.0000
  Fe  Fe50      1.0  0.47983  0.36360  0.05855  1.0000
  H   H380      1.0  0.37941  0.36431  0.02727  1.0000
  Fe  Fe51      1.0  0.45819  0.38508  0.03915  1.0000
  S   S95       1.0  0.48938  0.34755  0.49723  1.0000
  H   H381      1.0  0.44438  0.46785  0.48858  1.0000
  Fe  Fe52      1.0  0.45705  0.37095  0.11641  1.0000
  S   S96       1.0  0.43893  0.36150  0.16498  1.0000
  C   C250      1.0  0.48263  0.43159  0.23493  1.0000
  S   S97       1.0  0.45044  0.35715  0.06081  1.0000
  H   H382      1.0  0.42984  0.43978  0.04206  1.0000
  C   C251      1.0  0.33147  0.40275  0.50013  1.0000
  Fe  Fe53      1.0  0.46908  0.37024  0.37976  1.0000
  S   S98       1.0  0.45151  0.35076  0.42138  1.0000
  H   H383      1.0  0.36349  0.65992  0.47006  1.0000
  Fe  Fe54      1.0  0.44750  0.37487  0.44303  1.0000
  Fe  Fe55      1.0  0.47637  0.36062  0.45810  1.0000
  H   H384      1.0  0.47628  0.39963  0.26359  1.0000
  H   H385      1.0  0.49649  0.39879  0.24891  1.0000
  C   C252      1.0  0.44876  0.36197  0.20876  1.0000
  C   C253      1.0  0.43987  0.36288  0.24065  1.0000
  C   C254      1.0  0.44770  0.36356  0.27569  1.0000
  C   C255      1.0  0.46429  0.36291  0.27896  1.0000
  H   H386      1.0  0.40863  0.34895  0.08320  1.0000
  C   C256      1.0  0.46539  0.36148  0.21215  1.0000
  H   H387      1.0  0.42696  0.36321  0.23832  1.0000
  H   H388      1.0  0.44087  0.36446  0.30012  1.0000
  H   H389      1.0  0.39122  0.34211  0.04800  1.0000
  C   C257      1.0  0.41546  0.38376  0.08575  1.0000
  C   C258      1.0  0.47297  0.36168  0.24702  1.0000
  H   H390      1.0  0.47237  0.36081  0.18795  1.0000
  C   C259      1.0  0.41081  0.42386  0.49202  1.0000
  H   H391      1.0  0.46838  0.42373  0.24230  1.0000
  S   S99       1.0  0.47525  0.36420  0.32171  1.0000
  S   S100      1.0  0.42167  0.37425  0.46625  1.0000
  C   C260      1.0  0.40456  0.39243  0.50084  1.0000
  C   C261      1.0  0.36134  0.41100  0.47841  1.0000
  H   H392      1.0  0.39040  0.38720  0.04458  1.0000
  C   C262      1.0  0.43550  0.41822  0.02074  1.0000
  H   H393      1.0  0.45805  0.48712  0.46279  1.0000
  C   C263      1.0  0.33571  0.39494  0.43816  1.0000
  S   S101      1.0  0.46324  0.39335  0.39869  1.0000
  H   H394      1.0  0.35254  0.43093  0.43142  1.0000
  S   S102      1.0  0.48562  0.37537  0.11613  1.0000
  S   S103      1.0  0.47081  0.38294  0.48264  1.0000
  Fe  Fe56      1.0  0.48673  0.40014  0.43744  1.0000
  C   C264      1.0  0.42829  0.41030  0.46093  1.0000
  C   C265      1.0  0.41824  0.39375  0.47694  1.0000
  H   H395      1.0  0.42623  0.38818  0.06540  1.0000
  H   H396      1.0  0.46782  0.47995  0.49999  1.0000
  C   C266      1.0  0.45569  0.48156  0.49080  1.0000
  N   N24       1.0  0.39906  0.36880  0.07057  1.0000
  H   H397      1.0  0.34924  0.43647  0.47745  1.0000
  H   H398      1.0  0.48973  0.44039  0.25903  1.0000
  H   H399      1.0  0.42073  0.37973  0.11063  1.0000
  C   C267      1.0  0.42731  0.43011  0.01978  1.0000
  H   H400      1.0  0.48152  0.41650  0.16843  1.0000
  H   H401      1.0  0.48581  0.36119  0.24936  1.0000
  H   H402      1.0  0.41309  0.39570  0.09322  1.0000
  C   C268      1.0  0.40326  0.35372  0.05954  1.0000
  Fe  Fe57      1.0  0.49094  0.40168  0.09067  1.0000
  C   C269      1.0  0.34381  0.42592  0.45544  1.0000
  S   S104      1.0  0.46259  0.39813  0.09504  1.0000
  H   H403      1.0  0.44429  0.41887  0.04358  1.0000
  C   C270      1.0  0.39236  0.37490  0.03818  1.0000
  H   H404      1.0  0.46678  0.39983  0.19852  1.0000
  H   H405      1.0  0.43204  0.43767  0.45466  1.0000
  C   C271      1.0  0.42014  0.65245  0.02274  1.0000
  H   H406      1.0  0.43736  0.50110  0.47587  1.0000
  H   H407      1.0  0.37272  0.35146  0.08848  1.0000
  H   H408      1.0  0.43878  0.41154  0.44234  1.0000
  H   H409      1.0  0.39001  0.35827  0.12371  1.0000
  H   H410      1.0  0.41360  0.35786  0.03802  1.0000
  S   S105      1.0  0.40620  0.44299  0.49839  1.0000
  C   C272      1.0  0.42444  0.42515  0.46807  1.0000
  S   S106      1.0  0.49404  0.37876  0.41554  1.0000
  S   S107      1.0  0.48727  0.39062  0.03280  1.0000
  N   N25       1.0  0.34308  0.40865  0.46803  1.0000
  C   C273      1.0  0.38528  0.36284  0.09884  1.0000
  H   H411      1.0  0.38184  0.37397  0.10758  1.0000
  C   C274      1.0  0.33766  0.66482  0.43157  1.0000
  H   H412      1.0  0.33812  0.65828  0.40498  1.0000
  H   H413      1.0  0.33500  0.38174  0.44680  1.0000
  H   H414      1.0  0.37061  0.41568  0.45509  1.0000
  C   C275      1.0  0.48989  0.65852  0.50370  1.0000
  H   H415      1.0  0.36139  0.39826  0.48804  1.0000
  H   H416      1.0  0.34420  0.39900  0.41358  1.0000
  H   H417      1.0  0.36731  0.42122  0.50092  1.0000
  H   H418      1.0  0.40992  0.65390  0.04026  1.0000
  H   H419      1.0  0.48701  0.39894  0.18393  1.0000
  H   H420      1.0  0.36898  0.66328  0.42250  1.0000
  H   H421      1.0  0.42364  0.48162  0.50111  1.0000
  C   C276      1.0  0.48110  0.40820  0.19253  1.0000
  S   S108      1.0  0.49446  0.34588  0.04775  1.0000
  H   H422      1.0  0.47615  0.64841  0.50372  1.0000
  H   H423      1.0  0.46977  0.51779  0.49188  1.0000
  H   H424      1.0  0.41254  0.66152  0.50278  1.0000
  C   C277      1.0  0.49032  0.40806  0.25570  1.0000
  H   H425      1.0  0.49441  0.65932  0.39167  1.0000
  H   H426      1.0  0.34420  0.59479  0.49198  1.0000
  H   H427      1.0  0.49216  0.33553  0.12104  1.0000
  H   H428      1.0  0.42976  0.65008  0.04118  1.0000
  C   C278      1.0  0.43545  0.49494  0.50330  1.0000
  H   H429      1.0  0.37093  0.58927  0.50684  1.0000
  H   H430      1.0  0.48285  0.44044  0.21195  1.0000
  N   N26       1.0  0.49098  0.41958  0.22455  1.0000
  H   H431      1.0  0.33203  0.65407  0.45213  1.0000
  H   H432      1.0  0.45606  0.33668  0.13272  1.0000
  H   H433      1.0  0.48496  0.34154  0.16297  1.0000
  H   H434      1.0  0.49755  0.41614  0.28050  1.0000
  H   H435      1.0  0.48921  0.53522  0.01082  1.0000
  H   H436      1.0  0.40195  0.37828  0.01544  1.0000
  C   C279      1.0  0.40101  0.40744  0.50877  1.0000
  H   H437      1.0  0.48104  0.66725  0.95966  1.0000
  H   H438      1.0  0.43635  0.65440  0.95813  1.0000
  H   H439      1.0  0.41824  0.39537  0.94049  1.0000
  H   H440      1.0  0.39673  0.37972  0.51348  1.0000
  Fe  Fe58      1.0  0.38917  0.45296  0.95082  1.0000
  S   S109      1.0  0.38531  0.47709  0.97155  1.0000
  Fe  Fe59      1.0  0.36713  0.45028  0.87999  1.0000
  S   S110      1.0  0.36221  0.47407  0.89612  1.0000
  S   S111      1.0  0.35163  0.43693  0.82744  1.0000
  Fe  Fe60      1.0  0.39123  0.48663  0.91379  1.0000
  S   S112      1.0  0.40804  0.51426  0.89224  1.0000
  Fe  Fe61      1.0  0.35649  0.46233  0.95201  1.0000
  S   S113      1.0  0.39671  0.46362  0.89378  1.0000
  S   S114      1.0  0.35990  0.43753  0.93523  1.0000
  S   S115      1.0  0.48058  0.56331  0.97800  1.0000
  Fe  Fe62      1.0  0.37939  0.45875  0.61512  1.0000
  S   S116      1.0  0.36559  0.43641  0.57284  1.0000
  S   S117      1.0  0.38925  0.45722  0.67327  1.0000
  Fe  Fe63      1.0  0.38931  0.48765  0.55777  1.0000
  H   H441      1.0  0.44505  0.49352  0.57319  1.0000
  S   S118      1.0  0.40380  0.51702  0.54442  1.0000
  Fe  Fe64      1.0  0.35376  0.45469  0.54988  1.0000
  Fe  Fe65      1.0  0.38907  0.45111  0.53685  1.0000
  S   S119      1.0  0.36593  0.47583  0.59504  1.0000
  S   S120      1.0  0.40354  0.47216  0.58021  1.0000
  S   S121      1.0  0.48419  0.55147  0.60196  1.0000
  H   H442      1.0  0.33668  0.41281  0.52318  1.0000
  H   H443      1.0  0.43718  0.47146  0.55215  1.0000
  C   C280      1.0  0.42564  0.52798  0.56344  1.0000
  C   C281      1.0  0.43104  0.52047  0.59259  1.0000
  C   C282      1.0  0.44896  0.52824  0.60504  1.0000
  C   C283      1.0  0.46155  0.54366  0.58868  1.0000
  C   C284      1.0  0.45608  0.55158  0.56034  1.0000
  C   C285      1.0  0.43811  0.54372  0.54774  1.0000
  H   H444      1.0  0.42143  0.50865  0.60552  1.0000
  H   H445      1.0  0.45315  0.52214  0.62709  1.0000
  S   S122      1.0  0.37957  0.65284  0.53952  1.0000
  S   S123      1.0  0.34246  0.63587  0.61350  1.0000
  H   H446      1.0  0.46577  0.56345  0.54752  1.0000
  C   C286      1.0  0.36206  0.44276  0.78461  1.0000
  C   C287      1.0  0.38028  0.44727  0.78136  1.0000
  C   C288      1.0  0.38818  0.45124  0.74686  1.0000
  C   C289      1.0  0.37809  0.45117  0.71536  1.0000
  C   C290      1.0  0.35985  0.44674  0.71858  1.0000
  C   C291      1.0  0.35183  0.44235  0.75306  1.0000
  H   H447      1.0  0.38817  0.44722  0.80530  1.0000
  H   H448      1.0  0.40221  0.45432  0.74448  1.0000
  H   H449      1.0  0.35194  0.44656  0.69451  1.0000
  H   H450      1.0  0.33199  0.60550  0.87161  1.0000
  C   C292      1.0  0.42841  0.52750  0.91583  1.0000
  C   C293      1.0  0.43270  0.52226  0.94953  1.0000
  C   C294      1.0  0.44877  0.53335  0.96835  1.0000
  C   C295      1.0  0.46075  0.54956  0.95332  1.0000
  C   C296      1.0  0.45664  0.55461  0.91925  1.0000
  C   C297      1.0  0.44043  0.54367  0.90071  1.0000
  H   H451      1.0  0.42352  0.50983  0.96138  1.0000
  H   H452      1.0  0.46579  0.56711  0.90752  1.0000
  H   H453      1.0  0.43717  0.54786  0.87477  1.0000
  H   H454      1.0  0.40899  0.65960  0.95762  1.0000
  H   H455      1.0  0.45186  0.52938  0.99472  1.0000
  S   S124      1.0  0.40536  0.44450  0.99184  1.0000
  H   H456      1.0  0.33142  0.59630  0.93637  1.0000
  H   H457      1.0  0.49753  0.38241  0.53972  1.0000
  S   S125      1.0  0.33215  0.66384  0.98224  1.0000
  H   H458      1.0  0.34784  0.56802  0.56987  1.0000
  C   C298      1.0  0.44276  0.66605  0.97767  1.0000
  C   C299      1.0  0.41595  0.42970  0.99021  1.0000
  H   H459      1.0  0.33314  0.60056  0.52819  1.0000
  H   H460      1.0  0.40420  0.41671  0.93852  1.0000
  N   N27       1.0  0.41229  0.50456  0.78169  1.0000
  C   C300      1.0  0.41421  0.50188  0.74210  1.0000
  C   C301      1.0  0.39309  0.49786  0.78995  1.0000
  C   C302      1.0  0.42167  0.52394  0.79149  1.0000
  C   C303      1.0  0.42020  0.49460  0.80334  1.0000
  H   H461      1.0  0.42852  0.50674  0.73485  1.0000
  H   H462      1.0  0.40829  0.50913  0.72495  1.0000
  H   H463      1.0  0.40730  0.48743  0.73357  1.0000
  H   H464      1.0  0.39118  0.49940  0.81975  1.0000
  H   H465      1.0  0.38672  0.50526  0.77461  1.0000
  H   H466      1.0  0.38556  0.48334  0.78238  1.0000
  H   H467      1.0  0.41611  0.53192  0.77567  1.0000
  H   H468      1.0  0.43624  0.52941  0.78608  1.0000
  H   H469      1.0  0.42039  0.52645  0.82113  1.0000
  H   H470      1.0  0.41338  0.47991  0.79690  1.0000
  H   H471      1.0  0.41900  0.49642  0.83336  1.0000
  H   H472      1.0  0.43468  0.49925  0.79787  1.0000
  C   C304      1.0  0.43218  0.40548  0.99236  1.0000
  H   H473      1.0  0.35511  0.61624  0.51572  1.0000
  H   H474      1.0  0.36255  0.59773  0.60332  1.0000
  S   S126      1.0  0.37642  0.46779  0.51151  1.0000
  H   H475      1.0  0.43399  0.54958  0.52517  1.0000
  S   S127      1.0  0.44024  0.38861  0.99452  1.0000
  C   C305      1.0  0.46694  0.51126  0.51898  1.0000
  C   C306      1.0  0.41291  0.41722  0.96143  1.0000
  C   C307      1.0  0.35634  0.60309  0.58230  1.0000
  S   S128      1.0  0.34240  0.64061  0.92015  1.0000
  H   H476      1.0  0.45275  0.66363  0.99486  1.0000
  C   C308      1.0  0.42093  0.40515  0.96262  1.0000
  H   H477      1.0  0.48807  0.64875  0.63153  1.0000
  C   C309      1.0  0.44847  0.48521  0.55318  1.0000
  Fe  Fe66      1.0  0.35397  0.65163  0.56316  1.0000
  H   H478      1.0  0.46425  0.52040  0.53808  1.0000
  H   H479      1.0  0.33442  0.49122  0.95677  1.0000
  H   H480      1.0  0.43190  0.50351  0.52225  1.0000
  H   H481      1.0  0.33768  0.43867  0.75526  1.0000
  H   H482      1.0  0.37835  0.59021  0.55375  1.0000
  N   N28       1.0  0.45165  0.49326  0.51655  1.0000
  H   H483      1.0  0.46051  0.48401  0.56435  1.0000
  N   N29       1.0  0.35424  0.59380  0.54635  1.0000
  C   C310      1.0  0.37198  0.59603  0.53400  1.0000
  H   H484      1.0  0.34315  0.60139  0.59272  1.0000
  H   H485      1.0  0.39063  0.40622  0.52758  1.0000
  C   C311      1.0  0.34227  0.57447  0.54984  1.0000
  H   H486      1.0  0.49579  0.63498  0.60541  1.0000
  H   H487      1.0  0.34011  0.56704  0.52311  1.0000
  H   H488      1.0  0.36496  0.61781  0.58051  1.0000
  H   H489      1.0  0.47939  0.51061  0.52934  1.0000
  H   H490      1.0  0.38127  0.61054  0.53135  1.0000
  H   H491      1.0  0.49613  0.51751  0.00465  1.0000
  H   H492      1.0  0.41314  0.64016  0.00504  1.0000
  C   C312      1.0  0.34635  0.60169  0.51930  1.0000
  H   H493      1.0  0.33141  0.58427  0.85724  1.0000
  H   H494      1.0  0.49775  0.58757  0.74174  1.0000
  C   C313      1.0  0.33142  0.66706  0.75410  1.0000
  H   H495      1.0  0.48316  0.80870  0.49460  1.0000
  C   C314      1.0  0.49351  0.67636  0.49466  1.0000
  C   C315      1.0  0.36242  0.69269  0.41580  1.0000
  Fe  Fe67      1.0  0.45900  0.73232  0.06857  1.0000
  S   S129      1.0  0.42920  0.72167  0.07681  1.0000
  S   S130      1.0  0.47235  0.71693  0.09607  1.0000
  S   S131      1.0  0.47891  0.75951  0.08954  1.0000
  Fe  Fe68      1.0  0.46417  0.72922  0.45710  1.0000
  H   H496      1.0  0.34462  0.69319  0.47665  1.0000
  S   S132      1.0  0.47247  0.74789  0.40983  1.0000
  S   S133      1.0  0.47241  0.70936  0.42983  1.0000
  Fe  Fe69      1.0  0.48317  0.72958  0.38486  1.0000
  H   H497      1.0  0.49045  0.67581  0.41789  1.0000
  H   H498      1.0  0.42901  0.68662  0.04345  1.0000
  H   H499      1.0  0.45180  0.71997  0.19233  1.0000
  C   C316      1.0  0.45231  0.73054  0.17316  1.0000
  Fe  Fe70      1.0  0.49403  0.76066  0.03834  1.0000
  H   H500      1.0  0.37588  0.70332  0.42420  1.0000
  H   H501      1.0  0.47441  0.76017  0.21207  1.0000
  C   C317      1.0  0.41524  0.71348  0.03732  1.0000
  H   H502      1.0  0.46607  0.73695  0.16232  1.0000
  C   C318      1.0  0.35408  0.68685  0.47886  1.0000
  Fe  Fe71      1.0  0.49334  0.74423  0.11397  1.0000
  H   H503      1.0  0.46168  0.80895  0.49717  1.0000
  H   H504      1.0  0.44299  0.72366  0.14965  1.0000
  H   H505      1.0  0.43569  0.69020  0.47986  1.0000
  N   N30       1.0  0.46132  0.78276  0.50184  1.0000
  H   H506      1.0  0.43936  0.75118  0.14034  1.0000
  C   C319      1.0  0.41754  0.99687  0.49761  1.0000
  H   H507      1.0  0.41933  0.72792  0.18315  1.0000
  H   H508      1.0  0.39184  0.69745  0.06776  1.0000
  C   C320      1.0  0.48566  0.72467  0.21713  1.0000
  H   H509      1.0  0.44999  0.78450  0.44930  1.0000
  C   C321      1.0  0.36796  0.67014  0.44822  1.0000
  H   H510      1.0  0.38171  0.68026  0.45627  1.0000
  C   C322      1.0  0.41111  0.67387  0.50688  1.0000
  S   S134      1.0  0.43828  0.72667  0.48216  1.0000
  H   H511      1.0  0.44408  0.76752  0.17722  1.0000
  C   C323      1.0  0.40958  0.97505  0.02594  1.0000
  H   H512      1.0  0.43474  0.78066  0.50887  1.0000
  H   H513      1.0  0.38631  0.00005  0.04126  1.0000
  H   H514      1.0  0.41803  0.93253  0.50673  1.0000
  H   H515      1.0  0.42844  0.72449  0.22594  1.0000
  N   N31       1.0  0.44760  0.74396  0.19150  1.0000
  H   H516      1.0  0.35333  0.69934  0.41179  1.0000
  C   C324      1.0  0.40672  0.97813  0.49859  1.0000
  H   H517      1.0  0.46084  0.74296  0.24228  1.0000
  C   C325      1.0  0.42682  0.98849  0.03490  1.0000
  C   C326      1.0  0.42423  0.69009  0.49384  1.0000
  C   C327      1.0  0.44826  0.75756  0.16482  1.0000
  H   H518      1.0  0.47052  0.70301  0.25292  1.0000
  C   C328      1.0  0.36161  0.85263  0.05284  1.0000
  H   H519      1.0  0.48125  0.71639  0.19238  1.0000
  H   H520      1.0  0.46208  0.76518  0.15480  1.0000
  H   H521      1.0  0.43823  0.98535  0.03327  1.0000
  S   S135      1.0  0.47725  0.71727  0.32664  1.0000
  H   H522      1.0  0.36728  0.69730  0.48901  1.0000
  C   C329      1.0  0.46053  0.75287  0.22213  1.0000
  H   H523      1.0  0.45206  0.76390  0.45625  1.0000
  S   S136      1.0  0.49016  0.74379  0.48906  1.0000
  H   H524      1.0  0.49561  0.69320  0.32358  1.0000
  C   C330      1.0  0.42933  0.73483  0.20573  1.0000
  H   H525      1.0  0.39514  0.85547  0.04787  1.0000
  H   H526      1.0  0.47154  0.78424  0.44761  1.0000
  H   H527      1.0  0.45724  0.76287  0.23716  1.0000
  C   C331      1.0  0.39716  0.70145  0.04080  1.0000
  H   H528      1.0  0.42526  0.74454  0.21971  1.0000
  C   C332      1.0  0.48545  0.72758  0.28416  1.0000
  H   H529      1.0  0.44904  0.68312  0.04279  1.0000
  H   H530      1.0  0.49481  0.83416  0.04112  1.0000
  H   H531      1.0  0.39201  0.87045  0.01637  1.0000
  C   C333      1.0  0.45858  0.77868  0.46200  1.0000
  C   C334      1.0  0.47966  0.71711  0.25154  1.0000
  H   H532      1.0  0.48581  0.77964  0.50307  1.0000
  N   N32       1.0  0.35554  0.67862  0.44357  1.0000
  Fe  Fe72      1.0  0.48771  0.72069  0.04405  1.0000
  H   H533      1.0  0.45374  0.96612  0.49442  1.0000
  H   H534      1.0  0.36765  0.85203  0.07997  1.0000
  H   H535      1.0  0.48123  0.68655  0.36191  1.0000
  H   H536      1.0  0.43742  0.93297  0.48442  1.0000
  H   H537      1.0  0.48466  0.66985  0.33518  1.0000
  H   H538      1.0  0.40104  0.97068  0.47325  1.0000
  H   H539      1.0  0.36429  0.86691  0.04844  1.0000
  C   C335      1.0  0.42243  0.70608  0.49886  1.0000
  C   C336      1.0  0.39497  0.97934  0.02840  1.0000
  H   H540      1.0  0.38157  0.96913  0.02224  1.0000
  H   H541      1.0  0.48262  0.67983  0.48788  1.0000
  C   C337      1.0  0.39769  0.99689  0.03938  1.0000
  H   H542      1.0  0.37053  0.82493  0.05614  1.0000
  C   C338      1.0  0.49142  0.68378  0.34686  1.0000
  H   H543      1.0  0.49390  0.80368  0.04603  1.0000
  H   H544      1.0  0.36371  0.68696  0.38879  1.0000
  H   H545      1.0  0.37215  0.68482  0.01234  1.0000
  S   S137      1.0  0.47281  0.73446  0.01560  1.0000
  H   H546      1.0  0.34886  0.67654  0.50022  1.0000
  H   H547      1.0  0.34682  0.84495  0.05456  1.0000
  S   S138      1.0  0.33278  0.87070  0.01549  1.0000
  C   C339      1.0  0.43857  0.68447  0.02515  1.0000
  C   C340      1.0  0.38836  0.85604  0.02166  1.0000
  N   N33       1.0  0.36872  0.84547  0.02295  1.0000
  C   C341      1.0  0.36445  0.82642  0.02967  1.0000
  H   H548      1.0  0.34969  0.81814  0.03091  1.0000
  C   C342      1.0  0.47004  0.80247  0.50822  1.0000
  S   S139      1.0  0.40736  0.95345  0.01101  1.0000
  C   C343      1.0  0.49741  0.74573  0.28196  1.0000
  C   C344      1.0  0.49748  0.74287  0.21489  1.0000
  S   S140      1.0  0.37964  0.69070  0.93443  1.0000
  H   H549      1.0  0.35811  0.71109  0.90986  1.0000
  H   H550      1.0  0.33572  0.70944  0.91122  1.0000
  H   H551      1.0  0.40589  0.67319  0.99314  1.0000
  H   H552      1.0  0.34412  0.73980  0.99244  1.0000
  H   H553      1.0  0.46495  0.90492  0.77226  1.0000
  C   C345      1.0  0.40893  0.96905  0.90586  1.0000
  H   H554      1.0  0.33673  0.81528  0.52736  1.0000
  H   H555      1.0  0.35647  0.70230  0.97494  1.0000
  C   C346      1.0  0.37254  0.73728  0.96147  1.0000
  H   H556      1.0  0.47727  0.92894  0.76962  1.0000
  H   H557      1.0  0.34043  0.84796  0.65706  1.0000
  H   H558      1.0  0.34587  0.74681  0.94556  1.0000
  H   H559      1.0  0.44536  0.69691  0.00925  1.0000
  S   S141      1.0  0.38147  0.89987  0.00153  1.0000
  H   H560      1.0  0.40137  0.99006  0.85958  1.0000
  H   H561      1.0  0.35005  0.71409  0.00922  1.0000
  H   H562      1.0  0.36621  0.84251  0.96409  1.0000
  C   C347      1.0  0.39284  0.69943  0.97459  1.0000
  C   C348      1.0  0.41082  0.71168  0.97122  1.0000
  H   H563      1.0  0.43385  0.96548  0.51427  1.0000
  H   H564      1.0  0.47377  0.91842  0.81341  1.0000
  H   H565      1.0  0.41616  0.71576  0.94428  1.0000
  N   N34       1.0  0.39621  0.97706  0.91159  1.0000
  C   C349      1.0  0.40307  0.96896  0.53195  1.0000
  C   C350      1.0  0.34236  0.73498  0.96333  1.0000
  S   S142      1.0  0.48605  0.69698  0.00783  1.0000
  N   N35       1.0  0.35333  0.72522  0.95534  1.0000
  H   H566      1.0  0.37105  0.97015  0.93775  1.0000
  H   H567      1.0  0.38488  0.96067  0.95805  1.0000
  C   C351      1.0  0.38065  0.96436  0.93158  1.0000
  C   C352      1.0  0.44584  0.89379  0.55301  1.0000
  C   C353      1.0  0.47284  0.77480  0.51727  1.0000
  C   C354      1.0  0.36039  0.84674  0.98758  1.0000
  H   H568      1.0  0.44234  0.95611  0.59212  1.0000
  H   H569      1.0  0.37550  0.74232  0.99043  1.0000
  C   C355      1.0  0.34824  0.70978  0.97979  1.0000
  H   H570      1.0  0.38312  0.68951  0.54477  1.0000
  H   H571      1.0  0.36235  0.86074  0.98275  1.0000
  H   H572      1.0  0.43582  0.72808  0.99945  1.0000
  H   H573      1.0  0.47590  0.77823  0.54696  1.0000
  H   H574      1.0  0.34260  0.89215  0.82639  1.0000
  S   S143      1.0  0.38940  0.94523  0.53112  1.0000
  H   H575      1.0  0.45769  0.93251  0.55637  1.0000
  H   H576      1.0  0.47267  0.80610  0.53795  1.0000
  H   H577      1.0  0.48914  0.89965  0.82993  1.0000
  H   H578      1.0  0.43219  0.86643  0.92918  1.0000
  C   C356      1.0  0.41925  0.89828  0.81478  1.0000
  H   H579      1.0  0.39916  0.89815  0.87176  1.0000
  C   C357      1.0  0.39445  0.68958  0.53035  1.0000
  Fe  Fe73      1.0  0.38217  0.92299  0.57366  1.0000
  S   S144      1.0  0.39123  0.92580  0.63307  1.0000
  C   C358      1.0  0.42202  0.71858  0.00244  1.0000
  Fe  Fe74      1.0  0.36542  0.88116  0.57374  1.0000
  S   S145      1.0  0.37438  0.88146  0.63241  1.0000
  H   H580      1.0  0.41352  0.96574  0.93248  1.0000
  Fe  Fe75      1.0  0.36458  0.90248  0.64290  1.0000
  S   S146      1.0  0.34660  0.89471  0.69228  1.0000
  Fe  Fe76      1.0  0.40017  0.90439  0.61861  1.0000
  S   S147      1.0  0.42671  0.90782  0.64342  1.0000
  S   S148      1.0  0.35426  0.90129  0.58447  1.0000
  Fe  Fe77      1.0  0.38864  0.89446  0.94536  1.0000
  H   H581      1.0  0.42509  0.89658  0.84143  1.0000
  S   S149      1.0  0.40390  0.87778  0.93586  1.0000
  Fe  Fe78      1.0  0.36770  0.91257  0.90813  1.0000
  S   S150      1.0  0.35819  0.91874  0.96219  1.0000
  S   S151      1.0  0.36953  0.92694  0.85450  1.0000
  Fe  Fe79      1.0  0.38660  0.92759  0.98290  1.0000
  H   H582      1.0  0.45472  0.97578  0.53948  1.0000
  Fe  Fe80      1.0  0.35356  0.89027  0.97702  1.0000
  H   H583      1.0  0.37752  0.86475  0.82467  1.0000
  S   S152      1.0  0.39609  0.92261  0.92862  1.0000
  S   S153      1.0  0.36076  0.88367  0.92117  1.0000
  N   N36       1.0  0.49339  0.91485  0.78075  1.0000
  H   H584      1.0  0.39418  0.85111  0.99919  1.0000
  S   S154      1.0  0.39250  0.90253  0.55894  1.0000
  C   C359      1.0  0.42662  0.88964  0.92489  1.0000
  C   C360      1.0  0.43759  0.88057  0.92298  1.0000
  C   C361      1.0  0.45564  0.88978  0.91337  1.0000
  C   C362      1.0  0.46263  0.90800  0.90489  1.0000
  C   C363      1.0  0.45160  0.91697  0.90637  1.0000
  C   C364      1.0  0.43375  0.90789  0.91684  1.0000
  H   H585      1.0  0.45043  0.67822  0.96146  1.0000
  H   H586      1.0  0.46407  0.88275  0.91217  1.0000
  C   C365      1.0  0.47657  0.91687  0.78411  1.0000
  C   C366      1.0  0.40523  0.99406  0.93321  1.0000
  H   H587      1.0  0.37694  0.74910  0.94343  1.0000
  H   H588      1.0  0.46924  0.95645  0.56204  1.0000
  C   C367      1.0  0.39241  0.87108  0.82372  1.0000
  H   H589      1.0  0.44542  0.77766  0.54995  1.0000
  H   H590      1.0  0.40607  0.71812  0.52125  1.0000
  H   H591      1.0  0.37320  0.95165  0.91537  1.0000
  C   C368      1.0  0.43388  0.94537  0.57208  1.0000
  C   C369      1.0  0.35440  0.90297  0.73740  1.0000
  C   C370      1.0  0.36900  0.91965  0.74398  1.0000
  C   C371      1.0  0.37368  0.92664  0.78009  1.0000
  C   C372      1.0  0.36421  0.91681  0.81004  1.0000
  C   C373      1.0  0.35017  0.89974  0.80363  1.0000
  C   C374      1.0  0.34512  0.89300  0.76741  1.0000
  H   H592      1.0  0.37614  0.92752  0.72110  1.0000
  H   H593      1.0  0.38447  0.93991  0.78472  1.0000
  H   H594      1.0  0.43073  0.93222  0.58488  1.0000
  H   H595      1.0  0.38305  0.96799  0.85886  1.0000
  C   C375      1.0  0.44086  0.90403  0.61255  1.0000
  C   C376      1.0  0.43425  0.89583  0.57827  1.0000
  C   C377      1.0  0.46407  0.89974  0.56202  1.0000
  C   C378      1.0  0.47068  0.90766  0.59658  1.0000
  C   C379      1.0  0.45906  0.90981  0.62182  1.0000
  H   H596      1.0  0.48476  0.91230  0.60359  1.0000
  H   H597      1.0  0.46423  0.91616  0.64832  1.0000
  H   H598      1.0  0.42558  0.91510  0.91858  1.0000
  C   C380      1.0  0.41057  0.97884  0.56441  1.0000
  H   H599      1.0  0.40791  0.97208  0.59032  1.0000
  H   H600      1.0  0.37735  0.88674  0.77902  1.0000
  S   S155      1.0  0.47824  0.89772  0.52890  1.0000
  C   C381      1.0  0.39401  0.89966  0.84426  1.0000
  S   S156      1.0  0.35246  0.85282  0.54697  1.0000
  S   S157      1.0  0.34500  0.67311  0.57674  1.0000
  C   C382      1.0  0.45997  0.94544  0.54340  1.0000
  H   H601      1.0  0.34569  0.83819  0.98690  1.0000
  C   C383      1.0  0.49192  0.89874  0.80045  1.0000
  H   H602      1.0  0.45699  0.93109  0.90006  1.0000
  H   H603      1.0  0.48100  0.88624  0.78858  1.0000
  H   H604      1.0  0.42018  0.89089  0.57128  1.0000
  S   S158      1.0  0.48472  0.91982  0.89039  1.0000
  C   C384      1.0  0.39000  0.98065  0.87568  1.0000
  H   H605      1.0  0.39620  0.88590  0.75689  1.0000
  H   H606      1.0  0.39757  0.86904  0.85092  1.0000
  H   H607      1.0  0.42505  0.91295  0.80950  1.0000
  H   H608      1.0  0.37917  0.89409  0.84559  1.0000
  H   H609      1.0  0.41074  0.99187  0.95977  1.0000
  H   H610      1.0  0.39714  0.90705  0.77267  1.0000
  H   H611      1.0  0.42104  0.97838  0.89153  1.0000
  H   H612      1.0  0.39907  0.91431  0.83922  1.0000
  S   S159      1.0  0.33233  0.67265  0.89368  1.0000
  H   H613      1.0  0.42386  0.89177  0.79300  1.0000
  N   N37       1.0  0.39948  0.89040  0.81548  1.0000
  C   C385      1.0  0.39225  0.89259  0.77946  1.0000
  H   H614      1.0  0.40263  0.95638  0.88905  1.0000
  H   H615      1.0  0.38035  0.98666  0.87904  1.0000
  H   H616      1.0  0.39629  0.86359  0.80267  1.0000
  N   N38       1.0  0.42940  0.66856  0.00054  1.0000
  N   N39       1.0  0.44292  0.94683  0.53689  1.0000
  H   H617      1.0  0.38104  0.73011  0.95552  1.0000
  H   H618      1.0  0.42102  0.94649  0.56824  1.0000
  H   H619      1.0  0.39586  0.00010  0.93968  1.0000
  C   C386      1.0  0.49325  0.67047  0.97552  1.0000
  C   C387      1.0  0.35011  0.71865  0.91675  1.0000
  C   C388      1.0  0.39618  0.67356  0.52512  1.0000
  H   H620      1.0  0.35383  0.72991  0.89738  1.0000
  C   C389      1.0  0.42114  0.99764  0.56349  1.0000
  H   H621      1.0  0.46628  0.75987  0.51424  1.0000
  C   C390      1.0  0.44653  0.96433  0.52056  1.0000
  C   C391      1.0  0.44382  0.77499  0.51980  1.0000
  H   H622      1.0  0.42268  0.68342  0.95973  1.0000
  H   H623      1.0  0.33397  0.70017  0.97513  1.0000
  H   H624      1.0  0.44067  0.88750  0.52642  1.0000
  S   S160      1.0  0.33352  0.66977  0.67945  1.0000
  H   H625      1.0  0.33446  0.86223  0.60316  1.0000
  H   H626      1.0  0.48555  0.90092  0.72834  1.0000
  H   H627      1.0  0.33649  0.68156  0.75440  1.0000
  H   H628      1.0  0.36950  0.82055  0.00748  1.0000
  C   C392      1.0  0.40748  0.70576  0.51707  1.0000
  C   C393      1.0  0.41618  0.67129  0.97671  1.0000
  C   C394      1.0  0.38598  0.69433  0.00947  1.0000
  H   H629      1.0  0.42851  0.91871  0.52266  1.0000
  C   C395      1.0  0.49667  0.91286  0.74161  1.0000
  H   H630      1.0  0.33371  0.88016  0.76259  1.0000
  H   H631      1.0  0.46695  0.94595  0.51736  1.0000
  Fe  Fe81      1.0  0.35096  0.66960  0.93554  1.0000
  H   H632      1.0  0.43694  0.76009  0.51530  1.0000
  C   C396      1.0  0.43121  0.93212  0.51153  1.0000
  S   S161      1.0  0.50330  0.05325  0.07698  1.0000
  S   S162      1.0  0.61251  0.07958  0.01775  1.0000
  N   N40       1.0  0.59875  0.32061  0.10365  1.0000
  S   S163      1.0  0.59406  0.05361  0.08660  1.0000
  Fe  Fe82      1.0  0.63929  0.08677  0.04555  1.0000
  S   S164      1.0  0.63065  0.09183  0.10122  1.0000
  H   H633      1.0  0.59140  0.31817  0.04627  1.0000
  Fe  Fe83      1.0  0.62184  0.06240  0.11073  1.0000
  S   S165      1.0  0.62130  0.04855  0.16445  1.0000
  Fe  Fe84      1.0  0.60345  0.08269  0.07396  1.0000
  S   S166      1.0  0.58731  0.09775  0.08993  1.0000
  S   S167      1.0  0.63277  0.05764  0.05743  1.0000
  H   H634      1.0  0.60699  0.07896  0.20487  1.0000
  Fe  Fe85      1.0  0.59344  0.06868  0.40286  1.0000
  S   S168      1.0  0.56498  0.06049  0.38264  1.0000
  Fe  Fe86      1.0  0.62992  0.07498  0.37462  1.0000
  S   S169      1.0  0.64194  0.07787  0.43199  1.0000
  S   S170      1.0  0.64678  0.08420  0.32382  1.0000
  Fe  Fe87      1.0  0.61578  0.05413  0.44547  1.0000
  H   H635      1.0  0.60266  0.29947  0.13075  1.0000
  Fe  Fe88      1.0  0.62803  0.09548  0.44404  1.0000
  S   S171      1.0  0.60534  0.04979  0.38694  1.0000
  S   S172      1.0  0.61703  0.09340  0.38641  1.0000
  H   H636      1.0  0.51996  0.08659  0.28492  1.0000
  C   C397      1.0  0.60308  0.30497  0.10291  1.0000
  C   C398      1.0  0.51576  0.21957  0.07912  1.0000
  H   H637      1.0  0.54547  0.21401  0.07961  1.0000
  H   H638      1.0  0.59787  0.00345  0.03270  1.0000
  C   C399      1.0  0.52514  0.10070  0.37419  1.0000
  H   H639      1.0  0.57808  0.30892  0.14289  1.0000
  H   H640      1.0  0.65607  0.25862  0.49259  1.0000
  H   H641      1.0  0.56568  0.03518  0.19928  1.0000
  C   C400      1.0  0.62816  0.05905  0.20837  1.0000
  C   C401      1.0  0.63997  0.07725  0.21292  1.0000
  C   C402      1.0  0.64541  0.08486  0.24846  1.0000
  C   C403      1.0  0.63869  0.07451  0.27969  1.0000
  C   C404      1.0  0.62650  0.05645  0.27509  1.0000
  C   C405      1.0  0.62155  0.04870  0.23962  1.0000
  H   H642      1.0  0.64529  0.08532  0.18910  1.0000
  H   H643      1.0  0.56182  0.32145  0.47504  1.0000
  H   H644      1.0  0.62146  0.04827  0.29888  1.0000
  H   H645      1.0  0.61260  0.03455  0.23639  1.0000
  C   C406      1.0  0.52679  0.30650  0.45579  1.0000
  C   C407      1.0  0.52659  0.06562  0.08215  1.0000
  C   C408      1.0  0.53418  0.08261  0.09941  1.0000
  C   C409      1.0  0.55287  0.09256  0.10113  1.0000
  C   C410      1.0  0.56399  0.08545  0.08597  1.0000
  C   C411      1.0  0.55638  0.06840  0.06900  1.0000
  C   C412      1.0  0.53772  0.05848  0.06729  1.0000
  H   H646      1.0  0.52565  0.08810  0.11130  1.0000
  H   H647      1.0  0.55875  0.10571  0.11452  1.0000
  C   C413      1.0  0.64780  0.32629  0.27229  1.0000
  H   H648      1.0  0.53188  0.04531  0.05392  1.0000
  H   H649      1.0  0.60151  0.07412  0.15714  1.0000
  C   C414      1.0  0.53105  0.07901  0.45375  1.0000
  C   C415      1.0  0.54973  0.08703  0.45847  1.0000
  C   C416      1.0  0.56026  0.08125  0.43706  1.0000
  C   C417      1.0  0.55211  0.06749  0.41073  1.0000
  C   C418      1.0  0.53341  0.05918  0.40651  1.0000
  C   C419      1.0  0.52286  0.06485  0.42818  1.0000
  H   H650      1.0  0.52707  0.04836  0.38642  1.0000
  H   H651      1.0  0.53649  0.10726  0.30516  1.0000
  S   S173      1.0  0.60273  0.07215  0.46171  1.0000
  H   H652      1.0  0.56244  0.00809  0.42420  1.0000
  C   C420      1.0  0.52733  0.09306  0.31094  1.0000
  H   H653      1.0  0.57635  0.32627  0.11596  1.0000
  H   H654      1.0  0.59493  0.00628  0.42624  1.0000
  H   H655      1.0  0.53505  0.02473  0.43050  1.0000
  C   C421      1.0  0.50289  0.07300  0.34676  1.0000
  N   N41       1.0  0.55320  0.02006  0.46696  1.0000
  H   H656      1.0  0.51222  0.29834  0.45994  1.0000
  H   H657      1.0  0.58879  0.04566  0.21418  1.0000
  C   C422      1.0  0.53093  0.27929  0.45075  1.0000
  H   H658      1.0  0.52527  0.01365  0.47193  1.0000
  H   H659      1.0  0.57470  0.08772  0.44045  1.0000
  H   H660      1.0  0.55874  0.30968  0.43163  1.0000
  H   H661      1.0  0.64885  0.13177  0.38787  1.0000
  S   S174      1.0  0.51844  0.08766  0.47857  1.0000
  N   N42       1.0  0.51482  0.09207  0.34015  1.0000
  H   H662      1.0  0.58311  0.04237  0.16632  1.0000
  C   C423      1.0  0.59784  0.00864  0.48504  1.0000
  H   H663      1.0  0.60993  0.32910  0.15820  1.0000
  H   H664      1.0  0.56491  0.30125  0.47194  1.0000
  C   C424      1.0  0.63356  0.27426  0.50011  1.0000
  H   H665      1.0  0.57974  0.02681  0.44846  1.0000
  C   C425      1.0  0.58007  0.31479  0.11511  1.0000
  N   N43       1.0  0.57888  0.06382  0.19224  1.0000
  C   C426      1.0  0.56566  0.06352  0.16414  1.0000
  C   C427      1.0  0.57398  0.06820  0.22859  1.0000
  C   C428      1.0  0.59684  0.07761  0.18317  1.0000
  C   C429      1.0  0.57907  0.04597  0.19307  1.0000
  H   H666      1.0  0.56908  0.06029  0.13646  1.0000
  H   H667      1.0  0.56524  0.07682  0.16248  1.0000
  H   H668      1.0  0.55191  0.05328  0.16983  1.0000
  H   H669      1.0  0.57386  0.08167  0.22896  1.0000
  H   H670      1.0  0.56047  0.05811  0.23630  1.0000
  H   H671      1.0  0.58370  0.06841  0.25041  1.0000
  H   H672      1.0  0.59694  0.09106  0.17967  1.0000
  H   H673      1.0  0.56486  0.06286  0.05707  1.0000
  H   H674      1.0  0.55610  0.09798  0.47830  1.0000
  H   H675      1.0  0.55624  0.25852  0.50137  1.0000
  Fe  Fe89      1.0  0.60538  0.05078  0.03284  1.0000
  C   C430      1.0  0.65701  0.13202  0.36369  1.0000
  S   S175      1.0  0.63963  0.12422  0.46913  1.0000
  H   H676      1.0  0.50094  0.17448  0.06488  1.0000
  H   H677      1.0  0.53424  0.18984  0.07687  1.0000
  H   H678      1.0  0.56549  0.03060  0.41586  1.0000
  C   C431      1.0  0.60265  0.29960  0.49582  1.0000
  H   H679      1.0  0.49854  0.18593  0.10536  1.0000
  H   H680      1.0  0.51619  0.09928  0.39757  1.0000
  Fe  Fe90      1.0  0.65602  0.32560  0.11111  1.0000
  S   S176      1.0  0.64064  0.31531  0.16295  1.0000
  C   C432      1.0  0.59569  0.28791  0.46546  1.0000
  H   H681      1.0  0.59356  0.29394  0.08470  1.0000
  S   S177      1.0  0.64934  0.30387  0.06801  1.0000
  Fe  Fe91      1.0  0.63603  0.31306  0.42200  1.0000
  C   C433      1.0  0.53277  0.20213  0.08571  1.0000
  S   S178      1.0  0.60773  0.29109  0.42473  1.0000
  H   H682      1.0  0.61234  0.23870  0.44112  1.0000
  C   C434      1.0  0.50215  0.31833  0.02306  1.0000
  H   H683      1.0  0.61680  0.30871  0.09270  1.0000
  H   H684      1.0  0.64180  0.31952  0.29710  1.0000
  C   C435      1.0  0.53510  0.01470  0.45063  1.0000
  C   C436      1.0  0.52097  0.10080  0.02976  1.0000
  C   C437      1.0  0.64132  0.31784  0.23786  1.0000
  H   H685      1.0  0.53356  0.11532  0.37088  1.0000
  H   H686      1.0  0.63040  0.30449  0.23638  1.0000
  H   H687      1.0  0.65589  0.27958  0.44460  1.0000
  C   C438      1.0  0.50069  0.18715  0.07535  1.0000
  N   N44       1.0  0.53740  0.29713  0.46931  1.0000
  C   C439      1.0  0.61363  0.24897  0.46253  1.0000
  C   C440      1.0  0.56573  0.02141  0.43759  1.0000
  H   H688      1.0  0.57347  0.26399  0.44423  1.0000
  C   C441      1.0  0.55286  0.00650  0.49342  1.0000
  N   N45       1.0  0.63262  0.26085  0.47177  1.0000
  H   H689      1.0  0.56023  0.04839  0.46670  1.0000
  C   C442      1.0  0.64895  0.32655  0.20549  1.0000
  H   H690      1.0  0.53241  0.21541  0.01932  1.0000
  S   S179      1.0  0.65318  0.31009  0.37760  1.0000
  H   H691      1.0  0.51658  0.27075  0.45658  1.0000
  H   H692      1.0  0.65499  0.09879  0.25174  1.0000
  H   H693      1.0  0.51235  0.11602  0.32440  1.0000
  H   H694      1.0  0.52853  0.30908  0.42595  1.0000
  H   H695      1.0  0.51062  0.06527  0.35403  1.0000
  C   C443      1.0  0.64165  0.25003  0.48586  1.0000
  H   H696      1.0  0.57270  0.04195  0.49942  1.0000
  H   H697      1.0  0.50383  0.22034  0.06608  1.0000
  C   C444      1.0  0.55922  0.03772  0.48610  1.0000
  H   H698      1.0  0.53577  0.08609  0.31891  1.0000
  H   H699      1.0  0.61558  0.31104  0.49447  1.0000
  H   H700      1.0  0.51566  0.11112  0.03057  1.0000
  H   H701      1.0  0.53377  0.10629  0.04608  1.0000
  H   H702      1.0  0.50844  0.05850  0.42475  1.0000
  H   H703      1.0  0.53872  0.27189  0.46013  1.0000
  C   C445      1.0  0.57887  0.27316  0.46755  1.0000
  C   C446      1.0  0.50393  0.10146  0.32854  1.0000
  C   C447      1.0  0.56905  0.27008  0.49982  1.0000
  H   H704      1.0  0.62713  0.28283  0.49005  1.0000
  C   C448      1.0  0.51993  0.20366  0.02682  1.0000
  C   C449      1.0  0.64164  0.27019  0.43856  1.0000
  H   H705      1.0  0.51429  0.21992  0.10930  1.0000
  C   C450      1.0  0.53531  0.29479  0.50926  1.0000
  H   H706      1.0  0.60651  0.25681  0.45180  1.0000
  C   C451      1.0  0.58653  0.27173  0.02076  1.0000
  Fe  Fe92      1.0  0.64872  0.32403  0.02838  1.0000
  H   H707      1.0  0.61516  0.28600  0.02885  1.0000
  N   N46       1.0  0.51729  0.20312  0.06679  1.0000
  S   S180      1.0  0.61199  0.03226  0.48726  1.0000
  H   H708      1.0  0.52079  0.19132  0.01632  1.0000
  C   C452      1.0  0.55654  0.30787  0.46157  1.0000
  H   H709      1.0  0.57046  0.30437  0.09574  1.0000
  H   H710      1.0  0.51129  0.08879  0.04393  1.0000
  C   C453      1.0  0.60074  0.32816  0.06660  1.0000
  H   H711      1.0  0.53023  0.00144  0.43591  1.0000
  S   S181      1.0  0.65677  0.31885  0.46706  1.0000
  H   H712      1.0  0.51543  0.32644  0.03447  1.0000
  H   H713      1.0  0.53212  0.28047  0.42049  1.0000
  H   H714      1.0  0.53129  0.20172  0.11598  1.0000
  H   H715      1.0  0.60633  0.24179  0.48700  1.0000
  H   H716      1.0  0.65294  0.13200  0.02810  1.0000
  H   H717      1.0  0.63499  0.27822  0.42681  1.0000
  H   H718      1.0  0.54983  0.03742  0.50780  1.0000
  H   H719      1.0  0.53426  0.09459  0.38255  1.0000
  H   H720      1.0  0.65440  0.28477  0.16698  1.0000
  H   H721      1.0  0.52771  0.23194  0.07166  1.0000
  H   H722      1.0  0.58546  0.26072  0.03792  1.0000
  H   H723      1.0  0.64960  0.11917  0.34784  1.0000
  H   H724      1.0  0.64151  0.26055  0.41675  1.0000
  H   H725      1.0  0.65763  0.14314  0.34604  1.0000
  C   C454      1.0  0.66087  0.14021  0.48708  1.0000
  H   H726      1.0  0.50867  0.20477  0.01174  1.0000
  H   H727      1.0  0.64768  0.28333  0.50813  1.0000
  H   H728      1.0  0.65219  0.16138  0.49060  1.0000
  H   H729      1.0  0.53067  0.31965  0.47043  1.0000
  H   H730      1.0  0.64109  0.23969  0.46525  1.0000
  C   C455      1.0  0.66330  0.15793  0.49485  1.0000
  C   C456      1.0  0.60338  0.28609  0.01583  1.0000
  H   H731      1.0  0.56622  0.01060  0.50709  1.0000
  H   H732      1.0  0.61452  0.33221  0.05644  1.0000
  H   H733      1.0  0.51156  0.16477  0.50772  1.0000
  S   S182      1.0  0.55029  0.25344  0.01155  1.0000
  C   C457      1.0  0.57114  0.27148  0.00350  1.0000
  H   H734      1.0  0.53874  0.10945  0.94520  1.0000
  H   H735      1.0  0.49847  0.17539  0.96042  1.0000
  H   H736      1.0  0.64028  0.06626  0.93529  1.0000
  C   C458      1.0  0.49862  0.24219  0.72344  1.0000
  C   C459      1.0  0.65736  0.04488  0.93772  1.0000
  H   H737      1.0  0.50311  0.14814  0.97387  1.0000
  H   H738      1.0  0.50713  0.33232  0.54448  1.0000
  H   H739      1.0  0.65882  0.03231  0.93150  1.0000
  H   H740      1.0  0.53302  0.07871  0.96423  1.0000
  H   H741      1.0  0.54967  0.11819  0.98891  1.0000
  H   H742      1.0  0.63688  0.01717  0.98010  1.0000
  H   H743      1.0  0.50024  0.09879  0.97143  1.0000
  S   S183      1.0  0.58958  0.02904  0.98914  1.0000
  H   H744      1.0  0.50767  0.08567  0.94224  1.0000
  Fe  Fe93      1.0  0.50525  0.22091  0.55561  1.0000
  C   C460      1.0  0.53645  0.11244  0.97397  1.0000
  H   H745      1.0  0.64708  0.03776  0.00697  1.0000
  C   C461      1.0  0.63663  0.03039  0.98549  1.0000
  H   H746      1.0  0.62594  0.01725  0.91710  1.0000
  H   H747      1.0  0.54338  0.08712  0.00859  1.0000
  N   N47       1.0  0.52356  0.09614  0.99179  1.0000
  H   H748      1.0  0.59824  0.00608  0.54376  1.0000
  C   C462      1.0  0.62555  0.03031  0.92379  1.0000
  Fe  Fe94      1.0  0.50894  0.23967  0.89810  1.0000
  Fe  Fe95      1.0  0.50275  0.24285  0.62327  1.0000
  H   H749      1.0  0.61186  0.02709  0.93358  1.0000
  C   C463      1.0  0.58952  0.30013  0.97646  1.0000
  H   H750      1.0  0.62483  0.05545  0.97060  1.0000
  S   S184      1.0  0.51996  0.24005  0.84070  1.0000
  C   C464      1.0  0.58246  0.00525  0.98606  1.0000
  C   C465      1.0  0.51492  0.24116  0.72924  1.0000
  S   S185      1.0  0.51764  0.24590  0.52173  1.0000
  H   H751      1.0  0.53369  0.23952  0.76919  1.0000
  H   H752      1.0  0.59064  0.31124  0.95955  1.0000
  N   N48       1.0  0.63943  0.04088  0.95175  1.0000
  H   H753      1.0  0.53149  0.12306  0.97332  1.0000
  S   S186      1.0  0.51690  0.22359  0.93834  1.0000
  S   S187      1.0  0.52009  0.26497  0.93392  1.0000
  Fe  Fe96      1.0  0.52592  0.24805  0.97523  1.0000
  S   S188      1.0  0.52346  0.23366  0.60529  1.0000
  H   H754      1.0  0.57482  0.27625  0.81610  1.0000
  S   S189      1.0  0.51555  0.26914  0.59423  1.0000
  Fe  Fe97      1.0  0.53457  0.25875  0.57202  1.0000
  S   S190      1.0  0.56383  0.27870  0.57078  1.0000
  C   C466      1.0  0.53056  0.08236  0.99234  1.0000
  H   H755      1.0  0.59822  0.30564  0.55148  1.0000
  C   C467      1.0  0.60492  0.30039  0.99384  1.0000
  H   H756      1.0  0.55681  0.25446  0.82241  1.0000
  H   H757      1.0  0.62655  0.26770  0.52531  1.0000
  C   C468      1.0  0.52115  0.24047  0.76523  1.0000
  C   C469      1.0  0.51122  0.24082  0.79597  1.0000
  H   H758      1.0  0.52269  0.24080  0.70597  1.0000
  C   C470      1.0  0.50621  0.08896  0.97130  1.0000
  C   C471      1.0  0.57265  0.28568  0.98115  1.0000
  H   H759      1.0  0.56081  0.28567  0.96802  1.0000
  H   H760      1.0  0.55545  0.27397  0.84119  1.0000
  H   H761      1.0  0.57637  0.29108  0.89420  1.0000
  N   N49       1.0  0.57357  0.26594  0.87047  1.0000
  C   C472      1.0  0.55971  0.25530  0.89650  1.0000
  C   C473      1.0  0.58500  0.25666  0.86257  1.0000
  C   C474      1.0  0.58469  0.28395  0.88682  1.0000
  C   C475      1.0  0.56487  0.26780  0.83604  1.0000
  H   H762      1.0  0.55063  0.26173  0.90240  1.0000
  H   H763      1.0  0.56569  0.25387  0.92316  1.0000
  H   H764      1.0  0.55110  0.24156  0.88513  1.0000
  H   H765      1.0  0.59561  0.26432  0.84300  1.0000
  H   H766      1.0  0.59173  0.25501  0.88802  1.0000
  H   H767      1.0  0.57696  0.24300  0.85022  1.0000
  H   H768      1.0  0.59502  0.29257  0.86764  1.0000
  H   H769      1.0  0.59188  0.28304  0.91226  1.0000
  S   S191      1.0  0.62580  0.31880  0.98781  1.0000
  H   H770      1.0  0.52092  0.06978  0.00509  1.0000
  H   H771      1.0  0.62717  0.03778  0.89796  1.0000
  H   H772      1.0  0.56559  0.00220  0.93825  1.0000
  H   H773      1.0  0.54310  0.00463  0.51534  1.0000
  H   H774      1.0  0.65990  0.05271  0.91215  1.0000
  S   S192      1.0  0.49941  0.23899  0.00216  1.0000
  C   C476      1.0  0.63821  0.05795  0.96004  1.0000
  H   H775      1.0  0.54000  0.30791  0.52438  1.0000
  C   C477      1.0  0.49840  0.30148  0.00626  1.0000
  H   H776      1.0  0.62342  0.02757  0.99737  1.0000
  H   H777      1.0  0.50872  0.29676  0.00480  1.0000
  H   H778      1.0  0.52109  0.28659  0.51606  1.0000
  H   H779      1.0  0.64843  0.06629  0.98119  1.0000
  H   H780      1.0  0.50490  0.30148  0.55146  1.0000
  H   H781      1.0  0.54312  0.28776  0.52031  1.0000
  C   C478      1.0  0.57595  0.28181  0.53016  1.0000
  C   C479      1.0  0.59280  0.29653  0.52807  1.0000
  S   S193      1.0  0.50518  0.19468  0.53236  1.0000
  H   H782      1.0  0.63535  0.24295  0.51120  1.0000
  C   C480      1.0  0.56489  0.57434  0.49755  1.0000
  H   H783      1.0  0.53490  0.57234  0.01402  1.0000
  H   H784      1.0  0.52896  0.39154  0.48994  1.0000
  H   H785      1.0  0.60833  0.34652  0.13113  1.0000
  H   H786      1.0  0.61158  0.56012  0.43373  1.0000
  H   H787      1.0  0.64288  0.59887  0.38268  1.0000
  C   C481      1.0  0.50982  0.43048  0.21493  1.0000
  S   S194      1.0  0.65325  0.34506  0.07216  1.0000
  H   H788      1.0  0.59801  0.34026  0.06614  1.0000
  H   H789      1.0  0.62710  0.60684  0.47273  1.0000
  H   H790      1.0  0.51626  0.42180  0.20538  1.0000
  S   S195      1.0  0.63692  0.54689  0.08429  1.0000
  Fe  Fe98      1.0  0.59983  0.50048  0.05335  1.0000
  S   S196      1.0  0.59560  0.51668  0.09899  1.0000
  H   H791      1.0  0.58042  0.58498  0.05822  1.0000
  Fe  Fe99      1.0  0.60894  0.54025  0.06179  1.0000
  Fe  Fe100     1.0  0.62354  0.52226  0.11843  1.0000
  S   S197      1.0  0.63220  0.51631  0.17452  1.0000
  S   S198      1.0  0.62651  0.50383  0.07555  1.0000
  Fe  Fe101     1.0  0.62727  0.53138  0.38375  1.0000
  S   S199      1.0  0.62822  0.50468  0.38848  1.0000
  S   S200      1.0  0.63442  0.54956  0.33450  1.0000
  Fe  Fe102     1.0  0.60898  0.52851  0.45692  1.0000
  S   S201      1.0  0.60825  0.50123  0.46704  1.0000
  Fe  Fe103     1.0  0.63673  0.51252  0.44771  1.0000
  Fe  Fe104     1.0  0.60008  0.49512  0.40774  1.0000
  S   S202      1.0  0.58037  0.46884  0.38162  1.0000
  S   S203      1.0  0.63810  0.54040  0.44162  1.0000
  S   S204      1.0  0.59842  0.52128  0.39891  1.0000
  H   H792      1.0  0.62360  0.56705  0.39227  1.0000
  H   H793      1.0  0.61426  0.58360  0.48215  1.0000
  C   C482      1.0  0.52604  0.43955  0.43438  1.0000
  C   C483      1.0  0.53816  0.45657  0.44790  1.0000
  C   C484      1.0  0.55496  0.46562  0.43211  1.0000
  C   C485      1.0  0.55965  0.45766  0.40262  1.0000
  C   C486      1.0  0.54754  0.44063  0.38907  1.0000
  C   C487      1.0  0.53077  0.43153  0.40503  1.0000
  H   H794      1.0  0.51156  0.56659  0.01799  1.0000
  H   H795      1.0  0.56423  0.47876  0.44265  1.0000
  H   H796      1.0  0.55117  0.43441  0.36632  1.0000
  H   H797      1.0  0.52149  0.41839  0.39453  1.0000
  C   C488      1.0  0.63297  0.52621  0.21835  1.0000
  C   C489      1.0  0.63591  0.51775  0.24924  1.0000
  C   C490      1.0  0.63634  0.52476  0.28485  1.0000
  C   C491      1.0  0.63428  0.54061  0.28994  1.0000
  C   C492      1.0  0.63178  0.54937  0.25899  1.0000
  C   C493      1.0  0.63092  0.54209  0.22332  1.0000
  H   H798      1.0  0.63771  0.50557  0.24568  1.0000
  H   H799      1.0  0.63852  0.51802  0.30835  1.0000
  H   H800      1.0  0.63026  0.56170  0.26262  1.0000
  H   H801      1.0  0.62879  0.54884  0.19975  1.0000
  H   H802      1.0  0.60647  0.59396  0.44759  1.0000
  H   H803      1.0  0.52333  0.56123  0.05405  1.0000
  C   C494      1.0  0.63549  0.60246  0.40420  1.0000
  Fe  Fe105     1.0  0.66270  0.33964  0.36978  1.0000
  C   C495      1.0  0.53123  0.43943  0.09319  1.0000
  C   C496      1.0  0.53355  0.43389  0.05807  1.0000
  H   H804      1.0  0.53453  0.46283  0.47061  1.0000
  C   C497      1.0  0.56188  0.46060  0.05380  1.0000
  C   C498      1.0  0.55958  0.46610  0.08900  1.0000
  C   C499      1.0  0.54430  0.45553  0.10865  1.0000
  H   H805      1.0  0.52360  0.42148  0.04598  1.0000
  Fe  Fe106     1.0  0.63805  0.52781  0.04022  1.0000
  H   H806      1.0  0.66347  0.50230  0.04209  1.0000
  C   C500      1.0  0.64378  0.58638  0.45019  1.0000
  S   S205      1.0  0.51222  0.42653  0.11859  1.0000
  H   H807      1.0  0.66259  0.38297  0.38627  1.0000
  H   H808      1.0  0.65776  0.50498  0.14574  1.0000
  S   S206      1.0  0.59709  0.56082  0.05988  1.0000
  H   H809      1.0  0.57924  0.55001  0.44043  1.0000
  H   H810      1.0  0.51788  0.43882  0.23871  1.0000
  S   S207      1.0  0.58090  0.47357  0.02848  1.0000
  H   H811      1.0  0.59572  0.52082  0.30693  1.0000
  S   S208      1.0  0.59946  0.54264  0.50046  1.0000
  H   H812      1.0  0.65975  0.53369  0.12219  1.0000
  N   N50       1.0  0.58052  0.49379  0.28589  1.0000
  C   C501      1.0  0.57240  0.48465  0.25055  1.0000
  C   C502      1.0  0.59443  0.48813  0.29796  1.0000
  C   C503      1.0  0.56658  0.48894  0.31380  1.0000
  C   C504      1.0  0.58873  0.51347  0.28121  1.0000
  H   H813      1.0  0.56188  0.48863  0.24049  1.0000
  H   H814      1.0  0.56620  0.46976  0.25308  1.0000
  H   H815      1.0  0.58265  0.48811  0.22894  1.0000
  H   H816      1.0  0.60483  0.49097  0.27705  1.0000
  H   H817      1.0  0.60129  0.49523  0.32393  1.0000
  H   H818      1.0  0.58861  0.47346  0.30327  1.0000
  H   H819      1.0  0.55583  0.49300  0.30578  1.0000
  H   H820      1.0  0.57236  0.49559  0.34081  1.0000
  H   H821      1.0  0.56024  0.47419  0.31844  1.0000
  H   H822      1.0  0.57858  0.51838  0.27337  1.0000
  H   H823      1.0  0.59881  0.51747  0.25936  1.0000
  H   H824      1.0  0.51070  0.39728  0.48188  1.0000
  C   C505      1.0  0.49999  0.53097  0.01789  1.0000
  C   C506      1.0  0.56779  0.56664  0.46505  1.0000
  H   H825      1.0  0.62433  0.60431  0.39020  1.0000
  H   H826      1.0  0.51080  0.43967  0.19209  1.0000
  H   H827      1.0  0.60474  0.57190  0.40049  1.0000
  C   C507      1.0  0.66307  0.34378  0.20765  1.0000
  C   C508      1.0  0.54886  0.44444  0.03846  1.0000
  H   H828      1.0  0.56253  0.56893  0.43926  1.0000
  S   S209      1.0  0.50526  0.42859  0.45525  1.0000
  H   H829      1.0  0.56958  0.47846  0.10113  1.0000
  C   C509      1.0  0.53154  0.53815  0.01526  1.0000
  H   H830      1.0  0.54259  0.45988  0.13580  1.0000
  C   C510      1.0  0.61870  0.59346  0.45971  1.0000
  C   C511      1.0  0.57739  0.55600  0.46560  1.0000
  H   H831      1.0  0.65323  0.59914  0.46412  1.0000
  C   C512      1.0  0.61660  0.57113  0.41377  1.0000
  N   N51       1.0  0.62864  0.58838  0.43198  1.0000
  C   C513      1.0  0.52410  0.40199  0.49547  1.0000
  H   H832      1.0  0.62525  0.33891  0.12249  1.0000
  C   C514      1.0  0.57956  0.57970  0.03056  1.0000
  S   S210      1.0  0.64363  0.34207  0.41010  1.0000
  H   H833      1.0  0.65144  0.58230  0.43016  1.0000
  C   C515      1.0  0.52206  0.56185  0.02377  1.0000
  C   C516      1.0  0.66172  0.34365  0.27449  1.0000
  H   H834      1.0  0.53307  0.41453  0.48170  1.0000
  H   H835      1.0  0.64479  0.61566  0.41680  1.0000
  H   H836      1.0  0.63894  0.57585  0.47143  1.0000
  H   H837      1.0  0.50001  0.52939  0.04811  1.0000
  C   C517      1.0  0.58680  0.56736  0.02319  1.0000
  S   S211      1.0  0.65381  0.50107  0.47905  1.0000
  S   S212      1.0  0.61136  0.52350  0.01498  1.0000
  C   C518      1.0  0.58480  0.55344  0.49861  1.0000
  H   H838      1.0  0.53271  0.53691  0.04542  1.0000
  S   S213      1.0  0.55428  0.58914  0.49476  1.0000
  C   C519      1.0  0.61104  0.33441  0.12999  1.0000
  H   H839      1.0  0.55056  0.44009  0.01129  1.0000
  H   H840      1.0  0.61515  0.47608  0.01087  1.0000
  C   C520      1.0  0.58170  0.56095  0.53114  1.0000
  H   H841      1.0  0.54726  0.40239  0.54805  1.0000
  H   H842      1.0  0.59724  0.45851  0.95833  1.0000
  H   H843      1.0  0.60638  0.46201  0.91326  1.0000
  C   C521      1.0  0.56997  0.58294  0.81882  1.0000
  C   C522      1.0  0.50327  0.66057  0.96882  1.0000
  C   C523      1.0  0.57167  0.57116  0.53072  1.0000
  H   H844      1.0  0.51629  0.37752  0.54786  1.0000
  H   H845      1.0  0.62583  0.50771  0.95687  1.0000
  Fe  Fe107     1.0  0.53822  0.59583  0.53847  1.0000
  C   C524      1.0  0.54978  0.58602  0.77357  1.0000
  N   N52       1.0  0.52313  0.40512  0.53515  1.0000
  S   S214      1.0  0.50903  0.58762  0.52367  1.0000
  H   H846      1.0  0.54056  0.56942  0.85929  1.0000
  H   H847      1.0  0.64598  0.47612  0.93881  1.0000
  S   S215      1.0  0.51559  0.58062  0.90290  1.0000
  S   S216      1.0  0.53294  0.58491  0.59532  1.0000
  H   H848      1.0  0.51111  0.63093  0.66173  1.0000
  C   C525      1.0  0.57067  0.57918  0.96633  1.0000
  C   C526      1.0  0.51845  0.60817  0.77500  1.0000
  H   H849      1.0  0.58733  0.55909  0.55686  1.0000
  H   H850      1.0  0.52980  0.55607  0.95526  1.0000
  C   C527      1.0  0.57784  0.56678  0.95893  1.0000
  C   C528      1.0  0.53096  0.65614  0.61475  1.0000
  H   H851      1.0  0.57737  0.56181  0.93115  1.0000
  H   H852      1.0  0.59130  0.55138  0.98099  1.0000
  S   S217      1.0  0.50686  0.59988  0.81601  1.0000
  N   N53       1.0  0.62329  0.48062  0.95492  1.0000
  S   S218      1.0  0.56116  0.58650  0.92953  1.0000
  S   S219      1.0  0.49933  0.60975  0.92007  1.0000
  Fe  Fe108     1.0  0.50413  0.57813  0.58145  1.0000
  N   N54       1.0  0.55343  0.58540  0.81324  1.0000
  H   H853      1.0  0.56876  0.57020  0.80559  1.0000
  H   H854      1.0  0.52702  0.65008  0.68674  1.0000
  H   H855      1.0  0.55947  0.60279  0.86102  1.0000
  H   H856      1.0  0.51505  0.42139  0.57039  1.0000
  H   H857      1.0  0.52860  0.52484  0.00221  1.0000
  Fe  Fe109     1.0  0.54111  0.59891  0.93245  1.0000
  H   H858      1.0  0.54388  0.66108  0.63064  1.0000
  H   H859      1.0  0.52554  0.57185  0.82591  1.0000
  H   H860      1.0  0.53598  0.55717  0.81619  1.0000
  C   C529      1.0  0.51439  0.64511  0.66982  1.0000
  H   H861      1.0  0.50197  0.41352  0.52861  1.0000
  S   S220      1.0  0.50537  0.60416  0.60317  1.0000
  C   C530      1.0  0.54129  0.41207  0.55208  1.0000
  C   C531      1.0  0.54398  0.62871  0.74115  1.0000
  H   H862      1.0  0.51337  0.59737  0.68324  1.0000
  H   H863      1.0  0.49871  0.64986  0.94818  1.0000
  N   N55       1.0  0.51761  0.54422  0.00561  1.0000
  H   H864      1.0  0.57302  0.58245  0.84862  1.0000
  H   H865      1.0  0.58172  0.59422  0.80716  1.0000
  C   C532      1.0  0.53821  0.57026  0.82935  1.0000
  C   C533      1.0  0.53517  0.62308  0.77457  1.0000
  H   H866      1.0  0.53297  0.66453  0.59013  1.0000
  H   H867      1.0  0.56967  0.57706  0.55593  1.0000
  H   H868      1.0  0.56057  0.59774  0.76064  1.0000
  C   C534      1.0  0.51133  0.38800  0.55209  1.0000
  C   C535      1.0  0.51066  0.59911  0.74175  1.0000
  H   H869      1.0  0.56631  0.61431  0.81864  1.0000
  H   H870      1.0  0.53703  0.58721  0.76856  1.0000
  H   H871      1.0  0.65014  0.49932  0.94264  1.0000
  C   C536      1.0  0.60988  0.46251  0.94297  1.0000
  C   C537      1.0  0.61595  0.49386  0.94846  1.0000
  N   N56       1.0  0.51638  0.65629  0.63735  1.0000
  H   H872      1.0  0.51022  0.38977  0.58206  1.0000
  H   H873      1.0  0.60361  0.49066  0.96437  1.0000
  C   C538      1.0  0.55571  0.60241  0.83147  1.0000
  H   H874      1.0  0.54309  0.60409  0.83007  1.0000
  C   C539      1.0  0.51683  0.54597  0.96544  1.0000
  C   C540      1.0  0.62745  0.48054  0.99441  1.0000
  C   C541      1.0  0.63987  0.48564  0.93414  1.0000
  Fe  Fe110     1.0  0.51597  0.60511  0.87619  1.0000
  S   S221      1.0  0.53318  0.65357  0.97922  1.0000
  H   H875      1.0  0.61238  0.49414  0.91902  1.0000
  C   C542      1.0  0.53621  0.61950  0.70798  1.0000
  H   H876      1.0  0.63728  0.48579  0.90416  1.0000
  Fe  Fe111     1.0  0.52586  0.62668  0.94851  1.0000
  H   H877      1.0  0.54851  0.57362  0.75870  1.0000
  Fe  Fe112     1.0  0.50138  0.58666  0.94855  1.0000
  S   S222      1.0  0.66173  0.53255  0.00319  1.0000
  H   H878      1.0  0.54120  0.63037  0.79985  1.0000
  S   S223      1.0  0.54254  0.62341  0.90264  1.0000
  C   C543      1.0  0.52148  0.66692  0.51283  1.0000
  Fe  Fe113     1.0  0.51310  0.61487  0.54651  1.0000
  S   S224      1.0  0.54264  0.62391  0.55723  1.0000
  C   C544      1.0  0.51951  0.60465  0.70849  1.0000
  S   S225      1.0  0.54739  0.62714  0.66629  1.0000
  H   H879      1.0  0.63386  0.47141  0.00027  1.0000
  Fe  Fe114     1.0  0.53452  0.61182  0.61307  1.0000
  H   H880      1.0  0.54109  0.41458  0.58208  1.0000
  S   S226      1.0  0.52680  0.60365  0.98015  1.0000
  H   H881      1.0  0.55684  0.64030  0.74097  1.0000
  C   C545      1.0  0.58575  0.56082  0.98717  1.0000
  H   H882      1.0  0.56647  0.59539  0.00848  1.0000
  H   H883      1.0  0.51364  0.53297  0.95078  1.0000
  H   H884      1.0  0.52404  0.43136  0.52739  1.0000
  H   H885      1.0  0.63671  0.49424  0.00459  1.0000
  H   H886      1.0  0.50355  0.64487  0.68768  1.0000
  H   H887      1.0  0.61492  0.45215  0.94783  1.0000
  H   H888      1.0  0.52792  0.64231  0.60483  1.0000
  C   C546      1.0  0.57155  0.58557  0.00239  1.0000
  H   H889      1.0  0.55044  0.42501  0.53978  1.0000
  H   H890      1.0  0.50048  0.65709  0.59062  1.0000
  C   C547      1.0  0.49944  0.64899  0.61539  1.0000
  C   C548      1.0  0.51576  0.41843  0.54080  1.0000
  H   H891      1.0  0.50633  0.55037  0.95724  1.0000
  S   S227      1.0  0.49819  0.63087  0.52420  1.0000
  H   H892      1.0  0.54495  0.54782  0.00606  1.0000
  C   C549      1.0  0.51937  0.66478  0.98826  1.0000
  C   C550      1.0  0.50380  0.65364  0.51282  1.0000
  H   H893      1.0  0.53236  0.66340  0.51942  1.0000
  H   H894      1.0  0.51942  0.69902  0.04311  1.0000
  S   S228      1.0  0.51004  0.74710  0.06370  1.0000
  H   H895      1.0  0.54350  0.92839  0.07806  1.0000
  Fe  Fe115     1.0  0.49914  0.72516  0.45818  1.0000
  H   H896      1.0  0.56493  0.90782  0.01579  1.0000
  S   S229      1.0  0.51033  0.74470  0.41194  1.0000
  H   H897      1.0  0.54851  0.88488  0.02171  1.0000
  H   H898      1.0  0.52252  0.85517  0.47482  1.0000
  C   C551      1.0  0.54768  0.92366  0.05281  1.0000
  C   C552      1.0  0.52557  0.89311  0.06033  1.0000
  C   C553      1.0  0.55058  0.89916  0.02111  1.0000
  C   C554      1.0  0.57964  0.98068  0.45134  1.0000
  H   H899      1.0  0.51308  0.82884  0.43174  1.0000
  H   H900      1.0  0.55138  0.90693  0.11293  1.0000
  H   H901      1.0  0.56995  0.91143  0.08352  1.0000
  C   C555      1.0  0.55538  0.90286  0.08665  1.0000
  C   C556      1.0  0.52016  0.68273  0.35007  1.0000
  H   H902      1.0  0.53752  0.68220  0.03013  1.0000
  H   H903      1.0  0.51268  0.76736  0.24619  1.0000
  C   C557      1.0  0.51119  0.68960  0.49435  1.0000
  H   H904      1.0  0.55349  0.88870  0.08912  1.0000
  H   H905      1.0  0.51959  0.71488  0.36394  1.0000
  H   H906      1.0  0.53194  0.68446  0.36776  1.0000
  H   H907      1.0  0.53994  0.92553  0.02924  1.0000
  H   H908      1.0  0.57473  0.97356  0.42537  1.0000
  H   H909      1.0  0.51722  0.89416  0.03700  1.0000
  S   S230      1.0  0.50479  0.75338  0.17215  1.0000
  Fe  Fe116     1.0  0.49890  0.76189  0.44064  1.0000
  C   C558      1.0  0.52191  0.84255  0.48435  1.0000
  S   S231      1.0  0.56032  0.94759  0.48144  1.0000
  C   C559      1.0  0.50062  0.67357  0.40168  1.0000
  N   N57       1.0  0.54480  0.90471  0.05526  1.0000
  H   H910      1.0  0.52068  0.89678  0.08589  1.0000
  H   H911      1.0  0.51186  0.67530  0.42103  1.0000
  H   H912      1.0  0.54927  0.99315  0.47974  1.0000
  H   H913      1.0  0.58884  0.97067  0.02370  1.0000
  H   H914      1.0  0.56202  0.93279  0.04843  1.0000
  C   C560      1.0  0.57464  0.97113  0.48409  1.0000
  H   H915      1.0  0.50206  0.75396  0.30677  1.0000
  C   C561      1.0  0.51590  0.81103  0.47145  1.0000
  C   C562      1.0  0.51491  0.68852  0.02208  1.0000
  C   C563      1.0  0.50343  0.75329  0.24753  1.0000
  C   C564      1.0  0.51660  0.82756  0.45991  1.0000
  S   S232      1.0  0.51668  0.71218  0.48158  1.0000
  S   S233      1.0  0.50890  0.79261  0.43912  1.0000
  H   H916      1.0  0.52287  0.87865  0.06159  1.0000
  H   H917      1.0  0.52518  0.69215  0.32696  1.0000
  C   C565      1.0  0.49976  0.81172  0.02246  1.0000
  H   H918      1.0  0.50556  0.70769  0.40285  1.0000
  C   C566      1.0  0.51517  0.70485  0.38609  1.0000
  H   H919      1.0  0.51431  0.66878  0.33831  1.0000
  N   N58       1.0  0.50684  0.68621  0.37115  1.0000
  H   H920      1.0  0.52698  0.70733  0.40440  1.0000
  H   H921      1.0  0.54077  0.74762  0.01343  1.0000
  C   C567      1.0  0.50033  0.82907  0.01960  1.0000
  C   C568      1.0  0.59109  0.99927  0.45175  1.0000
  C   C569      1.0  0.52512  0.68476  0.50367  1.0000
  H   H922      1.0  0.53885  0.69486  0.50349  1.0000
  S   S234      1.0  0.52393  0.89985  0.50420  1.0000
  C   C570      1.0  0.52512  0.67886  0.01483  1.0000
  C   C571      1.0  0.52058  0.80968  0.50798  1.0000
  C   C572      1.0  0.58883  0.99614  0.01023  1.0000
  H   H923      1.0  0.52266  0.72557  0.01026  1.0000
  S   S235      1.0  0.50858  0.86181  0.98770  1.0000
  H   H924      1.0  0.54272  0.90024  0.99713  1.0000
  H   H925      1.0  0.50629  0.93300  0.82635  1.0000
  H   H926      1.0  0.54343  0.75497  0.91341  1.0000
  H   H927      1.0  0.53021  0.82366  0.56013  1.0000
  H   H928      1.0  0.52017  0.81065  0.94324  1.0000
  H   H929      1.0  0.54000  0.87737  0.62659  1.0000
  H   H930      1.0  0.51009  0.67560  0.66652  1.0000
  N   N59       1.0  0.53017  0.73859  0.95875  1.0000
  H   H931      1.0  0.56964  0.85765  0.66355  1.0000
  H   H932      1.0  0.56472  0.90627  0.64246  1.0000
  H   H933      1.0  0.54445  0.72895  0.99591  1.0000
  C   C573      1.0  0.52622  0.82478  0.53225  1.0000
  H   H934      1.0  0.56769  0.88748  0.59012  1.0000
  H   H935      1.0  0.51967  0.72388  0.90790  1.0000
  C   C574      1.0  0.58134  0.98049  0.51743  1.0000
  S   S236      1.0  0.56608  0.94416  0.97040  1.0000
  C   C575      1.0  0.49897  0.68450  0.00215  1.0000
  H   H936      1.0  0.49822  0.92491  0.72589  1.0000
  H   H937      1.0  0.55705  0.74716  0.94019  1.0000
  C   C576      1.0  0.57173  0.96758  0.97625  1.0000
  C   C577      1.0  0.54607  0.87067  0.64490  1.0000
  H   H938      1.0  0.56793  0.87133  0.70077  1.0000
  H   H939      1.0  0.52134  0.75822  0.97786  1.0000
  S   S237      1.0  0.51670  0.90935  0.96016  1.0000
  Fe  Fe117     1.0  0.53042  0.89730  0.86663  1.0000
  S   S238      1.0  0.54458  0.89655  0.91975  1.0000
  S   S239      1.0  0.53386  0.88661  0.81082  1.0000
  Fe  Fe118     1.0  0.51703  0.88300  0.94287  1.0000
  Fe  Fe119     1.0  0.54522  0.92685  0.52474  1.0000
  Fe  Fe120     1.0  0.54357  0.92296  0.93446  1.0000
  S   S240      1.0  0.53510  0.86018  0.55205  1.0000
  S   S241      1.0  0.50285  0.88197  0.88893  1.0000
  S   S242      1.0  0.53202  0.92476  0.87906  1.0000
  H   H940      1.0  0.56937  0.86709  0.59917  1.0000
  Fe  Fe121     1.0  0.53629  0.91691  0.60490  1.0000
  S   S243      1.0  0.55586  0.91371  0.56668  1.0000
  S   S244      1.0  0.54505  0.92911  0.66231  1.0000
  C   C578      1.0  0.51651  0.74564  0.96066  1.0000
  H   H941      1.0  0.56598  0.89967  0.68851  1.0000
  Fe  Fe122     1.0  0.53284  0.88709  0.54949  1.0000
  C   C579      1.0  0.57310  0.88096  0.61026  1.0000
  S   S245      1.0  0.52709  0.93169  0.56405  1.0000
  C   C580      1.0  0.50791  0.83983  0.98919  1.0000
  H   H942      1.0  0.57777  0.97336  0.54285  1.0000
  C   C581      1.0  0.50693  0.80492  0.99501  1.0000
  H   H943      1.0  0.50399  0.73574  0.97288  1.0000
  C   C582      1.0  0.52080  0.67497  0.64935  1.0000
  C   C583      1.0  0.53654  0.89862  0.76991  1.0000
  C   C584      1.0  0.54552  0.91738  0.76985  1.0000
  C   C585      1.0  0.54800  0.92651  0.73662  1.0000
  C   C586      1.0  0.54132  0.91701  0.70327  1.0000
  C   C587      1.0  0.53195  0.89827  0.70340  1.0000
  C   C588      1.0  0.52982  0.88910  0.73655  1.0000
  H   H944      1.0  0.55095  0.92483  0.79530  1.0000
  H   H945      1.0  0.55527  0.94102  0.73670  1.0000
  C   C589      1.0  0.52698  0.84134  0.52063  1.0000
  H   H946      1.0  0.52277  0.87457  0.73647  1.0000
  H   H947      1.0  0.51018  0.94337  0.78240  1.0000
  C   C590      1.0  0.56516  0.97665  0.95246  1.0000
  H   H948      1.0  0.58795  0.88840  0.61059  1.0000
  H   H949      1.0  0.55605  0.96931  0.93009  1.0000
  H   H950      1.0  0.51287  0.74883  0.93307  1.0000
  C   C591      1.0  0.53477  0.73506  0.99620  1.0000
  S   S246      1.0  0.50709  0.78330  0.99753  1.0000
  H   H951      1.0  0.54181  0.85679  0.63340  1.0000
  C   C592      1.0  0.51499  0.83299  0.96164  1.0000
  H   H952      1.0  0.52638  0.89090  0.67797  1.0000
  H   H953      1.0  0.50913  0.91110  0.73829  1.0000
  N   N60       1.0  0.56579  0.88070  0.64704  1.0000
  C   C593      1.0  0.51456  0.81570  0.96465  1.0000
  S   S247      1.0  0.51410  0.88982  0.59068  1.0000
  C   C594      1.0  0.54641  0.75200  0.94175  1.0000
  Fe  Fe123     1.0  0.50519  0.90936  0.90417  1.0000
  H   H954      1.0  0.54009  0.86958  0.67232  1.0000
  H   H955      1.0  0.53270  0.71562  0.93548  1.0000
  C   C595      1.0  0.57320  0.87176  0.67273  1.0000
  H   H956      1.0  0.52129  0.92975  0.79551  1.0000
  H   H957      1.0  0.51050  0.71143  0.94821  1.0000
  H   H958      1.0  0.52091  0.84104  0.93811  1.0000
  C   C596      1.0  0.52299  0.72168  0.93654  1.0000
  H   H959      1.0  0.58550  0.90756  0.66086  1.0000
  H   H960      1.0  0.58807  0.87898  0.67499  1.0000
  C   C597      1.0  0.57063  0.99536  0.95716  1.0000
  C   C598      1.0  0.57074  0.89934  0.66029  1.0000
  Fe  Fe124     1.0  0.50666  0.90419  0.54641  1.0000
  C   C599      1.0  0.50843  0.93096  0.79691  1.0000
  H   H961      1.0  0.55203  0.76497  0.95777  1.0000
  H   H962      1.0  0.52237  0.68372  0.62540  1.0000
  H   H963      1.0  0.52031  0.79716  0.51731  1.0000
  H   H964      1.0  0.50454  0.89705  0.79933  1.0000
  H   H965      1.0  0.53356  0.68088  0.66584  1.0000
  C   C600      1.0  0.58362  0.97748  0.00511  1.0000
  C   C601      1.0  0.59302  0.99906  0.51782  1.0000
  H   H966      1.0  0.69382  0.31726  0.22163  1.0000
  N   N61       1.0  0.68273  0.29637  0.17979  1.0000
  H   H967      1.0  0.69265  0.28654  0.22508  1.0000
  C   C602      1.0  0.68526  0.13403  0.34239  1.0000
  H   H968      1.0  0.75892  0.31835  0.01850  1.0000
  Fe  Fe125     1.0  0.67452  0.31791  0.42193  1.0000
  H   H969      1.0  0.71691  0.26592  0.47997  1.0000
  C   C603      1.0  0.68880  0.29319  0.49174  1.0000
  C   C604      1.0  0.78812  0.31153  0.02374  1.0000
  H   H970      1.0  0.82114  0.29908  0.42133  1.0000
  H   H971      1.0  0.82962  0.28560  0.32882  1.0000
  H   H972      1.0  0.66811  0.30015  0.13415  1.0000
  H   H973      1.0  0.67838  0.12109  0.32642  1.0000
  C   C605      1.0  0.68136  0.28180  0.20449  1.0000
  H   H974      1.0  0.67376  0.12240  0.48770  1.0000
  H   H975      1.0  0.67685  0.15216  0.42002  1.0000
  C   C606      1.0  0.67541  0.13600  0.49287  1.0000
  H   H976      1.0  0.70111  0.31362  0.14090  1.0000
  H   H977      1.0  0.66867  0.27673  0.21980  1.0000
  C   C607      1.0  0.69212  0.14939  0.50573  1.0000
  H   H978      1.0  0.68632  0.16314  0.37843  1.0000
  H   H979      1.0  0.69798  0.15339  0.40598  1.0000
  Fe  Fe126     1.0  0.67888  0.31568  0.05886  1.0000
  S   S248      1.0  0.69144  0.29626  0.06475  1.0000
  H   H980      1.0  0.68162  0.27020  0.18886  1.0000
  S   S249      1.0  0.69172  0.30282  0.41917  1.0000
  C   C608      1.0  0.69577  0.29226  0.45757  1.0000
  C   C609      1.0  0.70592  0.28242  0.45350  1.0000
  C   C610      1.0  0.81282  0.31375  0.49707  1.0000
  H   H981      1.0  0.71137  0.28171  0.42712  1.0000
  C   C611      1.0  0.68451  0.15150  0.39571  1.0000
  H   H982      1.0  0.70131  0.26726  0.05464  1.0000
  H   H983      1.0  0.66492  0.11827  0.42262  1.0000
  C   C612      1.0  0.82313  0.29068  0.39927  1.0000
  H   H984      1.0  0.82679  0.31370  0.34537  1.0000
  C   C613      1.0  0.69987  0.28942  0.02639  1.0000
  H   H985      1.0  0.68293  0.32254  0.18369  1.0000
  C   C614      1.0  0.82266  0.28568  0.50620  1.0000
  C   C615      1.0  0.69969  0.30266  0.15992  1.0000
  C   C616      1.0  0.75927  0.28599  0.01831  1.0000
  H   H986      1.0  0.81098  0.28569  0.38097  1.0000
  C   C617      1.0  0.66632  0.13823  0.01748  1.0000
  H   H987      1.0  0.70029  0.29164  0.14274  1.0000
  H   H988      1.0  0.66729  0.10613  0.38367  1.0000
  S   S250      1.0  0.66552  0.10389  0.01670  1.0000
  H   H989      1.0  0.68677  0.12093  0.40984  1.0000
  H   H990      1.0  0.71153  0.30791  0.17905  1.0000
  H   H991      1.0  0.79485  0.30263  0.02952  1.0000
  H   H992      1.0  0.80884  0.32455  0.49345  1.0000
  H   H993      1.0  0.75443  0.28946  0.04417  1.0000
  H   H994      1.0  0.76547  0.27677  0.02519  1.0000
  C   C618      1.0  0.81805  0.28477  0.04287  1.0000
  N   N62       1.0  0.67509  0.13423  0.37516  1.0000
  C   C619      1.0  0.70907  0.27348  0.48336  1.0000
  H   H995      1.0  0.81156  0.27998  0.06857  1.0000
  C   C620      1.0  0.68235  0.31147  0.20157  1.0000
  H   H996      1.0  0.66982  0.30712  0.21728  1.0000
  H   H997      1.0  0.68668  0.14508  0.32367  1.0000
  C   C621      1.0  0.70391  0.27460  0.02942  1.0000
  H   H998      1.0  0.68120  0.30097  0.49520  1.0000
  C   C622      1.0  0.67350  0.11927  0.39889  1.0000
  H   H999      1.0  0.78472  0.31569  0.05056  1.0000
  H   H1000     1.0  0.69891  0.13552  0.35009  1.0000
  H   H1001     1.0  0.82370  0.27886  0.41265  1.0000
  S   S251      1.0  0.78723  0.25824  0.01135  1.0000
  C   C623      1.0  0.67443  0.15688  0.01084  1.0000
  C   C624      1.0  0.67999  0.17131  0.50787  1.0000
  C   C625      1.0  0.66746  0.28949  0.15312  1.0000
  H   H1002     1.0  0.66741  0.27824  0.13574  1.0000
  H   H1003     1.0  0.66713  0.16479  0.01646  1.0000
  C   C626      1.0  0.83051  0.31672  0.48947  1.0000
  H   H1004     1.0  0.82661  0.27487  0.50991  1.0000
  C   C627      1.0  0.80014  0.29692  0.50916  1.0000
  H   H1005     1.0  0.70324  0.14595  0.50995  1.0000
  H   H1006     1.0  0.79811  0.32376  0.01067  1.0000
  H   H1007     1.0  0.69408  0.14290  0.90715  1.0000
  C   C628      1.0  0.68993  0.15315  0.89639  1.0000
  C   C629      1.0  0.81771  0.28282  0.97678  1.0000
  H   H1008     1.0  0.74572  0.17008  0.62019  1.0000
  H   H1009     1.0  0.68561  0.15873  0.92035  1.0000
  C   C630      1.0  0.74033  0.18032  0.61901  1.0000
  C   C631      1.0  0.69872  0.18120  0.86524  1.0000
  H   H1010     1.0  0.70765  0.15947  0.59030  1.0000
  S   S252      1.0  0.70092  0.18892  0.98790  1.0000
  C   C632      1.0  0.72034  0.17603  0.90260  1.0000
  N   N63       1.0  0.72307  0.17430  0.63773  1.0000
  H   H1011     1.0  0.72498  0.16609  0.91308  1.0000
  H   H1012     1.0  0.73070  0.16064  0.67961  1.0000
  C   C633      1.0  0.70976  0.15989  0.84506  1.0000
  S   S253      1.0  0.73754  0.23972  0.99080  1.0000
  C   C634      1.0  0.74633  0.22199  0.79500  1.0000
  H   H1013     1.0  0.69429  0.18684  0.88892  1.0000
  C   C635      1.0  0.71648  0.18832  0.63529  1.0000
  C   C636      1.0  0.69286  0.13616  0.99636  1.0000
  H   H1014     1.0  0.66811  0.05298  0.95817  1.0000
  H   H1015     1.0  0.73884  0.18284  0.58948  1.0000
  S   S254      1.0  0.73553  0.23751  0.51164  1.0000
  C   C637      1.0  0.69181  0.28413  0.52152  1.0000
  C   C638      1.0  0.70983  0.15747  0.61982  1.0000
  H   H1016     1.0  0.70015  0.12823  0.99093  1.0000
  H   H1017     1.0  0.68724  0.17543  0.84526  1.0000
  H   H1018     1.0  0.69656  0.15263  0.63285  1.0000
  S   S255      1.0  0.78947  0.26095  0.52809  1.0000
  H   H1019     1.0  0.71716  0.18237  0.92675  1.0000
  N   N64       1.0  0.70466  0.16753  0.87730  1.0000
  H   H1020     1.0  0.71432  0.14655  0.62101  1.0000
  C   C639      1.0  0.75170  0.21598  0.76312  1.0000
  N   N65       1.0  0.77198  0.30218  0.99992  1.0000
  C   C640      1.0  0.72566  0.17111  0.67670  1.0000
  H   H1021     1.0  0.72628  0.20138  0.64777  1.0000
  H   H1022     1.0  0.75062  0.19309  0.63155  1.0000
  C   C641      1.0  0.71113  0.26904  0.99985  1.0000
  H   H1023     1.0  0.70361  0.18442  0.64952  1.0000
  H   H1024     1.0  0.73553  0.18361  0.69091  1.0000
  H   H1025     1.0  0.71405  0.19072  0.60623  1.0000
  H   H1026     1.0  0.70974  0.19263  0.85194  1.0000
  H   H1027     1.0  0.73182  0.18672  0.88893  1.0000
  H   H1028     1.0  0.76529  0.29020  0.94580  1.0000
  S   S256      1.0  0.75196  0.22418  0.58230  1.0000
  H   H1029     1.0  0.69753  0.26066  0.63704  1.0000
  S   S257      1.0  0.74909  0.26227  0.58833  1.0000
  H   H1030     1.0  0.81108  0.27659  0.95105  1.0000
  C   C642      1.0  0.73832  0.28240  0.68004  1.0000
  C   C643      1.0  0.73751  0.23306  0.79128  1.0000
  H   H1031     1.0  0.71457  0.16116  0.98033  1.0000
  C   C644      1.0  0.73952  0.23210  0.72430  1.0000
  H   H1032     1.0  0.70663  0.25329  0.67530  1.0000
  S   S258      1.0  0.71963  0.22284  0.91064  1.0000
  S   S259      1.0  0.72541  0.27299  0.93085  1.0000
  S   S260      1.0  0.71269  0.22392  0.58702  1.0000
  C   C645      1.0  0.71477  0.27855  0.96728  1.0000
  S   S261      1.0  0.70511  0.26289  0.55532  1.0000
  H   H1033     1.0  0.72712  0.24646  0.75376  1.0000
  H   H1034     1.0  0.68636  0.28484  0.54789  1.0000
  H   H1035     1.0  0.73545  0.27400  0.70489  1.0000
  Fe  Fe127     1.0  0.76051  0.24921  0.54833  1.0000
  C   C646      1.0  0.71066  0.29334  0.96417  1.0000
  S   S262      1.0  0.71601  0.18341  0.52956  1.0000
  H   H1036     1.0  0.71338  0.30073  0.93900  1.0000
  H   H1037     1.0  0.70841  0.27942  0.71277  1.0000
  C   C647      1.0  0.72613  0.29225  0.62891  1.0000
  H   H1038     1.0  0.72026  0.30185  0.69634  1.0000
  H   H1039     1.0  0.71289  0.16660  0.69162  1.0000
  H   H1040     1.0  0.74589  0.27747  0.66150  1.0000
  H   H1041     1.0  0.73327  0.23777  0.81546  1.0000
  H   H1042     1.0  0.73336  0.28763  0.60887  1.0000
  C   C648      1.0  0.71016  0.26217  0.65119  1.0000
  H   H1043     1.0  0.73479  0.30664  0.63581  1.0000
  S   S263      1.0  0.75243  0.21471  0.94637  1.0000
  C   C649      1.0  0.71198  0.28759  0.68760  1.0000
  H   H1044     1.0  0.69932  0.28675  0.67475  1.0000
  Fe  Fe128     1.0  0.73381  0.25033  0.93688  1.0000
  Fe  Fe129     1.0  0.72363  0.24907  0.55436  1.0000
  Fe  Fe130     1.0  0.72638  0.21318  0.54755  1.0000
  C   C650      1.0  0.73405  0.23798  0.75616  1.0000
  H   H1045     1.0  0.74738  0.29648  0.68852  1.0000
  Fe  Fe131     1.0  0.72537  0.21216  0.96349  1.0000
  S   S264      1.0  0.76080  0.25494  0.91575  1.0000
  Fe  Fe132     1.0  0.73864  0.23652  0.61948  1.0000
  N   N66       1.0  0.72166  0.28111  0.66193  1.0000
  S   S265      1.0  0.75034  0.21485  0.83868  1.0000
  S   S266      1.0  0.73447  0.23874  0.68096  1.0000
  H   H1046     1.0  0.71704  0.25686  0.63183  1.0000
  H   H1047     1.0  0.71384  0.29140  0.61424  1.0000
  H   H1048     1.0  0.67796  0.14617  0.87799  1.0000
  H   H1049     1.0  0.75303  0.21676  0.70380  1.0000
  H   H1050     1.0  0.75114  0.30749  0.97455  1.0000
  H   H1051     1.0  0.69828  0.15334  0.82526  1.0000
  H   H1052     1.0  0.71447  0.14965  0.85330  1.0000
  H   H1053     1.0  0.72087  0.17059  0.83033  1.0000
  Fe  Fe133     1.0  0.74689  0.22633  0.89410  1.0000
  Fe  Fe134     1.0  0.76427  0.24342  0.96919  1.0000
  C   C651      1.0  0.74846  0.22112  0.72795  1.0000
  C   C652      1.0  0.77712  0.29682  0.96481  1.0000
  H   H1054     1.0  0.77249  0.32666  0.97890  1.0000
  H   H1055     1.0  0.75867  0.20753  0.76572  1.0000
  H   H1056     1.0  0.78306  0.28712  0.96909  1.0000
  C   C653      1.0  0.69184  0.16538  0.99708  1.0000
  H   H1057     1.0  0.68158  0.18485  0.51356  1.0000
  C   C654      1.0  0.70107  0.15488  0.99013  1.0000
  C   C655      1.0  0.70196  0.27427  0.51739  1.0000
  C   C656      1.0  0.80495  0.28271  0.51377  1.0000
  C   C657      1.0  0.70312  0.29871  0.99356  1.0000
  H   H1058     1.0  0.70006  0.31017  0.99097  1.0000
  H   H1059     1.0  0.71390  0.25743  0.00240  1.0000
  H   H1060     1.0  0.78716  0.30859  0.95062  1.0000
  C   C658      1.0  0.69456  0.16714  0.51330  1.0000
  H   H1061     1.0  0.74735  0.27828  0.00032  1.0000
  C   C659      1.0  0.76331  0.31426  0.99271  1.0000
  H   H1062     1.0  0.78663  0.29492  0.51473  1.0000
  C   C660      1.0  0.80905  0.27650  0.00972  1.0000
  C   C661      1.0  0.67544  0.12768  0.01018  1.0000
  H   H1063     1.0  0.66903  0.35060  0.18285  1.0000
  Fe  Fe135     1.0  0.68249  0.35401  0.06170  1.0000
  S   S267      1.0  0.70052  0.38388  0.06592  1.0000
  H   H1064     1.0  0.69700  0.52509  0.08570  1.0000
  C   C662      1.0  0.72487  0.41954  0.50091  1.0000
  H   H1065     1.0  0.80502  0.47351  0.03779  1.0000
  C   C663      1.0  0.69248  0.39933  0.34900  1.0000
  S   S268      1.0  0.67036  0.37065  0.49221  1.0000
  H   H1066     1.0  0.70677  0.52467  0.12984  1.0000
  H   H1067     1.0  0.73541  0.40202  0.47749  1.0000
  N   N67       1.0  0.77944  0.45114  0.02700  1.0000
  H   H1068     1.0  0.66944  0.52993  0.08122  1.0000
  S   S269      1.0  0.76607  0.49081  0.50527  1.0000
  S   S270      1.0  0.68551  0.34743  0.41087  1.0000
  S   S271      1.0  0.68560  0.33622  0.10476  1.0000
  C   C664      1.0  0.67679  0.50584  0.48712  1.0000
  C   C665      1.0  0.70489  0.41435  0.40706  1.0000
  H   H1069     1.0  0.69070  0.43070  0.36203  1.0000
  C   C666      1.0  0.77079  0.43143  0.03149  1.0000
  H   H1070     1.0  0.68036  0.39306  0.33063  1.0000
  H   H1071     1.0  0.81322  0.50577  0.47763  1.0000
  C   C667      1.0  0.79834  0.45859  0.04005  1.0000
  H   H1072     1.0  0.70221  0.41907  0.43401  1.0000
  N   N68       1.0  0.68835  0.40574  0.38408  1.0000
  C   C668      1.0  0.67498  0.39031  0.40344  1.0000
  C   C669      1.0  0.69089  0.52214  0.47786  1.0000
  C   C670      1.0  0.70682  0.38807  0.48333  1.0000
  H   H1073     1.0  0.68033  0.38045  0.41061  1.0000
  C   C671      1.0  0.67094  0.50794  0.13342  1.0000
  H   H1074     1.0  0.70287  0.41048  0.33396  1.0000
  H   H1075     1.0  0.67758  0.50131  0.15038  1.0000
  C   C672      1.0  0.70939  0.39647  0.02645  1.0000
  H   H1076     1.0  0.79945  0.45549  0.06930  1.0000
  H   H1077     1.0  0.75544  0.45384  0.03989  1.0000
  C   C673      1.0  0.71539  0.41520  0.02839  1.0000
  C   C674      1.0  0.69925  0.53084  0.11420  1.0000
  H   H1078     1.0  0.71956  0.53814  0.47919  1.0000
  C   C675      1.0  0.69144  0.38930  0.49527  1.0000
  H   H1079     1.0  0.66814  0.50136  0.10574  1.0000
  C   C676      1.0  0.67259  0.53578  0.10955  1.0000
  H   H1080     1.0  0.77043  0.45706  0.07828  1.0000
  H   H1081     1.0  0.70593  0.37544  0.47225  1.0000
  N   N69       1.0  0.68213  0.52753  0.13155  1.0000
  S   S272      1.0  0.66959  0.35506  0.31708  1.0000
  H   H1082     1.0  0.77569  0.47430  0.04478  1.0000
  H   H1083     1.0  0.77078  0.42784  0.06076  1.0000
  C   C677      1.0  0.76985  0.45945  0.04847  1.0000
  C   C678      1.0  0.71292  0.51236  0.50325  1.0000
  C   C679      1.0  0.68101  0.41892  0.37684  1.0000
  C   C680      1.0  0.82715  0.51127  0.48650  1.0000
  H   H1084     1.0  0.71524  0.42622  0.39364  1.0000
  C   C681      1.0  0.68562  0.53557  0.16903  1.0000
  H   H1085     1.0  0.69283  0.52973  0.18656  1.0000
  H   H1086     1.0  0.71087  0.40481  0.41266  1.0000
  H   H1087     1.0  0.68066  0.55054  0.10716  1.0000
  H   H1088     1.0  0.68798  0.53230  0.46469  1.0000
  H   H1089     1.0  0.71384  0.42154  0.05342  1.0000
  H   H1090     1.0  0.70803  0.54550  0.11243  1.0000
  C   C682      1.0  0.72350  0.40312  0.48639  1.0000
  H   H1091     1.0  0.80617  0.45309  0.02371  1.0000
  H   H1092     1.0  0.68008  0.36580  0.24359  1.0000
  C   C683      1.0  0.69279  0.40570  0.50996  1.0000
  H   H1093     1.0  0.67786  0.42408  0.40285  1.0000
  C   C684      1.0  0.67385  0.50685  0.02211  1.0000
  H   H1094     1.0  0.69745  0.38887  0.35346  1.0000
  H   H1095     1.0  0.69384  0.55038  0.16871  1.0000
  C   C685      1.0  0.70881  0.52540  0.48614  1.0000
  C   C686      1.0  0.66932  0.35235  0.24207  1.0000
  H   H1096     1.0  0.67286  0.53318  0.18273  1.0000
  H   H1097     1.0  0.66842  0.41277  0.35982  1.0000
  H   H1098     1.0  0.77771  0.42472  0.01573  1.0000
  H   H1099     1.0  0.68384  0.48738  0.03638  1.0000
  Fe  Fe136     1.0  0.66585  0.34785  0.45191  1.0000
  S   S273      1.0  0.74616  0.43786  0.50485  1.0000
  S   S274      1.0  0.67799  0.33428  0.01484  1.0000
  C   C687      1.0  0.68539  0.49836  0.01869  1.0000
  C   C688      1.0  0.68092  0.49285  0.50446  1.0000
  H   H1100     1.0  0.67107  0.39462  0.42958  1.0000
  H   H1101     1.0  0.75656  0.42543  0.02138  1.0000
  C   C689      1.0  0.71938  0.39900  0.96366  1.0000
  H   H1102     1.0  0.80930  0.54522  0.90014  1.0000
  H   H1103     1.0  0.72103  0.39268  0.93871  1.0000
  H   H1104     1.0  0.77773  0.52081  0.75639  1.0000
  H   H1105     1.0  0.75344  0.42065  0.64759  1.0000
  H   H1106     1.0  0.71852  0.42061  0.67147  1.0000
  C   C690      1.0  0.71797  0.51938  0.66419  1.0000
  H   H1107     1.0  0.71248  0.53946  0.61250  1.0000
  C   C691      1.0  0.77873  0.45515  0.98785  1.0000
  Fe  Fe137     1.0  0.73510  0.49141  0.95396  1.0000
  C   C692      1.0  0.74053  0.47255  0.74071  1.0000
  S   S275      1.0  0.72917  0.47418  0.90208  1.0000
  S   S276      1.0  0.73243  0.47261  0.56205  1.0000
  C   C693      1.0  0.74116  0.53196  0.61982  1.0000
  H   H1108     1.0  0.72163  0.50105  0.58275  1.0000
  H   H1109     1.0  0.69621  0.51650  0.60514  1.0000
  C   C694      1.0  0.70067  0.51798  0.96963  1.0000
  H   H1110     1.0  0.70456  0.49159  0.61581  1.0000
  H   H1111     1.0  0.72259  0.40101  0.66529  1.0000
  C   C695      1.0  0.68922  0.52660  0.97333  1.0000
  C   C696      1.0  0.74540  0.47973  0.77677  1.0000
  H   H1112     1.0  0.74479  0.53229  0.59046  1.0000
  H   H1113     1.0  0.73000  0.45910  0.73655  1.0000
  H   H1114     1.0  0.72335  0.44153  0.62095  1.0000
  H   H1115     1.0  0.74418  0.54598  0.62858  1.0000
  C   C697      1.0  0.71877  0.50131  0.61233  1.0000
  N   N70       1.0  0.72952  0.41870  0.61959  1.0000
  C   C698      1.0  0.72868  0.40468  0.59282  1.0000
  H   H1116     1.0  0.72628  0.51450  0.68111  1.0000
  H   H1117     1.0  0.74947  0.44042  0.65186  1.0000
  Fe  Fe138     1.0  0.74813  0.49968  0.53793  1.0000
  H   H1118     1.0  0.73863  0.47181  0.79990  1.0000
  H   H1119     1.0  0.78492  0.46989  0.98346  1.0000
  S   S277      1.0  0.73623  0.43082  0.92788  1.0000
  C   C699      1.0  0.69883  0.49601  0.51226  1.0000
  C   C700      1.0  0.71127  0.38836  0.99386  1.0000
  H   H1120     1.0  0.71099  0.52241  0.94941  1.0000
  H   H1121     1.0  0.72056  0.53304  0.67484  1.0000
  Fe  Fe139     1.0  0.74455  0.46086  0.93024  1.0000
  N   N71       1.0  0.72213  0.51964  0.62492  1.0000
  H   H1122     1.0  0.71031  0.43357  0.52292  1.0000
  H   H1123     1.0  0.75021  0.52772  0.63590  1.0000
  H   H1124     1.0  0.71391  0.52667  0.57361  1.0000
  C   C701      1.0  0.82524  0.49531  0.97671  1.0000
  C   C702      1.0  0.74824  0.42920  0.63280  1.0000
  C   C703      1.0  0.72532  0.41774  0.96559  1.0000
  S   S278      1.0  0.76133  0.51234  0.93371  1.0000
  C   C704      1.0  0.71811  0.41025  0.65096  1.0000
  S   S279      1.0  0.74199  0.47285  0.66531  1.0000
  C   C705      1.0  0.82128  0.51971  0.90397  1.0000
  H   H1125     1.0  0.70366  0.51030  0.66893  1.0000
  H   H1126     1.0  0.70388  0.40233  0.64191  1.0000
  C   C706      1.0  0.71066  0.52585  0.60323  1.0000
  H   H1127     1.0  0.72735  0.49625  0.62777  1.0000
  H   H1128     1.0  0.73318  0.39505  0.60542  1.0000
  C   C707      1.0  0.67579  0.52117  0.99968  1.0000
  C   C708      1.0  0.74909  0.48261  0.71014  1.0000
  H   H1129     1.0  0.71482  0.39686  0.58136  1.0000
  C   C709      1.0  0.82137  0.50730  0.99841  1.0000
  S   S280      1.0  0.80076  0.50935  0.99387  1.0000
  C   C710      1.0  0.72305  0.43082  0.60164  1.0000
  H   H1130     1.0  0.70903  0.42339  0.59094  1.0000
  H   H1131     1.0  0.75726  0.43532  0.60961  1.0000
  Fe  Fe140     1.0  0.77487  0.49618  0.95835  1.0000
  S   S281      1.0  0.77119  0.47922  0.90751  1.0000
  Fe  Fe141     1.0  0.78460  0.49891  0.55495  1.0000
  S   S282      1.0  0.77104  0.47195  0.58113  1.0000
  H   H1132     1.0  0.73740  0.41073  0.56911  1.0000
  S   S283      1.0  0.76786  0.51001  0.58607  1.0000
  H   H1133     1.0  0.69086  0.53763  0.95572  1.0000
  Fe  Fe142     1.0  0.75627  0.49404  0.88338  1.0000
  S   S284      1.0  0.81540  0.51205  0.55775  1.0000
  C   C711      1.0  0.80421  0.53449  0.87833  1.0000
  Fe  Fe143     1.0  0.75161  0.46443  0.53325  1.0000
  H   H1134     1.0  0.78582  0.44913  0.97066  1.0000
  H   H1135     1.0  0.80897  0.50865  0.91437  1.0000
  Fe  Fe144     1.0  0.75313  0.48234  0.60848  1.0000
  H   H1136     1.0  0.81556  0.48683  0.95626  1.0000
  H   H1137     1.0  0.76935  0.50795  0.69297  1.0000
  H   H1138     1.0  0.73155  0.43757  0.57819  1.0000
  H   H1139     1.0  0.79151  0.52375  0.88793  1.0000
  H   H1140     1.0  0.81930  0.50721  0.83434  1.0000
  S   S285      1.0  0.73571  0.51767  0.51507  1.0000
  C   C712      1.0  0.75880  0.49720  0.78276  1.0000
  S   S286      1.0  0.74920  0.47681  0.98267  1.0000
  N   N72       1.0  0.81732  0.52724  0.87028  1.0000
  H   H1141     1.0  0.76467  0.44966  0.97716  1.0000
  H   H1142     1.0  0.70675  0.37394  0.99213  1.0000
  H   H1143     1.0  0.70168  0.48581  0.52537  1.0000
  H   H1144     1.0  0.79720  0.50164  0.85049  1.0000
  C   C713      1.0  0.76736  0.50728  0.75217  1.0000
  S   S287      1.0  0.76520  0.50714  0.82762  1.0000
  C   C714      1.0  0.76261  0.50003  0.71610  1.0000
  H   H1145     1.0  0.80613  0.51802  0.81600  1.0000
  H   H1146     1.0  0.80066  0.54009  0.85348  1.0000
  C   C715      1.0  0.80975  0.51292  0.84152  1.0000
  C   C716      1.0  0.69890  0.50385  0.99250  1.0000
  S   S288      1.0  0.71330  0.49282  0.99060  1.0000
  H   H1147     1.0  0.82674  0.53003  0.92656  1.0000
  C   C717      1.0  0.72306  0.42576  0.99792  1.0000
  H   H1148     1.0  0.83121  0.51415  0.89923  1.0000
  H   H1149     1.0  0.72716  0.44008  0.99951  1.0000
  H   H1150     1.0  0.68087  0.40673  0.51905  1.0000
  C   C718      1.0  0.70944  0.42087  0.51236  1.0000
  H   H1151     1.0  0.67013  0.48020  0.51176  1.0000
  H   H1152     1.0  0.86803  0.31395  0.38916  1.0000
  H   H1153     1.0  0.85502  0.31573  0.42633  1.0000
  C   C719      1.0  0.84123  0.28993  0.34849  1.0000
  H   H1154     1.0  0.84226  0.30496  0.06901  1.0000
  H   H1155     1.0  0.85361  0.29752  0.33283  1.0000
  H   H1156     1.0  0.85619  0.29484  0.41696  1.0000
  C   C720      1.0  0.83537  0.30255  0.49438  1.0000
  H   H1157     1.0  0.87525  0.32327  0.25462  1.0000
  C   C721      1.0  0.85538  0.30660  0.40396  1.0000
  H   H1158     1.0  0.85081  0.32539  0.34841  1.0000
  N   N73       1.0  0.83957  0.30109  0.37896  1.0000
  H   H1159     1.0  0.84895  0.30460  0.48943  1.0000
  C   C722      1.0  0.83549  0.29901  0.04322  1.0000
  C   C723      1.0  0.83864  0.31728  0.36411  1.0000
  H   H1160     1.0  0.84203  0.27763  0.35880  1.0000
  H   H1161     1.0  0.83766  0.32614  0.38656  1.0000
  H   H1162     1.0  0.88801  0.33399  0.19359  1.0000
  C   C724      1.0  0.84437  0.30494  0.01035  1.0000
  H   H1163     1.0  0.92155  0.32205  0.01071  1.0000
  H   H1164     1.0  0.88332  0.31389  0.94653  1.0000
  H   H1165     1.0  0.89384  0.30098  0.92661  1.0000
  C   C725      1.0  0.89573  0.31494  0.93313  1.0000
  C   C726      1.0  0.90973  0.31506  0.99186  1.0000
  C   C727      1.0  0.83530  0.29678  0.97717  1.0000
  H   H1166     1.0  0.92702  0.31210  0.93245  1.0000
  N   N74       1.0  0.91174  0.32469  0.95712  1.0000
  H   H1167     1.0  0.90811  0.30107  0.98702  1.0000
  S   S289      1.0  0.86709  0.32152  0.00906  1.0000
  H   H1168     1.0  0.84200  0.30116  0.95154  1.0000
  H   H1169     1.0  0.89667  0.32192  0.90684  1.0000
  C   C728      1.0  0.92789  0.32573  0.93859  1.0000
  H   H1170     1.0  0.92979  0.33289  0.91224  1.0000
  H   H1171     1.0  0.89772  0.31414  0.00668  1.0000
  H   H1172     1.0  0.94020  0.33319  0.95597  1.0000
  Fe  Fe145     1.0  0.89438  0.38699  0.40567  1.0000
  Fe  Fe146     1.0  0.89533  0.35217  0.38030  1.0000
  C   C729      1.0  0.94978  0.59163  0.06225  1.0000
  C   C730      1.0  0.98987  0.39359  0.46781  1.0000
  Fe  Fe147     1.0  0.87364  0.35192  0.44812  1.0000
  H   H1173     1.0  0.83883  0.46213  0.49620  1.0000
  Fe  Fe148     1.0  0.91544  0.37169  0.45116  1.0000
  S   S290      1.0  0.87296  0.35996  0.38977  1.0000
  S   S291      1.0  0.91702  0.38004  0.39222  1.0000
  Fe  Fe149     1.0  0.91025  0.36095  0.11672  1.0000
  S   S292      1.0  0.91416  0.34788  0.06449  1.0000
  S   S293      1.0  0.92279  0.36241  0.17348  1.0000
  Fe  Fe150     1.0  0.89367  0.38183  0.07652  1.0000
  Fe  Fe151     1.0  0.88594  0.34390  0.04887  1.0000
  H   H1174     1.0  0.90555  0.42348  0.23767  1.0000
  Fe  Fe152     1.0  0.92401  0.37544  0.04031  1.0000
  S   S294      1.0  0.88151  0.35493  0.10297  1.0000
  S   S295      1.0  0.92203  0.38866  0.09305  1.0000
  H   H1175     1.0  0.87194  0.39990  0.19195  1.0000
  H   H1176     1.0  0.97176  0.42877  0.40430  1.0000
  H   H1177     1.0  0.93776  0.44607  0.41566  1.0000
  C   C731      1.0  0.89531  0.34082  0.21836  1.0000
  H   H1178     1.0  0.99384  0.56391  0.44689  1.0000
  C   C732      1.0  0.91233  0.35512  0.21600  1.0000
  C   C733      1.0  0.92174  0.36366  0.24850  1.0000
  C   C734      1.0  0.91430  0.35799  0.28304  1.0000
  C   C735      1.0  0.96237  0.39243  0.49324  1.0000
  H   H1179     1.0  0.93500  0.37458  0.24700  1.0000
  H   H1180     1.0  0.92184  0.36450  0.30781  1.0000
  S   S296      1.0  0.89352  0.38009  0.46486  1.0000
  H   H1181     1.0  0.88498  0.40716  0.25559  1.0000
  C   C736      1.0  0.88811  0.33477  0.25301  1.0000
  C   C737      1.0  0.97104  0.38712  0.46627  1.0000
  H   H1182     1.0  0.97785  0.45970  0.42924  1.0000
  H   H1183     1.0  0.96322  0.37768  0.44474  1.0000
  H   H1184     1.0  0.90567  0.40597  0.26637  1.0000
  C   C738      1.0  0.96510  0.57881  0.10067  1.0000
  H   H1185     1.0  0.87175  0.37551  0.23082  1.0000
  S   S297      1.0  0.92445  0.51077  0.02673  1.0000
  H   H1186     1.0  0.86059  0.52559  0.04996  1.0000
  H   H1187     1.0  0.89235  0.37459  0.24370  1.0000
  C   C739      1.0  0.89803  0.40901  0.24414  1.0000
  H   H1188     1.0  0.92101  0.39650  0.21804  1.0000
  Fe  Fe153     1.0  0.92368  0.53550  0.11687  1.0000
  S   S298      1.0  0.91962  0.54505  0.06104  1.0000
  S   S299      1.0  0.92524  0.55192  0.16877  1.0000
  Fe  Fe154     1.0  0.92805  0.50381  0.08446  1.0000
  N   N75       1.0  0.86762  0.47550  0.50101  1.0000
  S   S300      1.0  0.93663  0.48215  0.09920  1.0000
  Fe  Fe155     1.0  0.94286  0.53928  0.04398  1.0000
  H   H1189     1.0  0.93641  0.43562  0.48061  1.0000
  Fe  Fe156     1.0  0.90141  0.51586  0.04798  1.0000
  S   S301      1.0  0.94794  0.53184  0.10044  1.0000
  S   S302      1.0  0.90399  0.50674  0.10514  1.0000
  Fe  Fe157     1.0  0.93094  0.52778  0.38425  1.0000
  S   S303      1.0  0.92849  0.55111  0.41263  1.0000
  S   S304      1.0  0.93211  0.52033  0.32413  1.0000
  Fe  Fe158     1.0  0.92463  0.50681  0.45528  1.0000
  C   C740      1.0  0.98206  0.60423  0.06343  1.0000
  S   S305      1.0  0.91995  0.48099  0.48319  1.0000
  Fe  Fe159     1.0  0.90469  0.53020  0.44135  1.0000
  S   S306      1.0  0.87530  0.52581  0.43737  1.0000
  Fe  Fe160     1.0  0.94586  0.54732  0.45786  1.0000
  H   H1190     1.0  0.86533  0.49603  0.32278  1.0000
  S   S307      1.0  0.90643  0.50739  0.41022  1.0000
  S   S308      1.0  0.94961  0.52525  0.42756  1.0000
  H   H1191     1.0  0.87130  0.51465  0.26670  1.0000
  H   H1192     1.0  0.95466  0.60166  0.13376  1.0000
  C   C741      1.0  0.83428  0.51813  0.02486  1.0000
  C   C742      1.0  0.93102  0.53002  0.28150  1.0000
  C   C743      1.0  0.93160  0.54722  0.27882  1.0000
  C   C744      1.0  0.92979  0.55380  0.24418  1.0000
  C   C745      1.0  0.92762  0.54338  0.21195  1.0000
  C   C746      1.0  0.92725  0.52631  0.21469  1.0000
  C   C747      1.0  0.92893  0.51970  0.24923  1.0000
  H   H1193     1.0  0.93360  0.55551  0.30327  1.0000
  H   H1194     1.0  0.93024  0.56708  0.24231  1.0000
  H   H1195     1.0  0.92565  0.51816  0.19015  1.0000
  H   H1196     1.0  0.92854  0.50644  0.25092  1.0000
  S   S309      1.0  0.93861  0.38423  0.49381  1.0000
  S   S310      1.0  0.88085  0.40099  0.08057  1.0000
  C   C748      1.0  0.88536  0.37828  0.22122  1.0000
  H   H1197     1.0  0.88312  0.39312  0.15747  1.0000
  C   C749      1.0  0.94415  0.43704  0.40847  1.0000
  H   H1198     1.0  0.92116  0.41432  0.18982  1.0000
  H   H1199     1.0  0.95004  0.42452  0.49419  1.0000
  H   H1200     1.0  0.87449  0.50669  0.36651  1.0000
  S   S311      1.0  0.89434  0.41172  0.37999  1.0000
  C   C750      1.0  0.91309  0.40009  0.19737  1.0000
  C   C751      1.0  0.89559  0.42364  0.08934  1.0000
  C   C752      1.0  0.91228  0.42826  0.10649  1.0000
  C   C753      1.0  0.92450  0.44636  0.11078  1.0000
  C   C754      1.0  0.92006  0.45993  0.09808  1.0000
  C   C755      1.0  0.90312  0.45540  0.08213  1.0000
  C   C756      1.0  0.89086  0.43723  0.07790  1.0000
  H   H1201     1.0  0.91584  0.41793  0.11629  1.0000
  H   H1202     1.0  0.93757  0.44987  0.12331  1.0000
  C   C757      1.0  0.85889  0.52195  0.47146  1.0000
  H   H1203     1.0  0.90779  0.53632  0.33851  1.0000
  C   C758      1.0  0.90013  0.43066  0.40910  1.0000
  C   C759      1.0  0.90129  0.42936  0.44713  1.0000
  C   C760      1.0  0.90718  0.44488  0.46971  1.0000
  C   C761      1.0  0.91207  0.46176  0.45434  1.0000
  C   C762      1.0  0.91072  0.46307  0.41636  1.0000
  C   C763      1.0  0.90464  0.44752  0.39380  1.0000
  H   H1204     1.0  0.91468  0.47607  0.40421  1.0000
  H   H1205     1.0  0.90387  0.44862  0.36436  1.0000
  N   N76       1.0  0.95471  0.43519  0.43988  1.0000
  H   H1206     1.0  0.88353  0.47543  0.45522  1.0000
  H   H1207     1.0  0.89463  0.52153  0.27637  1.0000
  H   H1208     1.0  0.94744  0.45671  0.04877  1.0000
  S   S312      1.0  0.89533  0.34275  0.43851  1.0000
  H   H1209     1.0  0.97706  0.58121  0.11834  1.0000
  C   C764      1.0  0.87014  0.47488  0.46111  1.0000
  H   H1210     1.0  0.88894  0.50434  0.33270  1.0000
  N   N77       1.0  0.88002  0.52481  0.32179  1.0000
  C   C765      1.0  0.86346  0.52591  0.50871  1.0000
  H   H1211     1.0  0.89966  0.46585  0.07222  1.0000
  H   H1212     1.0  0.87790  0.43372  0.06481  1.0000
  H   H1213     1.0  0.89768  0.41641  0.45917  1.0000
  C   C766      1.0  0.96660  0.60795  0.11625  1.0000
  C   C767      1.0  0.89581  0.53906  0.34065  1.0000
  H   H1214     1.0  0.89349  0.54004  0.37038  1.0000
  H   H1215     1.0  0.89920  0.55249  0.32892  1.0000
  H   H1216     1.0  0.88639  0.53818  0.27010  1.0000
  C   C768      1.0  0.87703  0.50716  0.33658  1.0000
  H   H1217     1.0  0.95344  0.40959  0.42240  1.0000
  C   C769      1.0  0.88318  0.52481  0.28202  1.0000
  H   H1218     1.0  0.84817  0.48619  0.49481  1.0000
  H   H1219     1.0  0.98150  0.59553  0.03929  1.0000
  H   H1220     1.0  0.90812  0.44380  0.49912  1.0000
  C   C770      1.0  0.84065  0.51463  0.46058  1.0000
  S   S313      1.0  0.92168  0.52841  0.48846  1.0000
  H   H1221     1.0  0.95263  0.44283  0.38443  1.0000
  C   C771      1.0  0.86414  0.52821  0.32815  1.0000
  H   H1222     1.0  0.86150  0.52832  0.35804  1.0000
  H   H1223     1.0  0.86603  0.54149  0.31747  1.0000
  H   H1224     1.0  0.85190  0.51769  0.31453  1.0000
  N   N78       1.0  0.89545  0.39730  0.21134  1.0000
  S   S314      1.0  0.89618  0.37073  0.02190  1.0000
  H   H1225     1.0  0.94881  0.58221  0.03909  1.0000
  H   H1226     1.0  0.94996  0.60400  0.05010  1.0000
  H   H1227     1.0  0.96443  0.56924  0.07832  1.0000
  S   S315      1.0  0.84558  0.33812  0.47270  1.0000
  H   H1228     1.0  0.85989  0.46231  0.44797  1.0000
  S   S316      1.0  0.96778  0.56909  0.49393  1.0000
  H   H1229     1.0  0.99637  0.38900  0.44733  1.0000
  H   H1230     1.0  0.97869  0.61134  0.13426  1.0000
  H   H1231     1.0  0.88377  0.36903  0.19742  1.0000
  H   H1232     1.0  0.97249  0.42292  0.45117  1.0000
  C   C772      1.0  0.96348  0.42363  0.42887  1.0000
  H   H1233     1.0  0.95305  0.57196  0.11756  1.0000
  C   C773      1.0  0.99144  0.57622  0.49759  1.0000
  H   H1234     1.0  0.93326  0.42380  0.39953  1.0000
  H   H1235     1.0  0.97202  0.38613  0.04562  1.0000
  H   H1236     1.0  0.91160  0.39153  0.17249  1.0000
  C   C774      1.0  0.94271  0.42695  0.47058  1.0000
  C   C775      1.0  0.97863  0.39365  0.02196  1.0000
  H   H1237     1.0  0.97658  0.45223  0.47561  1.0000
  C   C776      1.0  0.96849  0.45314  0.45168  1.0000
  C   C777      1.0  0.92669  0.42373  0.02010  1.0000
  N   N79       1.0  0.96591  0.59569  0.08565  1.0000
  H   H1238     1.0  0.89259  0.41600  0.17407  1.0000
  H   H1239     1.0  0.99128  0.56533  0.06491  1.0000
  H   H1240     1.0  0.91335  0.42378  0.02334  1.0000
  C   C778      1.0  0.85083  0.51711  0.02955  1.0000
  C   C779      1.0  0.89759  0.34327  0.28551  1.0000
  C   C780      1.0  0.88533  0.40178  0.18253  1.0000
  H   H1241     1.0  0.86922  0.48647  0.44740  1.0000
  H   H1242     1.0  0.93169  0.41369  0.46223  1.0000
  H   H1243     1.0  0.96227  0.46222  0.45991  1.0000
  H   H1244     1.0  0.93732  0.58517  0.07813  1.0000
  H   H1245     1.0  0.96695  0.62075  0.10605  1.0000
  H   H1246     1.0  0.93212  0.42328  0.04799  1.0000
  H   H1247     1.0  0.88167  0.50433  0.50306  1.0000
  H   H1248     1.0  0.96240  0.43825  0.02399  1.0000
  H   H1249     1.0  0.83689  0.51158  0.43189  1.0000
  H   H1250     1.0  0.92869  0.45716  0.02419  1.0000
  H   H1251     1.0  0.99449  0.60668  0.07958  1.0000
  H   H1252     1.0  0.98346  0.61732  0.05266  1.0000
  C   C781      1.0  0.94161  0.45620  0.02079  1.0000
  C   C782      1.0  0.84974  0.47476  0.50769  1.0000
  H   H1253     1.0  0.85884  0.44701  0.50653  1.0000
  H   H1254     1.0  0.83150  0.52745  0.04189  1.0000
  S   S317      1.0  0.87551  0.50340  0.01181  1.0000
  C   C783      1.0  0.99734  0.39977  0.01860  1.0000
  S   S318      1.0  0.88875  0.33443  0.32856  1.0000
  H   H1255     1.0  0.90158  0.34282  0.97844  1.0000
  C   C784      1.0  0.93127  0.43960  0.96344  1.0000
  H   H1256     1.0  0.96628  0.45080  0.98255  1.0000
  H   H1257     1.0  0.95075  0.46851  0.00665  1.0000
  S   S319      1.0  0.94476  0.38906  0.99613  1.0000
  C   C785      1.0  0.97751  0.40684  0.96389  1.0000
  C   C786      1.0  0.91364  0.34308  0.96499  1.0000
  H   H1258     1.0  0.96632  0.40892  0.54206  1.0000
  C   C787      1.0  0.88158  0.49239  0.51709  1.0000
  H   H1259     1.0  0.99029  0.57283  0.94885  1.0000
  H   H1260     1.0  0.92908  0.42721  0.94729  1.0000
  C   C788      1.0  0.99770  0.57479  0.97458  1.0000
  C   C789      1.0  0.84997  0.52267  0.53457  1.0000
  C   C790      1.0  0.95646  0.43886  0.99669  1.0000
  H   H1261     1.0  0.98651  0.38152  0.62741  1.0000
  H   H1262     1.0  0.84747  0.47556  0.53751  1.0000
  H   H1263     1.0  0.86744  0.46014  0.54826  1.0000
  C   C791      1.0  0.99625  0.41320  0.96082  1.0000
  C   C792      1.0  0.96855  0.39703  0.99443  1.0000
  H   H1264     1.0  0.88250  0.46025  0.51333  1.0000
  H   H1265     1.0  0.91808  0.44016  0.96532  1.0000
  C   C793      1.0  0.97286  0.40467  0.52110  1.0000
  H   H1266     1.0  0.94021  0.45140  0.94763  1.0000
  H   H1267     1.0  0.84000  0.55285  0.87846  1.0000
  C   C794      1.0  0.84180  0.49432  0.98136  1.0000
  H   H1268     1.0  0.87740  0.53189  0.51759  1.0000
  H   H1269     1.0  0.84467  0.48507  0.96432  1.0000
  H   H1270     1.0  0.99386  0.59042  0.54900  1.0000
  H   H1271     1.0  0.91549  0.35093  0.93959  1.0000
  C   C795      1.0  0.99173  0.41150  0.52207  1.0000
  H   H1272     1.0  0.96991  0.40944  0.94220  1.0000
  C   C796      1.0  0.98832  0.56784  0.00682  1.0000
  C   C797      1.0  0.86912  0.46002  0.51808  1.0000
  H   H1273     1.0  0.85371  0.52608  0.56321  1.0000
  H   H1274     1.0  0.84419  0.53682  0.85109  1.0000
  H   H1275     1.0  0.92541  0.35074  0.98355  1.0000
  S   S320      1.0  0.96436  0.55731  0.00471  1.0000
  H   H1276     1.0  0.87952  0.49395  0.54675  1.0000
  H   H1277     1.0  0.95501  0.42667  0.98067  1.0000
  N   N80       1.0  0.93902  0.43961  0.00026  1.0000
  C   C798      1.0  0.83172  0.51541  0.52373  1.0000
  H   H1278     1.0  0.92448  0.41097  0.00542  1.0000
  H   H1279     1.0  0.89517  0.49290  0.51450  1.0000
  C   C799      1.0  0.83398  0.54183  0.85736  1.0000
  C   C800      1.0  0.85477  0.50523  0.00773  1.0000
  H   H1280     1.0  0.83142  0.54780  0.83197  1.0000
