data_image0
_chemical_formula_structural       HCSFeCSHCSHCHCFe2H10CHC2NCH3SHCH2CSH2CSC3HNH2SHC2H2CH2CH2C4HFe2HFeHSNHCHCSCHSFeSCSC2SNH2SCH3FeSH2CHCH3C2HCH2C3FeH2CHCSH2FeS2CHSNSH4CH3CHSCHCH5FeHSC2H3CH2SHSH2SCSH3C2FeHSHFeCHCHNC4SHCFeHSHCSHCSH3CHCHFeH2CH2C2HCHSHCHFeH2SFeSHC2HSH2CH2CSCH5CH2CHCHCHSNHCFe2S2FeS2C3H5CH2C2NC4H6C2H2SCH8NCHFeSC5H3CHNH2CH3CH3C3H3FeSC2HSH2SCH2FeH3C2FeS2FeSCFeSFeS3C2H3CHCHC3HNH5CH2SHCNC2H5C2HCFeSC6H3SNC2H4FeC2H3CHS2HC2SHCNH8CSHFeH5CH3C3SH4FeHCH4C2H4CH4SH2SHFeS2HCHC3H3C6H2C3SH5CFeNFeCH4C3H2C2H4CHNCH3CSHCFeSH3FeS2NHC6HSH4SH2CH2FeH3S2H3CHCH2Fe2CSFeS2C4HSCH2CH2CHCHSC3H3C3HSC2H3CHCS2HSCH2FeSHC3HC2HCH2NH2CFeHSH2S2NH2CH3CFeH5SHCHCHFeCHC3H2SC2H2CH2CNFeHSH5C2H2FeHNHSH2FeSC3SH2SCFeCSFeH2SHCNC2H4CH7NCH2CHCH2CNH5CH2CHCH3C3H2CH2CH2C2HSH2FeC2HSCHFeSCSFeSCFeS2FeSFeS3C6HCH3C3H5CH5NH2NC3HFeH5CH4NSHCH2CH2NHCH4S2C6H9SCHCH4CHC3NH5CFeS2CH2CH2FeS2H2SFeS2FeSFe2S3CHC2H2C6H3NH3C5H4CH2FeH3NHC2H2C2H7C2H3CHSHFeSH2C6H4NHCHC2H3CH2CHCHCH4FeHSHCHFeC2H2CSC5H4FeHSHSC2H5S2HSHCH2SHFeSH3FeNC3H3SHC2NHC4H3CHFeCFeSHC3SHS2HCHCHNHCH3C7HCHSH3FeS2H5FeSC3H10NSCHCHSH2CHSFeSH4CH4CH2CSC7H3SHCH4CH3NH2SCFeHCFeHSH4C2HCHFeSH2SHCH4C6H4C2NSH3SCFeSHFeSHCS2CH3NH2FeS2C6H3CH3CHSHSHCHCHCH3CSCFeH6FeSHFeS2Fe2S3H2S2C2H2SHC7H5CH2NCHNCHCHC2HFeH2C2H5NC3SHCH2CHCHCH4CH2SCFeS2C6H4SHNC2HSHCH3NH2CH2CH3NCH2CH2CHCHNH2FeS2FeS2FeSFeS3CFeS2H2CHC6H5C2HCHCHNCH5CSFeH6CH3CHC2HCH4FeCSHFeCH4CH6C2HCH4C2H7C2H4FeHSHCH3CHCFeC2FeCNSCH4CH2SHSH5CHCSCHC2HCHSHCH5NC2H3Fe2NH2CSCH2C2HC4HSCH2SFeS2CFeSH6CH2C4H2C3SHC2H3CHFeHC2H2CHCSFeS2C4HCH2NH2CHCSH3CSCHCH3FeSHC2HFeHN2H3CSFeHFeH3SH3CHCHSHSHNHCH3FeSFeHSFeS2C5H3SHCH2SHCHC2H2C2FeS2HC2HC2H2C2H3C6H2SNC4H11CFeH3C2HCSH4CNHCHSHCHSHSH3NH3CH4CHSCHC2H4SFeS2H2CHC2H3CHSH4FeS2C6HC3H2SCHSH4CH5NH4NCHFeNC2H2FeSFeS2FeSFeS3C7H2CH2C2H2C2NHFeCH2CH3CH3CHCH7C2H3CH2SHCH2C2SHFeSHCNCSHCHC3HSCFeH4CFeH3NC4HFeS3H2CHC6H4NH4CH6CHCFeHC2H2SC3H3CH2FeS2FeSFeSFeS2H3CH3CHCH2SH2CHNHCHCHSHC2HFeHC2H2CHCHFeH2C2H2NHCHSCH4S3C2H5C2SCH2FeHCHC3NCH2SHC2HCSC3H2C2H8FeC3HCSH2SCHCHC2H2NHFeS2FeS2H2CFeS2H3SFeC4H2C2H5SCSCHCHC2H2CHSHCH3C2H5NHCHCHFeHNH3C3H3CHCSCHFeH2SFeSHSHSHCSCNHFeH2C2H2CH2SCSC3H2CSH5NC3FeSC2H8CHCHCFeH4
_chemical_formula_sum              "H1152 C720 S288 Fe144 N72"
_cell_length_a       55.7244
_cell_length_b       55.5924
_cell_length_c       66.2596
_cell_angle_alpha    90.8602
_cell_angle_beta     91.0422
_cell_angle_gamma    117.657

_space_group_name_H-M_alt    "P 1"
_space_group_IT_number       1

loop_
  _space_group_symop_operation_xyz
  'x, y, z'

loop_
  _atom_site_type_symbol
  _atom_site_label
  _atom_site_symmetry_multiplicity
  _atom_site_fract_x
  _atom_site_fract_y
  _atom_site_fract_z
  _atom_site_occupancy
  H   H1        1.0  0.02772  0.28570  0.07314  1.0000
  C   C1        1.0  0.03355  0.30670  0.07697  1.0000
  S   S1        1.0  0.02508  0.31338  0.03618  1.0000
  Fe  Fe1       1.0  0.01234  0.27367  0.01807  1.0000
  C   C2        1.0  0.03990  0.31623  0.09724  1.0000
  S   S2        1.0  0.00810  0.23343  0.02822  1.0000
  H   H2        1.0  0.03872  0.30234  0.10891  1.0000
  C   C3        1.0  0.03458  0.32436  0.06180  1.0000
  S   S3        1.0  0.28104  0.23520  0.00812  1.0000
  H   H3        1.0  0.20878  0.03565  0.01709  1.0000
  C   C4        1.0  0.18889  0.01982  0.02220  1.0000
  H   H4        1.0  0.18776  0.02379  0.03857  1.0000
  C   C5        1.0  0.16636  0.04642  0.01356  1.0000
  Fe  Fe2       1.0  0.25675  0.03177  0.01030  1.0000
  Fe  Fe3       1.0  0.26054  0.25439  0.02658  1.0000
  H   H5        1.0  0.23784  0.30346  0.04877  1.0000
  H   H6        1.0  0.15508  0.24337  0.05352  1.0000
  H   H7        1.0  0.22400  0.27185  0.07747  1.0000
  H   H8        1.0  0.29396  0.32218  0.04096  1.0000
  H   H9        1.0  0.32161  0.28073  0.03929  1.0000
  H   H10       1.0  0.31957  0.30611  0.00996  1.0000
  H   H11       1.0  0.16501  0.26672  0.03311  1.0000
  H   H12       1.0  0.16382  0.05013  0.02975  1.0000
  H   H13       1.0  0.17550  0.24084  0.03371  1.0000
  H   H14       1.0  0.20967  0.24358  0.05998  1.0000
  C   C6        1.0  0.17198  0.25542  0.04339  1.0000
  H   H15       1.0  0.21026  0.30813  0.07574  1.0000
  C   C7        1.0  0.26132  0.12190  0.02403  1.0000
  C   C8        1.0  0.29600  0.32519  0.05717  1.0000
  N   N1        1.0  0.19688  0.27410  0.05492  1.0000
  C   C9        1.0  0.28813  0.30709  0.09070  1.0000
  H   H16       1.0  0.17530  0.28330  0.07777  1.0000
  H   H17       1.0  0.27311  0.12589  0.03797  1.0000
  H   H18       1.0  0.28033  0.28986  0.10050  1.0000
  S   S4        1.0  0.26311  0.07301  0.02316  1.0000
  H   H19       1.0  0.18917  0.24669  0.07944  1.0000
  C   C10       1.0  0.28578  0.30269  0.06962  1.0000
  H   H20       1.0  0.21296  0.30041  0.02969  1.0000
  H   H21       1.0  0.18564  0.30611  0.05698  1.0000
  C   C11       1.0  0.25361  0.14134  0.01712  1.0000
  S   S5        1.0  0.21858  0.22115  0.01833  1.0000
  H   H22       1.0  0.25940  0.15997  0.02577  1.0000
  H   H23       1.0  0.22335  0.27463  0.03180  1.0000
  C   C12       1.0  0.21873  0.28892  0.04072  1.0000
  S   S6        1.0  0.27056  0.26879  0.05960  1.0000
  C   C13       1.0  0.20519  0.25835  0.06858  1.0000
  C   C14       1.0  0.25384  0.09735  0.01316  1.0000
  C   C15       1.0  0.19174  0.29378  0.06691  1.0000
  H   H24       1.0  0.18586  0.06359  0.00900  1.0000
  N   N2        1.0  0.16626  0.02000  0.01036  1.0000
  H   H25       1.0  0.18892  0.99989  0.02062  1.0000
  H   H26       1.0  0.13742  0.99997  0.03334  1.0000
  S   S7        1.0  0.01101  0.22691  0.48105  1.0000
  H   H27       1.0  0.28106  0.14226  0.47172  1.0000
  C   C16       1.0  0.26436  0.13218  0.48173  1.0000
  C   C17       1.0  0.25651  0.10501  0.48706  1.0000
  H   H28       1.0  0.00786  0.14503  0.47343  1.0000
  H   H29       1.0  0.27591  0.22540  0.43746  1.0000
  C   C18       1.0  0.01025  0.16210  0.48365  1.0000
  H   H30       1.0  0.31524  0.22836  0.41747  1.0000
  H   H31       1.0  0.32685  0.00067  0.50043  1.0000
  C   C19       1.0  0.02558  0.31224  0.43201  1.0000
  H   H32       1.0  0.07429  0.22097  0.48973  1.0000
  H   H33       1.0  0.30745  0.21142  0.45260  1.0000
  C   C20       1.0  0.28967  0.24694  0.44201  1.0000
  C   C21       1.0  0.02367  0.31565  0.41112  1.0000
  C   C22       1.0  0.25074  0.14633  0.48910  1.0000
  C   C23       1.0  0.32780  0.24920  0.42399  1.0000
  H   H34       1.0  0.28254  0.25106  0.45654  1.0000
  Fe  Fe4       1.0  0.00298  0.26235  0.47407  1.0000
  Fe  Fe5       1.0  0.20856  0.23548  0.49994  1.0000
  H   H35       1.0  0.10917  0.20677  0.48083  1.0000
  Fe  Fe6       1.0  0.24945  0.21291  0.49265  1.0000
  H   H36       1.0  0.02721  0.18105  0.47808  1.0000
  S   S8        1.0  0.23068  0.23251  0.47241  1.0000
  N   N3        1.0  0.01520  0.15732  0.50486  1.0000
  H   H37       1.0  0.26047  0.28540  0.42808  1.0000
  C   C24       1.0  0.09365  0.22989  0.49775  1.0000
  H   H38       1.0  0.26714  0.09450  0.48112  1.0000
  C   C25       1.0  0.23460  0.09136  0.49968  1.0000
  S   S9        1.0  0.26108  0.18042  0.48126  1.0000
  C   C26       1.0  0.29393  0.32172  0.44050  1.0000
  H   H39       1.0  0.32757  0.04193  0.46857  1.0000
  S   S10       1.0  0.28099  0.03330  0.49308  1.0000
  Fe  Fe7       1.0  0.26463  0.27266  0.48338  1.0000
  S   S11       1.0  0.29282  0.30998  0.46555  1.0000
  C   C27       1.0  0.27929  0.31524  0.40504  1.0000
  S   S12       1.0  0.00590  0.27929  0.44217  1.0000
  C   C28       1.0  0.22907  0.13280  0.50196  1.0000
  C   C29       1.0  0.27628  0.30551  0.42490  1.0000
  S   S13       1.0  0.02571  0.28701  0.50158  1.0000
  N   N4        1.0  0.31817  0.25234  0.44401  1.0000
  H   H40       1.0  0.28715  0.26025  0.43071  1.0000
  H   H41       1.0  0.26580  0.30236  0.39305  1.0000
  S   S14       1.0  0.16258  0.22103  0.49670  1.0000
  C   C30       1.0  0.11360  0.22202  0.49263  1.0000
  H   H42       1.0  0.01138  0.29812  0.40150  1.0000
  H   H43       1.0  0.05819  0.17350  0.50150  1.0000
  H   H44       1.0  0.17628  0.00962  0.48766  1.0000
  Fe  Fe8       1.0  0.23990  0.02616  0.50278  1.0000
  S   S15       1.0  0.28490  0.25310  0.50199  1.0000
  H   H45       1.0  0.31263  0.23440  0.47323  1.0000
  H   H46       1.0  0.00004  0.30986  0.47433  1.0000
  C   C31       1.0  0.13927  0.23381  0.50252  1.0000
  H   H47       1.0  0.03907  0.13756  0.49677  1.0000
  C   C32       1.0  0.32010  0.23283  0.45805  1.0000
  H   H48       1.0  0.32677  0.26383  0.41312  1.0000
  H   H49       1.0  0.32843  0.28330  0.46724  1.0000
  H   H50       1.0  0.12873  0.27589  0.53518  1.0000
  C   C33       1.0  0.17691  0.23969  0.58655  1.0000
  C   C34       1.0  0.16913  0.21686  0.55394  1.0000
  H   H51       1.0  0.19768  0.27128  0.55434  1.0000
  C   C35       1.0  0.32635  0.03683  0.59724  1.0000
  H   H52       1.0  0.29333  0.26143  0.60110  1.0000
  H   H53       1.0  0.19222  0.25272  0.59828  1.0000
  C   C36       1.0  0.31691  0.03052  0.57695  1.0000
  C   C37       1.0  0.20861  0.26021  0.56005  1.0000
  C   C38       1.0  0.12445  0.26092  0.52318  1.0000
  Fe  Fe9       1.0  0.25961  0.25432  0.52746  1.0000
  H   H54       1.0  0.16265  0.22052  0.59375  1.0000
  H   H55       1.0  0.16727  0.03217  0.51677  1.0000
  C   C39       1.0  0.20564  0.22028  0.57604  1.0000
  H   H56       1.0  0.15642  0.22636  0.54886  1.0000
  C   C40       1.0  0.14478  0.25386  0.51751  1.0000
  S   S16       1.0  0.07306  0.25692  0.52245  1.0000
  H   H57       1.0  0.19251  0.20077  0.58331  1.0000
  H   H58       1.0  0.15536  0.19665  0.55998  1.0000
  Fe  Fe10      1.0  0.28207  0.01028  0.52054  1.0000
  S   S17       1.0  0.22500  0.21290  0.51923  1.0000
  S   S18       1.0  0.27217  0.26104  0.56107  1.0000
  C   C41       1.0  0.30524  0.28047  0.57232  1.0000
  H   H59       1.0  0.32358  0.30370  0.54615  1.0000
  S   S19       1.0  0.24183  0.00502  0.53124  1.0000
  N   N5        1.0  0.19004  0.23423  0.56915  1.0000
  S   S20       1.0  0.24157  0.27685  0.50978  1.0000
  H   H60       1.0  0.02218  0.17785  0.53388  1.0000
  H   H61       1.0  0.29544  0.02163  0.57332  1.0000
  H   H62       1.0  0.31192  0.03275  0.60907  1.0000
  H   H63       1.0  0.16518  0.25044  0.58184  1.0000
  C   C42       1.0  0.01799  0.18041  0.51780  1.0000
  H   H64       1.0  0.21912  0.25673  0.54715  1.0000
  H   H65       1.0  0.21564  0.21566  0.56323  1.0000
  H   H66       1.0  0.22219  0.23320  0.58705  1.0000
  C   C43       1.0  0.30970  0.27663  0.59275  1.0000
  H   H67       1.0  0.18907  0.00316  0.52251  1.0000
  S   S21       1.0  0.32464  0.02804  0.53556  1.0000
  C   C44       1.0  0.14727  0.01381  0.51816  1.0000
  H   H68       1.0  0.16449  0.26354  0.52501  1.0000
  C   C45       1.0  0.32668  0.30031  0.56180  1.0000
  H   H69       1.0  0.00296  0.30965  0.70159  1.0000
  H   H70       1.0  0.99914  0.18261  0.51724  1.0000
  H   H71       1.0  0.04481  0.15123  0.52223  1.0000
  H   H72       1.0  0.14183  0.01258  0.53431  1.0000
  H   H73       1.0  0.22481  0.27386  0.57102  1.0000
  Fe  Fe11      1.0  0.03188  0.25073  0.50941  1.0000
  H   H74       1.0  0.17837  0.21334  0.54018  1.0000
  S   S22       1.0  0.22262  0.05650  0.50613  1.0000
  C   C46       1.0  0.09867  0.24890  0.51344  1.0000
  C   C47       1.0  0.04040  0.15473  0.50641  1.0000
  H   H75       1.0  0.03482  0.19996  0.51296  1.0000
  H   H76       1.0  0.20401  0.09531  0.51680  1.0000
  H   H77       1.0  0.13219  0.01734  0.50917  1.0000
  C   C48       1.0  0.22099  0.10552  0.50706  1.0000
  H   H78       1.0  0.21827  0.14323  0.50773  1.0000
  H   H79       1.0  0.05317  0.23012  0.90421  1.0000
  S   S23       1.0  0.03548  0.27445  0.99024  1.0000
  H   H80       1.0  0.05314  0.27114  0.94878  1.0000
  S   S24       1.0  0.28222  0.00645  0.94227  1.0000
  H   H81       1.0  0.08130  0.22241  0.95364  1.0000
  H   H82       1.0  0.14983  0.04755  0.00462  1.0000
  S   S25       1.0  0.32042  0.28597  0.96826  1.0000
  C   C49       1.0  0.15248  0.25010  0.99189  1.0000
  S   S26       1.0  0.22551  0.15898  0.99071  1.0000
  H   H83       1.0  0.03345  0.21061  0.95704  1.0000
  H   H84       1.0  0.21837  0.10768  0.97464  1.0000
  H   H85       1.0  0.04377  0.25510  0.91335  1.0000
  C   C50       1.0  0.10721  0.21248  0.99595  1.0000
  C   C51       1.0  0.23042  0.11177  0.98845  1.0000
  Fe  Fe12      1.0  0.26666  0.00255  0.97461  1.0000
  H   H86       1.0  0.01751  0.22466  0.94051  1.0000
  S   S27       1.0  0.05945  0.21610  0.99679  1.0000
  H   H87       1.0  0.02641  0.19941  0.93110  1.0000
  Fe  Fe13      1.0  0.23928  0.20439  0.99745  1.0000
  C   C52       1.0  0.23864  0.09260  0.99513  1.0000
  H   H88       1.0  0.07532  0.21136  0.92764  1.0000
  C   C53       1.0  0.31542  0.02507  0.93260  1.0000
  H   H89       1.0  0.08831  0.27961  0.94663  1.0000
  N   N6        1.0  0.06014  0.23922  0.93608  1.0000
  C   C54       1.0  0.06791  0.26288  0.94993  1.0000
  C   C55       1.0  0.08036  0.22910  0.93799  1.0000
  C   C56       1.0  0.05899  0.24746  0.91513  1.0000
  C   C57       1.0  0.03318  0.21752  0.94138  1.0000
  S   S28       1.0  0.23779  0.22936  0.97104  1.0000
  H   H90       1.0  0.06864  0.25724  0.96589  1.0000
  C   C58       1.0  0.32528  0.28605  0.90644  1.0000
  Fe  Fe14      1.0  0.21975  0.24800  0.99295  1.0000
  H   H91       1.0  0.14403  0.20840  0.99447  1.0000
  S   S29       1.0  0.29223  0.02477  0.00194  1.0000
  H   H92       1.0  0.31970  0.27625  0.79530  1.0000
  C   C59       1.0  0.13548  0.22234  0.99425  1.0000
  S   S30       1.0  0.18834  0.26396  0.98949  1.0000
  H   H93       1.0  0.23312  0.07413  0.98639  1.0000
  C   C60       1.0  0.31524  0.26584  0.81003  1.0000
  S   S31       1.0  0.23210  0.01143  0.98220  1.0000
  H   H94       1.0  0.31147  0.27945  0.89348  1.0000
  H   H95       1.0  0.30341  0.27363  0.81893  1.0000
  H   H96       1.0  0.29308  0.27072  0.92806  1.0000
  C   C61       1.0  0.31475  0.28105  0.92607  1.0000
  H   H97       1.0  0.32095  0.23450  0.83837  1.0000
  C   C62       1.0  0.23785  0.13631  0.99935  1.0000
  H   H98       1.0  0.30163  0.01213  0.90183  1.0000
  Fe  Fe15      1.0  0.27909  0.26077  0.98258  1.0000
  H   H99       1.0  0.10409  0.27197  0.99354  1.0000
  H   H100      1.0  0.10109  0.24512  0.93458  1.0000
  C   C63       1.0  0.09550  0.23015  0.99567  1.0000
  H   H101      1.0  0.07895  0.26400  0.91069  1.0000
  H   H102      1.0  0.09429  0.19090  0.99744  1.0000
  C   C64       1.0  0.31910  0.02361  0.91172  1.0000
  C   C65       1.0  0.14079  0.26780  0.99164  1.0000
  H   H103      1.0  0.15370  0.28933  0.98991  1.0000
  C   C66       1.0  0.11257  0.25798  0.99366  1.0000
  H   H104      1.0  0.30202  0.24378  0.80689  1.0000
  S   S32       1.0  0.26126  0.28175  0.00203  1.0000
  H   H105      1.0  0.18889  0.03231  0.98316  1.0000
  C   C67       1.0  0.16956  0.01589  0.98868  1.0000
  H   H106      1.0  0.15273  0.01566  0.97925  1.0000
  Fe  Fe16      1.0  0.02889  0.23306  0.99930  1.0000
  H   H107      1.0  0.32293  0.26472  0.85038  1.0000
  H   H108      1.0  0.32908  0.11171  0.91341  1.0000
  S   S33       1.0  0.06638  0.41963  0.16442  1.0000
  Fe  Fe17      1.0  0.07915  0.39799  0.14102  1.0000
  S   S34       1.0  0.05491  0.35440  0.12837  1.0000
  H   H109      1.0  0.09785  0.35294  0.08106  1.0000
  C   C68       1.0  0.04257  0.35170  0.06711  1.0000
  C   C69       1.0  0.04921  0.36129  0.08731  1.0000
  H   H110      1.0  0.05475  0.38224  0.09116  1.0000
  S   S35       1.0  0.07148  0.48621  0.14416  1.0000
  H   H111      1.0  0.04327  0.36552  0.05552  1.0000
  H   H112      1.0  0.12039  0.49287  0.20171  1.0000
  C   C70       1.0  0.07286  0.41075  0.23732  1.0000
  H   H113      1.0  0.06267  0.39910  0.22377  1.0000
  H   H114      1.0  0.12397  0.52671  0.20216  1.0000
  C   C71       1.0  0.11002  0.50522  0.19772  1.0000
  S   S36       1.0  0.07767  0.63420  0.15210  1.0000
  C   C72       1.0  0.07694  0.53786  0.14743  1.0000
  H   H115      1.0  0.08061  0.57821  0.15048  1.0000
  H   H116      1.0  0.05522  0.52783  0.14923  1.0000
  H   H117      1.0  0.09808  0.48391  0.23430  1.0000
  H   H118      1.0  0.06850  0.61683  0.10717  1.0000
  H   H119      1.0  0.22760  0.34356  0.23250  1.0000
  C   C73       1.0  0.07777  0.60548  0.06975  1.0000
  H   H120      1.0  0.10549  0.40006  0.08777  1.0000
  H   H121      1.0  0.11001  0.65100  0.09126  1.0000
  C   C74       1.0  0.27857  0.38718  0.20376  1.0000
  H   H122      1.0  0.06972  0.62050  0.07037  1.0000
  C   C75       1.0  0.11721  0.63538  0.08995  1.0000
  H   H123      1.0  0.13020  0.63764  0.10357  1.0000
  C   C76       1.0  0.24363  0.34996  0.22106  1.0000
  H   H124      1.0  0.06171  0.46517  0.18440  1.0000
  S   S37       1.0  0.25542  0.41500  0.16536  1.0000
  N   N7        1.0  0.25765  0.37979  0.21916  1.0000
  H   H125      1.0  0.14289  0.39917  0.12192  1.0000
  C   C77       1.0  0.04776  0.34357  0.10255  1.0000
  Fe  Fe18      1.0  0.09000  0.45733  0.14651  1.0000
  Fe  Fe19      1.0  0.13667  0.44351  0.14087  1.0000
  S   S38       1.0  0.11695  0.40604  0.15912  1.0000
  S   S39       1.0  0.17664  0.45582  0.12569  1.0000
  Fe  Fe20      1.0  0.10616  0.43109  0.18060  1.0000
  S   S40       1.0  0.09939  0.43470  0.12187  1.0000
  S   S41       1.0  0.12913  0.46942  0.16344  1.0000
  C   C78       1.0  0.21019  0.42200  0.16337  1.0000
  C   C79       1.0  0.19908  0.44529  0.13697  1.0000
  C   C80       1.0  0.19263  0.43106  0.15493  1.0000
  H   H126      1.0  0.17236  0.38247  0.09149  1.0000
  H   H127      1.0  0.17430  0.42729  0.16251  1.0000
  H   H128      1.0  0.04482  0.64425  0.24859  1.0000
  H   H129      1.0  0.11766  0.59101  0.07370  1.0000
  H   H130      1.0  0.16959  0.40177  0.07078  1.0000
  C   C81       1.0  0.06672  0.65450  0.25004  1.0000
  H   H131      1.0  0.20499  0.41101  0.17729  1.0000
  H   H132      1.0  0.24819  0.41167  0.21065  1.0000
  C   C82       1.0  0.22341  0.45063  0.12760  1.0000
  C   C83       1.0  0.16505  0.39719  0.08697  1.0000
  N   N8        1.0  0.13582  0.38661  0.09063  1.0000
  C   C84       1.0  0.11997  0.36141  0.07845  1.0000
  C   C85       1.0  0.13089  0.38072  0.11227  1.0000
  C   C86       1.0  0.12732  0.40718  0.08490  1.0000
  C   C87       1.0  0.30098  0.33366  0.09929  1.0000
  H   H133      1.0  0.10917  0.37334  0.11574  1.0000
  H   H134      1.0  0.07518  0.45339  0.20453  1.0000
  H   H135      1.0  0.28107  0.41530  0.23786  1.0000
  H   H136      1.0  0.13664  0.36498  0.11712  1.0000
  H   H137      1.0  0.13900  0.42656  0.09369  1.0000
  H   H138      1.0  0.22863  0.46179  0.11375  1.0000
  C   C88       1.0  0.24117  0.44174  0.13616  1.0000
  C   C89       1.0  0.23451  0.42733  0.15408  1.0000
  H   H139      1.0  0.10740  0.50431  0.18100  1.0000
  H   H140      1.0  0.28997  0.40958  0.20213  1.0000
  S   S42       1.0  0.11816  0.43980  0.21407  1.0000
  C   C90       1.0  0.09931  0.43197  0.23640  1.0000
  H   H141      1.0  0.26944  0.37830  0.18866  1.0000
  H   H142      1.0  0.08995  0.60941  0.05592  1.0000
  H   H143      1.0  0.11712  0.58904  0.10073  1.0000
  H   H144      1.0  0.06862  0.48848  0.23780  1.0000
  H   H145      1.0  0.10137  0.51758  0.23535  1.0000
  H   H146      1.0  0.08399  0.53397  0.20619  1.0000
  H   H147      1.0  0.22219  0.38479  0.22441  1.0000
  H   H148      1.0  0.25562  0.38735  0.25093  1.0000
  N   N9        1.0  0.08368  0.49517  0.20765  1.0000
  C   C91       1.0  0.07079  0.51220  0.20200  1.0000
  H   H149      1.0  0.12289  0.36510  0.06199  1.0000
  Fe  Fe21      1.0  0.12180  0.64553  0.15124  1.0000
  S   S43       1.0  0.13799  0.61558  0.14417  1.0000
  C   C92       1.0  0.11929  0.57967  0.14526  1.0000
  C   C93       1.0  0.09129  0.56646  0.14805  1.0000
  C   C94       1.0  0.09047  0.52215  0.14461  1.0000
  C   C95       1.0  0.11855  0.53534  0.14234  1.0000
  C   C96       1.0  0.13281  0.56395  0.14245  1.0000
  H   H150      1.0  0.15446  0.57396  0.14027  1.0000
  H   H151      1.0  0.17741  0.41639  0.09586  1.0000
  H   H152      1.0  0.13052  0.41197  0.06863  1.0000
  C   C97       1.0  0.07717  0.60242  0.10598  1.0000
  H   H153      1.0  0.05998  0.58147  0.10549  1.0000
  N   N10       1.0  0.09419  0.60770  0.08812  1.0000
  H   H154      1.0  0.12924  0.52353  0.14011  1.0000
  H   H155      1.0  0.08784  0.56648  0.08582  1.0000
  C   C98       1.0  0.10464  0.58766  0.08697  1.0000
  H   H156      1.0  0.08923  0.60477  0.12007  1.0000
  H   H157      1.0  0.22753  0.37962  0.19832  1.0000
  H   H158      1.0  0.13035  0.64030  0.07661  1.0000
  C   C99       1.0  0.06583  0.46675  0.20099  1.0000
  H   H159      1.0  0.04594  0.45825  0.20845  1.0000
  H   H160      1.0  0.06674  0.51104  0.18538  1.0000
  H   H161      1.0  0.12583  0.34542  0.08232  1.0000
  C   C100      1.0  0.27060  0.39275  0.23877  1.0000
  C   C101      1.0  0.23793  0.38931  0.21296  1.0000
  C   C102      1.0  0.08810  0.49641  0.22978  1.0000
  H   H162      1.0  0.29355  0.37988  0.20762  1.0000
  H   H163      1.0  0.06008  0.58490  0.06797  1.0000
  H   H164      1.0  0.05102  0.50547  0.20942  1.0000
  Fe  Fe22      1.0  0.29755  0.42486  0.15510  1.0000
  S   S44       1.0  0.30579  0.38893  0.15427  1.0000
  C   C103      1.0  0.30937  0.35172  0.06575  1.0000
  C   C104      1.0  0.31206  0.35618  0.08685  1.0000
  H   H165      1.0  0.28606  0.38648  0.24363  1.0000
  S   S45       1.0  0.06576  0.65203  0.20842  1.0000
  H   H166      1.0  0.25993  0.44600  0.12892  1.0000
  H   H167      1.0  0.30305  0.33672  0.11552  1.0000
  S   S46       1.0  0.32183  0.44396  0.12780  1.0000
  C   C105      1.0  0.08222  0.65989  0.23258  1.0000
  H   H168      1.0  0.31778  0.36900  0.05600  1.0000
  H   H169      1.0  0.23393  0.33963  0.20641  1.0000
  Fe  Fe23      1.0  0.08958  0.66251  0.17939  1.0000
  H   H170      1.0  0.14502  0.39519  0.24966  1.0000
  H   H171      1.0  0.25813  0.34232  0.22573  1.0000
  H   H172      1.0  0.13265  0.46334  0.25358  1.0000
  C   C106      1.0  0.11226  0.44677  0.25415  1.0000
  C   C107      1.0  0.24370  0.43075  0.34736  1.0000
  Fe  Fe24      1.0  0.08264  0.42091  0.32736  1.0000
  S   S47       1.0  0.12623  0.45231  0.32727  1.0000
  S   S48       1.0  0.05805  0.40720  0.29764  1.0000
  Fe  Fe25      1.0  0.08418  0.41292  0.37363  1.0000
  S   S49       1.0  0.12829  0.44407  0.37581  1.0000
  C   C108      1.0  0.23301  0.45377  0.37425  1.0000
  Fe  Fe26      1.0  0.11672  0.46925  0.35530  1.0000
  S   S50       1.0  0.07291  0.65414  0.34159  1.0000
  Fe  Fe27      1.0  0.13336  0.42432  0.34773  1.0000
  S   S51       1.0  0.16450  0.41065  0.33962  1.0000
  S   S52       1.0  0.07239  0.43941  0.35440  1.0000
  S   S53       1.0  0.09003  0.39154  0.34646  1.0000
  C   C109      1.0  0.19810  0.42600  0.34935  1.0000
  C   C110      1.0  0.20623  0.44325  0.36647  1.0000
  H   H173      1.0  0.23939  0.40414  0.42850  1.0000
  H   H174      1.0  0.08284  0.59832  0.26508  1.0000
  H   H175      1.0  0.23916  0.46676  0.38768  1.0000
  C   C111      1.0  0.21693  0.41987  0.33983  1.0000
  H   H176      1.0  0.19183  0.44810  0.37390  1.0000
  C   C112      1.0  0.04167  0.33524  0.44416  1.0000
  H   H177      1.0  0.21084  0.40669  0.32652  1.0000
  C   C113      1.0  0.24684  0.37880  0.38342  1.0000
  C   C114      1.0  0.07346  0.41803  0.27398  1.0000
  C   C115      1.0  0.09934  0.44003  0.27277  1.0000
  H   H178      1.0  0.10961  0.45167  0.28624  1.0000
  N   N11       1.0  0.13842  0.39331  0.28166  1.0000
  H   H179      1.0  0.28464  0.40448  0.42666  1.0000
  H   H180      1.0  0.09244  0.55941  0.29323  1.0000
  H   H181      1.0  0.07426  0.60745  0.31932  1.0000
  H   H182      1.0  0.21451  0.38799  0.40838  1.0000
  H   H183      1.0  0.06768  0.48170  0.43792  1.0000
  C   C116      1.0  0.08532  0.47764  0.43629  1.0000
  H   H184      1.0  0.09919  0.48695  0.44964  1.0000
  H   H185      1.0  0.07758  0.45519  0.43680  1.0000
  S   S54       1.0  0.06722  0.39824  0.40509  1.0000
  H   H186      1.0  0.11570  0.46024  0.41573  1.0000
  C   C117      1.0  0.05257  0.36464  0.41474  1.0000
  N   N12       1.0  0.09931  0.48842  0.41725  1.0000
  C   C118      1.0  0.28040  0.40083  0.41012  1.0000
  C   C119      1.0  0.05459  0.36124  0.43563  1.0000
  H   H187      1.0  0.13735  0.49201  0.42853  1.0000
  H   H188      1.0  0.12024  0.52676  0.40273  1.0000
  H   H189      1.0  0.12351  0.52879  0.42974  1.0000
  H   H190      1.0  0.06645  0.37885  0.44528  1.0000
  H   H191      1.0  0.13364  0.49056  0.40156  1.0000
  C   C120      1.0  0.12251  0.48254  0.41574  1.0000
  C   C121      1.0  0.10921  0.51812  0.41685  1.0000
  H   H192      1.0  0.09222  0.52335  0.41743  1.0000
  C   C122      1.0  0.24071  0.35843  0.41607  1.0000
  Fe  Fe28      1.0  0.09701  0.63709  0.35861  1.0000
  S   S55       1.0  0.07746  0.59070  0.35865  1.0000
  C   C123      1.0  0.09413  0.57015  0.35905  1.0000
  C   C124      1.0  0.07867  0.54189  0.35594  1.0000
  C   C125      1.0  0.09100  0.52475  0.35621  1.0000
  C   C126      1.0  0.11896  0.53571  0.35985  1.0000
  C   C127      1.0  0.13441  0.56397  0.36291  1.0000
  C   C128      1.0  0.12213  0.58115  0.36239  1.0000
  H   H193      1.0  0.05699  0.53318  0.35333  1.0000
  H   H194      1.0  0.15605  0.57265  0.36581  1.0000
  H   H195      1.0  0.13428  0.60284  0.36489  1.0000
  S   S56       1.0  0.13530  0.51494  0.36182  1.0000
  N   N13       1.0  0.09616  0.59963  0.29597  1.0000
  C   C129      1.0  0.07999  0.61259  0.30338  1.0000
  C   C130      1.0  0.08080  0.56994  0.29846  1.0000
  H   H196      1.0  0.09154  0.63508  0.30281  1.0000
  H   H197      1.0  0.12205  0.38738  0.31137  1.0000
  H   H198      1.0  0.03527  0.34371  0.38644  1.0000
  H   H199      1.0  0.11354  0.62807  0.27224  1.0000
  Fe  Fe29      1.0  0.31202  0.44389  0.36140  1.0000
  C   C131      1.0  0.31404  0.34800  0.43602  1.0000
  C   C132      1.0  0.10187  0.60574  0.27442  1.0000
  H   H200      1.0  0.07884  0.50307  0.35376  1.0000
  H   H201      1.0  0.09011  0.48288  0.38545  1.0000
  H   H202      1.0  0.06240  0.47920  0.40057  1.0000
  C   C133      1.0  0.08018  0.47523  0.40003  1.0000
  H   H203      1.0  0.07246  0.45279  0.39973  1.0000
  S   S57       1.0  0.29453  0.40480  0.34351  1.0000
  S   S58       1.0  0.28458  0.45892  0.37567  1.0000
  H   H204      1.0  0.11404  0.59630  0.26825  1.0000
  C   C134      1.0  0.25176  0.44734  0.36480  1.0000
  C   C135      1.0  0.23664  0.39958  0.41197  1.0000
  S   S59       1.0  0.30234  0.35264  0.37518  1.0000
  H   H205      1.0  0.25805  0.42627  0.33962  1.0000
  C   C136      1.0  0.31666  0.35796  0.41626  1.0000
  N   N14       1.0  0.25112  0.38439  0.40542  1.0000
  H   H206      1.0  0.06092  0.60604  0.29427  1.0000
  H   H207      1.0  0.17367  0.43048  0.27461  1.0000
  H   H208      1.0  0.06109  0.56113  0.28989  1.0000
  H   H209      1.0  0.25742  0.36727  0.37792  1.0000
  H   H210      1.0  0.07626  0.56495  0.31466  1.0000
  H   H211      1.0  0.10095  0.36221  0.29291  1.0000
  H   H212      1.0  0.25484  0.39800  0.37499  1.0000
  H   H213      1.0  0.11841  0.60683  0.32416  1.0000
  C   C137      1.0  0.15413  0.37862  0.28616  1.0000
  S   S60       1.0  0.32317  0.43237  0.28877  1.0000
  H   H214      1.0  0.16434  0.42792  0.30054  1.0000
  Fe  Fe30      1.0  0.32854  0.42622  0.32218  1.0000
  H   H215      1.0  0.17178  0.38499  0.27620  1.0000
  H   H216      1.0  0.24429  0.41935  0.40422  1.0000
  H   H217      1.0  0.14137  0.35626  0.28423  1.0000
  H   H218      1.0  0.14492  0.43458  0.28185  1.0000
  H   H219      1.0  0.28867  0.42103  0.40300  1.0000
  C   C138      1.0  0.12201  0.61036  0.30773  1.0000
  H   H220      1.0  0.29211  0.39062  0.40441  1.0000
  H   H221      1.0  0.16218  0.38268  0.30206  1.0000
  H   H222      1.0  0.06723  0.65958  0.28258  1.0000
  C   C139      1.0  0.15611  0.42283  0.28476  1.0000
  C   C140      1.0  0.29944  0.34154  0.40057  1.0000
  C   C141      1.0  0.11523  0.38418  0.29526  1.0000
  S   S61       1.0  0.13587  0.66258  0.34313  1.0000
  H   H223      1.0  0.13442  0.63266  0.30582  1.0000
  H   H224      1.0  0.13445  0.60048  0.30299  1.0000
  H   H225      1.0  0.24388  0.36183  0.43271  1.0000
  H   H226      1.0  0.21864  0.34551  0.41289  1.0000
  Fe  Fe31      1.0  0.32324  0.39552  0.36227  1.0000
  H   H227      1.0  0.01192  0.34488  0.48148  1.0000
  C   C142      1.0  0.03729  0.34155  0.40249  1.0000
  H   H228      1.0  0.04413  0.33306  0.46013  1.0000
  H   H229      1.0  0.10350  0.39554  0.29289  1.0000
  H   H230      1.0  0.25125  0.34657  0.41130  1.0000
  H   H231      1.0  0.03991  0.38681  0.25683  1.0000
  C   C143      1.0  0.12818  0.38759  0.26047  1.0000
  C   C144      1.0  0.07936  0.66315  0.26931  1.0000
  H   H232      1.0  0.32785  0.36076  0.44792  1.0000
  H   H233      1.0  0.22497  0.36680  0.37918  1.0000
  H   H234      1.0  0.11540  0.39757  0.25690  1.0000
  H   H235      1.0  0.11538  0.36544  0.25742  1.0000
  C   C145      1.0  0.06004  0.40378  0.25609  1.0000
  H   H236      1.0  0.00687  0.34550  0.67791  1.0000
  H   H237      1.0  0.28627  0.82267  0.17592  1.0000
  H   H238      1.0  0.13249  0.85460  0.05166  1.0000
  H   H239      1.0  0.10212  0.79009  0.02124  1.0000
  S   S62       1.0  0.03039  0.75085  0.06386  1.0000
  H   H240      1.0  0.14479  0.80736  0.04189  1.0000
  H   H241      1.0  0.28223  0.79888  0.22811  1.0000
  S   S63       1.0  0.13231  0.68123  0.13109  1.0000
  H   H242      1.0  0.07372  0.79260  0.03115  1.0000
  Fe  Fe32      1.0  0.13892  0.70592  0.15960  1.0000
  S   S64       1.0  0.16901  0.74962  0.16724  1.0000
  S   S65       1.0  0.09559  0.69827  0.16059  1.0000
  H   H243      1.0  0.03080  0.70141  0.04779  1.0000
  C   C146      1.0  0.09422  0.80954  0.06850  1.0000
  H   H244      1.0  0.12651  0.78071  0.20879  1.0000
  C   C147      1.0  0.21168  0.75222  0.14483  1.0000
  C   C148      1.0  0.20024  0.76642  0.15510  1.0000
  C   C149      1.0  0.21464  0.79481  0.15685  1.0000
  H   H245      1.0  0.28679  0.98808  0.07094  1.0000
  H   H246      1.0  0.20068  0.73031  0.14334  1.0000
  H   H247      1.0  0.05340  0.74962  0.10272  1.0000
  C   C150      1.0  0.04109  0.72780  0.07410  1.0000
  C   C151      1.0  0.03904  0.70522  0.06309  1.0000
  C   C152      1.0  0.04706  0.68708  0.07208  1.0000
  C   C153      1.0  0.05754  0.69144  0.09207  1.0000
  C   C154      1.0  0.06013  0.71435  0.10293  1.0000
  C   C155      1.0  0.05182  0.73230  0.09402  1.0000
  H   H248      1.0  0.28048  0.76666  0.22129  1.0000
  H   H249      1.0  0.06807  0.71798  0.11831  1.0000
  C   C156      1.0  0.09154  0.78966  0.03545  1.0000
  C   C157      1.0  0.23783  0.76643  0.13702  1.0000
  C   C158      1.0  0.11894  0.83786  0.04107  1.0000
  S   S66       1.0  0.02112  0.79367  0.02253  1.0000
  H   H250      1.0  0.28393  0.83027  0.20190  1.0000
  H   H251      1.0  0.10681  0.82566  0.07983  1.0000
  H   H252      1.0  0.12637  0.78627  0.06225  1.0000
  H   H253      1.0  0.12869  0.77202  0.23454  1.0000
  H   H254      1.0  0.20579  0.80596  0.16456  1.0000
  C   C159      1.0  0.30884  0.93322  0.08451  1.0000
  Fe  Fe33      1.0  0.08845  0.67124  0.13321  1.0000
  N   N15       1.0  0.10946  0.81093  0.05015  1.0000
  Fe  Fe34      1.0  0.01642  0.75257  0.03142  1.0000
  C   C160      1.0  0.27540  0.77042  0.18120  1.0000
  H   H255      1.0  0.08362  0.76897  0.04175  1.0000
  H   H256      1.0  0.10059  0.77714  0.22605  1.0000
  H   H257      1.0  0.28383  0.77777  0.16608  1.0000
  H   H258      1.0  0.12275  0.67730  0.22150  1.0000
  C   C161      1.0  0.24052  0.80897  0.14881  1.0000
  C   C162      1.0  0.11437  0.76867  0.22159  1.0000
  C   C163      1.0  0.13297  0.80653  0.05547  1.0000
  H   H259      1.0  0.30751  0.92594  0.05229  1.0000
  H   H260      1.0  0.13034  0.83945  0.02710  1.0000
  C   C164      1.0  0.08351  0.72414  0.23330  1.0000
  C   C165      1.0  0.31568  0.80562  0.19768  1.0000
  H   H261      1.0  0.31457  0.91764  0.08810  1.0000
  H   H262      1.0  0.28095  0.75429  0.18531  1.0000
  H   H263      1.0  0.13054  0.74088  0.19695  1.0000
  H   H264      1.0  0.14695  0.82224  0.06657  1.0000
  C   C166      1.0  0.11048  0.67326  0.23467  1.0000
  H   H265      1.0  0.08705  0.78953  0.07580  1.0000
  N   N16       1.0  0.09904  0.73952  0.21590  1.0000
  C   C167      1.0  0.27463  0.78231  0.21633  1.0000
  H   H266      1.0  0.25490  0.80437  0.18866  1.0000
  H   H267      1.0  0.25208  0.77278  0.21585  1.0000
  H   H268      1.0  0.06548  0.74342  0.20266  1.0000
  C   C168      1.0  0.11821  0.72944  0.20984  1.0000
  S   S67       1.0  0.13316  0.67156  0.17970  1.0000
  H   H269      1.0  0.09713  0.72472  0.24603  1.0000
  C   C169      1.0  0.08012  0.73578  0.19878  1.0000
  Fe  Fe35      1.0  0.27082  0.98474  0.01774  1.0000
  S   S68       1.0  0.29311  0.96353  0.03294  1.0000
  H   H270      1.0  0.13978  0.97759  0.01459  1.0000
  H   H271      1.0  0.10734  0.70771  0.20493  1.0000
  H   H272      1.0  0.07577  0.81182  0.06485  1.0000
  Fe  Fe36      1.0  0.31326  0.85578  0.14191  1.0000
  S   S69       1.0  0.28676  0.81178  0.13200  1.0000
  S   S70       1.0  0.29736  0.87990  0.15941  1.0000
  N   N17       1.0  0.28576  0.79292  0.19643  1.0000
  H   H273      1.0  0.10157  0.84158  0.03666  1.0000
  C   C170      1.0  0.29659  0.95761  0.05901  1.0000
  C   C171      1.0  0.30468  0.93789  0.06415  1.0000
  C   C172      1.0  0.27731  0.81342  0.19048  1.0000
  C   C173      1.0  0.30566  0.94873  0.10008  1.0000
  C   C174      1.0  0.29761  0.96848  0.09494  1.0000
  C   C175      1.0  0.29286  0.97274  0.07458  1.0000
  H   H274      1.0  0.06808  0.71387  0.19430  1.0000
  S   S71       1.0  0.23761  0.99358  0.02861  1.0000
  H   H275      1.0  0.09118  0.74663  0.18522  1.0000
  H   H276      1.0  0.25123  0.83079  0.15023  1.0000
  H   H277      1.0  0.24691  0.75534  0.12954  1.0000
  H   H278      1.0  0.07038  0.70239  0.22903  1.0000
  S   S72       1.0  0.31326  0.94562  0.12596  1.0000
  H   H279      1.0  0.29508  0.98065  0.10679  1.0000
  H   H280      1.0  0.25290  0.76087  0.17941  1.0000
  C   C176      1.0  0.25259  0.79483  0.13937  1.0000
  H   H281      1.0  0.06997  0.73224  0.23904  1.0000
  H   H282      1.0  0.13248  0.73126  0.22244  1.0000
  Fe  Fe37      1.0  0.32459  0.91458  0.13992  1.0000
  H   H283      1.0  0.32427  0.82350  0.20836  1.0000
  H   H284      1.0  0.11166  0.91374  0.01008  1.0000
  H   H285      1.0  0.32285  0.79102  0.20277  1.0000
  S   S73       1.0  0.32958  0.87872  0.21324  1.0000
  S   S74       1.0  0.06643  0.66735  0.10288  1.0000
  H   H286      1.0  0.32454  0.81299  0.18269  1.0000
  H   H287      1.0  0.12278  0.99728  0.00842  1.0000
  H   H288      1.0  0.14496  0.69321  0.25513  1.0000
  C   C177      1.0  0.12306  0.68226  0.25380  1.0000
  H   H289      1.0  0.04488  0.66943  0.06352  1.0000
  C   C178      1.0  0.14037  0.99778  0.01698  1.0000
  H   H290      1.0  0.20966  0.78003  0.32475  1.0000
  H   H291      1.0  0.25458  0.87676  0.32367  1.0000
  Fe  Fe38      1.0  0.26003  0.99228  0.47705  1.0000
  Fe  Fe39      1.0  0.08606  0.68569  0.36706  1.0000
  C   C179      1.0  0.11275  0.88837  0.49836  1.0000
  S   S75       1.0  0.06387  0.70780  0.38051  1.0000
  Fe  Fe40      1.0  0.14378  0.69385  0.36760  1.0000
  S   S76       1.0  0.18412  0.72096  0.38325  1.0000
  S   S77       1.0  0.12329  0.71389  0.35066  1.0000
  C   C180      1.0  0.23920  0.79755  0.34917  1.0000
  C   C181      1.0  0.21525  0.77746  0.33998  1.0000
  C   C182      1.0  0.19856  0.75381  0.35024  1.0000
  C   C183      1.0  0.20551  0.75014  0.36991  1.0000
  H   H292      1.0  0.18051  0.73828  0.34275  1.0000
  S   S78       1.0  0.21830  0.98682  0.48441  1.0000
  C   C184      1.0  0.24216  0.87157  0.30940  1.0000
  H   H293      1.0  0.28792  0.94820  0.46190  1.0000
  H   H294      1.0  0.18132  0.79324  0.41841  1.0000
  C   C185      1.0  0.17118  0.77091  0.42058  1.0000
  H   H295      1.0  0.18380  0.76273  0.41314  1.0000
  H   H296      1.0  0.22934  0.88202  0.31003  1.0000
  C   C186      1.0  0.27615  0.86507  0.29153  1.0000
  H   H297      1.0  0.23509  0.76744  0.39435  1.0000
  C   C187      1.0  0.22950  0.77022  0.37917  1.0000
  H   H298      1.0  0.17152  0.76733  0.43703  1.0000
  S   S79       1.0  0.01067  0.77328  0.47833  1.0000
  C   C188      1.0  0.27740  0.90905  0.29229  1.0000
  C   C189      1.0  0.24637  0.79389  0.36882  1.0000
  C   C190      1.0  0.05469  0.70860  0.40601  1.0000
  H   H299      1.0  0.29060  0.91548  0.30621  1.0000
  H   H300      1.0  0.04857  0.74376  0.40177  1.0000
  H   H301      1.0  0.22930  0.88215  0.27247  1.0000
  C   C191      1.0  0.31309  0.93959  0.41700  1.0000
  C   C192      1.0  0.03884  0.71073  0.44624  1.0000
  C   C193      1.0  0.04038  0.73021  0.43246  1.0000
  H   H302      1.0  0.10587  0.75966  0.41572  1.0000
  S   S80       1.0  0.02707  0.70963  0.47118  1.0000
  C   C194      1.0  0.04572  0.69052  0.43984  1.0000
  C   C195      1.0  0.05386  0.68959  0.41993  1.0000
  H   H303      1.0  0.14123  0.99469  0.47987  1.0000
  H   H304      1.0  0.22860  0.84923  0.30945  1.0000
  H   H305      1.0  0.31263  0.92505  0.44705  1.0000
  C   C196      1.0  0.30690  0.93737  0.43763  1.0000
  H   H306      1.0  0.25486  0.87767  0.25922  1.0000
  C   C197      1.0  0.24228  0.87183  0.27294  1.0000
  S   S81       1.0  0.32490  0.86486  0.37524  1.0000
  S   S82       1.0  0.12499  0.69094  0.29454  1.0000
  H   H307      1.0  0.14290  0.71923  0.40833  1.0000
  S   S83       1.0  0.06475  0.84145  0.50355  1.0000
  C   C198      1.0  0.13071  0.72826  0.41512  1.0000
  H   H308      1.0  0.11006  0.71760  0.40802  1.0000
  H   H309      1.0  0.03562  0.74618  0.43716  1.0000
  Fe  Fe41      1.0  0.01709  0.73883  0.48968  1.0000
  S   S84       1.0  0.10703  0.66667  0.38509  1.0000
  H   H310      1.0  0.12306  0.75309  0.38311  1.0000
  C   C199      1.0  0.28623  0.96743  0.43434  1.0000
  C   C200      1.0  0.04788  0.72887  0.41240  1.0000
  C   C201      1.0  0.29222  0.96944  0.41369  1.0000
  H   H311      1.0  0.12886  0.72348  0.43143  1.0000
  C   C202      1.0  0.10764  0.67748  0.27119  1.0000
  C   C203      1.0  0.14384  0.76299  0.39016  1.0000
  H   H312      1.0  0.12566  0.76521  0.43857  1.0000
  C   C204      1.0  0.12699  0.76908  0.42209  1.0000
  H   H313      1.0  0.15299  0.78509  0.38721  1.0000
  H   H314      1.0  0.15611  0.75494  0.38213  1.0000
  N   N18       1.0  0.14320  0.75784  0.41201  1.0000
  H   H315      1.0  0.13587  0.79141  0.42019  1.0000
  H   H316      1.0  0.29116  0.91560  0.27926  1.0000
  C   C205      1.0  0.15605  0.99177  0.48966  1.0000
  Fe  Fe42      1.0  0.30025  0.85928  0.34688  1.0000
  H   H317      1.0  0.28831  0.86926  0.27771  1.0000
  S   S85       1.0  0.30568  0.90192  0.34798  1.0000
  H   H318      1.0  0.26564  0.92063  0.29214  1.0000
  H   H319      1.0  0.26483  0.80926  0.37601  1.0000
  S   S86       1.0  0.27219  0.98781  0.44479  1.0000
  S   S87       1.0  0.25914  0.82693  0.33554  1.0000
  N   N19       1.0  0.25948  0.87939  0.29155  1.0000
  H   H320      1.0  0.10104  0.89326  0.48751  1.0000
  H   H321      1.0  0.26346  0.84266  0.29230  1.0000
  C   C206      1.0  0.29310  0.95074  0.44616  1.0000
  H   H322      1.0  0.15726  0.97349  0.48382  1.0000
  H   H323      1.0  0.04457  0.67532  0.45034  1.0000
  H   H324      1.0  0.29052  0.87151  0.30476  1.0000
  C   C207      1.0  0.30528  0.95541  0.40501  1.0000
  Fe  Fe43      1.0  0.11246  0.68076  0.32713  1.0000
  H   H325      1.0  0.05890  0.67378  0.41525  1.0000
  H   H326      1.0  0.28698  0.98221  0.40434  1.0000
  H   H327      1.0  0.22876  0.84951  0.27184  1.0000
  H   H328      1.0  0.31005  0.95755  0.38917  1.0000
  H   H329      1.0  0.10559  0.96723  0.50389  1.0000
  S   S88       1.0  0.26310  0.96958  0.50386  1.0000
  H   H330      1.0  0.30921  0.99384  0.47657  1.0000
  C   C208      1.0  0.14028  0.90712  0.50241  1.0000
  H   H331      1.0  0.14961  0.92599  0.49449  1.0000
  C   C209      1.0  0.32876  0.99782  0.48400  1.0000
  H   H332      1.0  0.05588  0.76607  0.56342  1.0000
  Fe  Fe44      1.0  0.00243  0.74658  0.53298  1.0000
  C   C210      1.0  0.11587  0.85709  0.52180  1.0000
  H   H333      1.0  0.03054  0.79250  0.55881  1.0000
  C   C211      1.0  0.05004  0.81129  0.56145  1.0000
  C   C212      1.0  0.16870  0.98527  0.52339  1.0000
  C   C213      1.0  0.07460  0.78565  0.56643  1.0000
  H   H334      1.0  0.10759  0.82889  0.58970  1.0000
  H   H335      1.0  0.08916  0.84793  0.58615  1.0000
  S   S89       1.0  0.04229  0.76246  0.51706  1.0000
  C   C214      1.0  0.09337  0.83192  0.57929  1.0000
  C   C215      1.0  0.12145  0.96518  0.51305  1.0000
  H   H336      1.0  0.10416  0.84008  0.56504  1.0000
  H   H337      1.0  0.10686  0.83772  0.52904  1.0000
  C   C216      1.0  0.14310  0.87630  0.52643  1.0000
  H   H338      1.0  0.03517  0.77698  0.59235  1.0000
  H   H339      1.0  0.15472  0.87155  0.53746  1.0000
  C   C217      1.0  0.05428  0.79638  0.59473  1.0000
  N   N20       1.0  0.06810  0.80634  0.57548  1.0000
  Fe  Fe45      1.0  0.22236  0.96607  0.51218  1.0000
  H   H340      1.0  0.08813  0.78128  0.57659  1.0000
  S   S90       1.0  0.18936  0.92584  0.52448  1.0000
  H   H341      1.0  0.04506  0.82716  0.56750  1.0000
  H   H342      1.0  0.05937  0.81807  0.54649  1.0000
  H   H343      1.0  0.06725  0.79236  0.60571  1.0000
  H   H344      1.0  0.04870  0.81127  0.60188  1.0000
  H   H345      1.0  0.08486  0.79236  0.55179  1.0000
  C   C218      1.0  0.15551  0.90156  0.51689  1.0000
  C   C219      1.0  0.10024  0.86325  0.50807  1.0000
  H   H346      1.0  0.16343  0.98261  0.53960  1.0000
  H   H347      1.0  0.17060  0.96709  0.51822  1.0000
  Fe  Fe46      1.0  0.03384  0.79623  0.50658  1.0000
  H   H348      1.0  0.11508  0.96241  0.52903  1.0000
  N   N21       1.0  0.14835  0.98899  0.51106  1.0000
  H   H349      1.0  0.12158  0.94611  0.50787  1.0000
  S   S91       1.0  0.99660  0.73466  0.56622  1.0000
  H   H350      1.0  0.28897  0.93864  0.98793  1.0000
  H   H351      1.0  0.16988  0.99622  0.98581  1.0000
  Fe  Fe47      1.0  0.04260  0.78843  0.99580  1.0000
  S   S92       1.0  0.08638  0.81896  0.98787  1.0000
  C   C220      1.0  0.13608  0.86495  0.98695  1.0000
  C   C221      1.0  0.15467  0.89276  0.99016  1.0000
  C   C222      1.0  0.10868  0.85446  0.99214  1.0000
  S   S93       1.0  0.16827  0.94638  0.00199  1.0000
  H   H352      1.0  0.17555  0.90038  0.98591  1.0000
  H   H353      1.0  0.14300  0.85146  0.98029  1.0000
  S   S94       1.0  0.00398  0.76856  0.97644  1.0000
  C   C223      1.0  0.14607  0.91070  0.99842  1.0000
  Fe  Fe48      1.0  0.99780  0.72843  0.98818  1.0000
  C   C224      1.0  0.10016  0.87230  0.00073  1.0000
  S   S95       1.0  0.24688  0.96192  0.98969  1.0000
  Fe  Fe49      1.0  0.21462  0.97256  0.99979  1.0000
  H   H354      1.0  0.28079  0.94753  0.96370  1.0000
  H   H355      1.0  0.31619  0.97561  0.94108  1.0000
  S   S96       1.0  0.03824  0.74753  0.00494  1.0000
  H   H356      1.0  0.32057  0.98636  0.99702  1.0000
  C   C225      1.0  0.32525  0.98947  0.98072  1.0000
  N   N22       1.0  0.32343  0.96474  0.97074  1.0000
  C   C226      1.0  0.29544  0.94250  0.97194  1.0000
  C   C227      1.0  0.11868  0.90019  0.00371  1.0000
  H   H357      1.0  0.29340  0.92320  0.96516  1.0000
  H   H358      1.0  0.07923  0.86470  0.00480  1.0000
  H   H359      1.0  0.31056  0.99537  0.97372  1.0000
  H   H360      1.0  0.99747  0.68705  0.79786  1.0000
  C   C228      1.0  0.34218  0.29757  0.04314  1.0000
  H   H361      1.0  0.43511  0.01378  0.10621  1.0000
  H   H362      1.0  0.33987  0.27469  0.00677  1.0000
  H   H363      1.0  0.39305  0.01883  0.10347  1.0000
  H   H364      1.0  0.40578  0.00427  0.13579  1.0000
  H   H365      1.0  0.37220  0.28360  0.01864  1.0000
  H   H366      1.0  0.35354  0.28861  0.05141  1.0000
  H   H367      1.0  0.64558  0.01877  0.02097  1.0000
  N   N23       1.0  0.35631  0.31157  0.02486  1.0000
  C   C229      1.0  0.34011  0.32255  0.01424  1.0000
  H   H368      1.0  0.33946  0.31172  0.05384  1.0000
  H   H369      1.0  0.39597  0.32660  0.03877  1.0000
  C   C230      1.0  0.35977  0.29208  0.01132  1.0000
  H   H370      1.0  0.65700  0.99941  0.03624  1.0000
  C   C231      1.0  0.64754  0.99974  0.02132  1.0000
  H   H371      1.0  0.36322  0.06421  0.47176  1.0000
  H   H372      1.0  0.34303  0.04946  0.49347  1.0000
  C   C232      1.0  0.34617  0.04546  0.47743  1.0000
  N   N24       1.0  0.35148  0.02184  0.47555  1.0000
  H   H373      1.0  0.34132  0.23631  0.46010  1.0000
  H   H374      1.0  0.37135  0.03381  0.44715  1.0000
  H   H375      1.0  0.34921  0.25289  0.42494  1.0000
  H   H376      1.0  0.39442  0.04567  0.48095  1.0000
  H   H377      1.0  0.35674  0.28555  0.45333  1.0000
  C   C233      1.0  0.37676  0.02762  0.48685  1.0000
  H   H378      1.0  0.37520  0.03177  0.50319  1.0000
  H   H379      1.0  0.33540  0.01268  0.44506  1.0000
  C   C234      1.0  0.35402  0.01638  0.45398  1.0000
  H   H380      1.0  0.38117  0.01006  0.48586  1.0000
  C   C235      1.0  0.33496  0.28038  0.45198  1.0000
  H   H381      1.0  0.33315  0.29557  0.44211  1.0000
  H   H382      1.0  0.49889  0.05090  0.72649  1.0000
  H   H383      1.0  0.39398  0.06192  0.59053  1.0000
  C   C236      1.0  0.58543  0.06671  0.57986  1.0000
  C   C237      1.0  0.35198  0.31643  0.57172  1.0000
  C   C238      1.0  0.33517  0.29238  0.60256  1.0000
  H   H384      1.0  0.48072  0.10458  0.74324  1.0000
  H   H385      1.0  0.39903  0.16951  0.68750  1.0000
  C   C239      1.0  0.36310  0.04698  0.56657  1.0000
  H   H386      1.0  0.38736  0.11578  0.62097  1.0000
  H   H387      1.0  0.35435  0.09363  0.58107  1.0000
  C   C240      1.0  0.37255  0.05337  0.58686  1.0000
  H   H388      1.0  0.37749  0.05079  0.55477  1.0000
  H   H389      1.0  0.39425  0.13022  0.56640  1.0000
  C   C241      1.0  0.35642  0.31264  0.59217  1.0000
  C   C242      1.0  0.35419  0.04835  0.60235  1.0000
  H   H390      1.0  0.45542  0.05259  0.71824  1.0000
  S   S97       1.0  0.43761  0.31487  0.63030  1.0000
  H   H391      1.0  0.41602  0.30459  0.72026  1.0000
  H   H392      1.0  0.41637  0.14328  0.61025  1.0000
  Fe  Fe50      1.0  0.40603  0.32893  0.63427  1.0000
  C   C243      1.0  0.40231  0.16716  0.70379  1.0000
  C   C244      1.0  0.51066  0.11307  0.71037  1.0000
  H   H393      1.0  0.48361  0.23794  0.63451  1.0000
  S   S98       1.0  0.64922  0.07489  0.71617  1.0000
  C   C245      1.0  0.41797  0.31564  0.73429  1.0000
  H   H394      1.0  0.50012  0.12585  0.71127  1.0000
  Fe  Fe51      1.0  0.42078  0.29106  0.65814  1.0000
  S   S99       1.0  0.40639  0.24626  0.66245  1.0000
  C   C246      1.0  0.39071  0.14501  0.57578  1.0000
  S   S100      1.0  0.38769  0.30325  0.66130  1.0000
  Fe  Fe52      1.0  0.40695  0.08077  0.64325  1.0000
  S   S101      1.0  0.44655  0.10232  0.62747  1.0000
  C   C247      1.0  0.33524  0.03549  0.56146  1.0000
  Fe  Fe53      1.0  0.43328  0.10650  0.68523  1.0000
  S   S102      1.0  0.47408  0.13048  0.67178  1.0000
  S   S103      1.0  0.43209  0.11891  0.71800  1.0000
  Fe  Fe54      1.0  0.45192  0.13859  0.64637  1.0000
  S   S104      1.0  0.46711  0.18048  0.63363  1.0000
  Fe  Fe55      1.0  0.46517  0.09216  0.65457  1.0000
  S   S105      1.0  0.36482  0.05683  0.62817  1.0000
  S   S106      1.0  0.41186  0.11770  0.66104  1.0000
  S   S107      1.0  0.42478  0.06739  0.66911  1.0000
  C   C248      1.0  0.42305  0.22890  0.65225  1.0000
  C   C249      1.0  0.44962  0.24245  0.64555  1.0000
  C   C250      1.0  0.46291  0.22744  0.63942  1.0000
  C   C251      1.0  0.44977  0.19898  0.64019  1.0000
  C   C252      1.0  0.42297  0.18559  0.64636  1.0000
  C   C253      1.0  0.40966  0.20048  0.65229  1.0000
  H   H395      1.0  0.46008  0.26443  0.64550  1.0000
  C   C254      1.0  0.49166  0.09221  0.74187  1.0000
  H   H396      1.0  0.41236  0.16377  0.64643  1.0000
  H   H397      1.0  0.38896  0.18997  0.65719  1.0000
  H   H398      1.0  0.41068  0.16335  0.57843  1.0000
  C   C255      1.0  0.42769  0.10057  0.74050  1.0000
  C   C256      1.0  0.41885  0.07252  0.74046  1.0000
  C   C257      1.0  0.42521  0.21572  0.71004  1.0000
  H   H399      1.0  0.41336  0.06098  0.72635  1.0000
  H   H400      1.0  0.41374  0.18414  0.74253  1.0000
  H   H401      1.0  0.39314  0.17226  0.60990  1.0000
  H   H402      1.0  0.45739  0.08395  0.70968  1.0000
  H   H403      1.0  0.44987  0.20303  0.74024  1.0000
  C   C258      1.0  0.46837  0.07163  0.71031  1.0000
  H   H404      1.0  0.45266  0.17331  0.70131  1.0000
  H   H405      1.0  0.53129  0.12497  0.71733  1.0000
  H   H406      1.0  0.35959  0.15914  0.59906  1.0000
  H   H407      1.0  0.55884  0.04696  0.61404  1.0000
  H   H408      1.0  0.44382  0.23369  0.71594  1.0000
  N   N25       1.0  0.49523  0.08695  0.72047  1.0000
  H   H409      1.0  0.59957  0.06816  0.56772  1.0000
  H   H410      1.0  0.40769  0.21493  0.71836  1.0000
  N   N26       1.0  0.42738  0.19033  0.71198  1.0000
  C   C259      1.0  0.51012  0.07087  0.71919  1.0000
  C   C260      1.0  0.41982  0.30439  0.75281  1.0000
  C   C261      1.0  0.37380  0.15330  0.60701  1.0000
  H   H411      1.0  0.53054  0.08176  0.72668  1.0000
  Fe  Fe56      1.0  0.65221  0.12224  0.65409  1.0000
  H   H412      1.0  0.47018  0.20930  0.70660  1.0000
  H   H413      1.0  0.58039  0.08377  0.57807  1.0000
  H   H414      1.0  0.36517  0.14524  0.62194  1.0000
  H   H415      1.0  0.43285  0.16697  0.73548  1.0000
  H   H416      1.0  0.40045  0.11033  0.59793  1.0000
  C   C262      1.0  0.39644  0.12536  0.60654  1.0000
  H   H417      1.0  0.63205  0.09538  0.61808  1.0000
  H   H418      1.0  0.51310  0.06674  0.70314  1.0000
  H   H419      1.0  0.51316  0.10981  0.69406  1.0000
  H   H420      1.0  0.57360  0.08341  0.61510  1.0000
  N   N27       1.0  0.37820  0.13309  0.59505  1.0000
  S   S108      1.0  0.49525  0.07507  0.65714  1.0000
  H   H421      1.0  0.38415  0.16513  0.71185  1.0000
  C   C263      1.0  0.62280  0.09369  0.60282  1.0000
  H   H422      1.0  0.63824  0.09550  0.59170  1.0000
  H   H423      1.0  0.58685  0.06645  0.63112  1.0000
  C   C264      1.0  0.60390  0.04484  0.60194  1.0000
  H   H424      1.0  0.61852  0.04556  0.59041  1.0000
  H   H425      1.0  0.34265  0.09828  0.60508  1.0000
  N   N28       1.0  0.59760  0.06779  0.60007  1.0000
  H   H426      1.0  0.37752  0.15116  0.56673  1.0000
  C   C265      1.0  0.57832  0.06602  0.61572  1.0000
  H   H427      1.0  0.58538  0.02491  0.60012  1.0000
  H   H428      1.0  0.61893  0.11156  0.60142  1.0000
  H   H429      1.0  0.47016  0.06581  0.69450  1.0000
  H   H430      1.0  0.33715  0.11387  0.58304  1.0000
  S   S109      1.0  0.62250  0.13719  0.64343  1.0000
  S   S110      1.0  0.63932  0.07816  0.65827  1.0000
  C   C266      1.0  0.58759  0.12112  0.64920  1.0000
  C   C267      1.0  0.57096  0.13212  0.64201  1.0000
  C   C268      1.0  0.54276  0.11878  0.64492  1.0000
  C   C269      1.0  0.53085  0.09396  0.65469  1.0000
  C   C270      1.0  0.54753  0.08315  0.66214  1.0000
  C   C271      1.0  0.57579  0.09686  0.65971  1.0000
  H   H431      1.0  0.57990  0.15093  0.63393  1.0000
  H   H432      1.0  0.53018  0.12732  0.63908  1.0000
  H   H433      1.0  0.53852  0.06395  0.66970  1.0000
  H   H434      1.0  0.58835  0.08831  0.66555  1.0000
  H   H435      1.0  0.33814  0.28925  0.61829  1.0000
  H   H436      1.0  0.42227  0.21960  0.69400  1.0000
  H   H437      1.0  0.61342  0.04528  0.61697  1.0000
  H   H438      1.0  0.56638  0.04740  0.57726  1.0000
  H   H439      1.0  0.40315  0.14762  0.70522  1.0000
  S   S111      1.0  0.45067  0.32413  0.67886  1.0000
  C   C272      1.0  0.45082  0.19240  0.70060  1.0000
  H   H440      1.0  0.41934  0.28472  0.75286  1.0000
  C   C273      1.0  0.43114  0.18598  0.73351  1.0000
  H   H441      1.0  0.47951  0.07298  0.74989  1.0000
  H   H442      1.0  0.44895  0.19626  0.68437  1.0000
  H   H443      1.0  0.63834  0.09239  0.75449  1.0000
  H   H444      1.0  0.51148  0.10343  0.75015  1.0000
  C   C274      1.0  0.35193  0.10872  0.59089  1.0000
  H   H445      1.0  0.36814  0.33209  0.56352  1.0000
  C   C275      1.0  0.42205  0.31824  0.77124  1.0000
  C   C276      1.0  0.42265  0.07374  0.77744  1.0000
  C   C277      1.0  0.43108  0.10167  0.77739  1.0000
  N   N29       1.0  0.34047  0.27073  0.82101  1.0000
  H   H446      1.0  0.43540  0.11303  0.79150  1.0000
  H   H447      1.0  0.37603  0.30435  0.83346  1.0000
  H   H448      1.0  0.39058  0.16683  0.89119  1.0000
  H   H449      1.0  0.39265  0.31882  0.91846  1.0000
  H   H450      1.0  0.51285  0.24211  0.86342  1.0000
  C   C278      1.0  0.57798  0.01421  0.79267  1.0000
  Fe  Fe57      1.0  0.43399  0.32023  0.82613  1.0000
  S   S112      1.0  0.42274  0.30217  0.79405  1.0000
  S   S113      1.0  0.41974  0.05651  0.80033  1.0000
  C   C279      1.0  0.51278  0.23081  0.84935  1.0000
  H   H451      1.0  0.55848  0.01399  0.79646  1.0000
  H   H452      1.0  0.49926  0.19991  0.88162  1.0000
  C   C280      1.0  0.60363  0.05948  0.80697  1.0000
  H   H453      1.0  0.38784  0.15707  0.91712  1.0000
  H   H454      1.0  0.36161  0.27077  0.79410  1.0000
  Fe  Fe58      1.0  0.45693  0.30904  0.86515  1.0000
  S   S114      1.0  0.41558  0.28987  0.85059  1.0000
  S   S115      1.0  0.47321  0.28221  0.87891  1.0000
  H   H455      1.0  0.62359  0.01041  0.80258  1.0000
  H   H456      1.0  0.57366  0.02130  0.83273  1.0000
  S   S116      1.0  0.36554  0.30633  0.87832  1.0000
  Fe  Fe59      1.0  0.43239  0.12978  0.85132  1.0000
  S   S117      1.0  0.39983  0.08649  0.84893  1.0000
  S   S118      1.0  0.41824  0.16092  0.84462  1.0000
  Fe  Fe60      1.0  0.47755  0.11366  0.85918  1.0000
  S   S119      1.0  0.44793  0.06913  0.85787  1.0000
  Fe  Fe61      1.0  0.42997  0.07979  0.83054  1.0000
  Fe  Fe62      1.0  0.42037  0.08020  0.87642  1.0000
  S   S120      1.0  0.40178  0.06410  0.90718  1.0000
  S   S121      1.0  0.46098  0.12356  0.83115  1.0000
  S   S122      1.0  0.45165  0.12426  0.87956  1.0000
  C   C281      1.0  0.35345  0.29970  0.90346  1.0000
  H   H457      1.0  0.63112  0.03822  0.78614  1.0000
  C   C282      1.0  0.36045  0.30359  0.94005  1.0000
  C   C283      1.0  0.37098  0.30822  0.92044  1.0000
  H   H458      1.0  0.49201  0.22240  0.84239  1.0000
  H   H459      1.0  0.55374  0.20479  0.86640  1.0000
  C   C284      1.0  0.45760  0.24838  0.86964  1.0000
  C   C285      1.0  0.44393  0.24159  0.85088  1.0000
  C   C286      1.0  0.43190  0.21464  0.84350  1.0000
  C   C287      1.0  0.43371  0.19433  0.85468  1.0000
  C   C288      1.0  0.44712  0.20094  0.87357  1.0000
  C   C289      1.0  0.45927  0.22801  0.88095  1.0000
  H   H460      1.0  0.44296  0.25720  0.84190  1.0000
  H   H461      1.0  0.42138  0.20961  0.82895  1.0000
  H   H462      1.0  0.44783  0.18522  0.88258  1.0000
  N   N30       1.0  0.36493  0.12430  0.89588  1.0000
  H   H463      1.0  0.49935  0.18557  0.82694  1.0000
  H   H464      1.0  0.36017  0.15930  0.90446  1.0000
  H   H465      1.0  0.36419  0.13299  0.86441  1.0000
  C   C290      1.0  0.54766  0.22088  0.86310  1.0000
  C   C291      1.0  0.62534  0.03113  0.80178  1.0000
  C   C292      1.0  0.36813  0.05019  0.91621  1.0000
  C   C293      1.0  0.36441  0.05208  0.93703  1.0000
  C   C294      1.0  0.50058  0.18960  0.86747  1.0000
  H   H466      1.0  0.58509  0.06060  0.81176  1.0000
  H   H467      1.0  0.35249  0.26012  0.84916  1.0000
  H   H468      1.0  0.60870  0.06811  0.79167  1.0000
  H   H469      1.0  0.64255  0.04472  0.81206  1.0000
  C   C295      1.0  0.34604  0.10676  0.91108  1.0000
  H   H470      1.0  0.54859  0.23160  0.87765  1.0000
  H   H471      1.0  0.53467  0.20847  0.82380  1.0000
  Fe  Fe63      1.0  0.40903  0.32158  0.86746  1.0000
  H   H472      1.0  0.36965  0.30174  0.99707  1.0000
  H   H473      1.0  0.37427  0.31073  0.95300  1.0000
  H   H474      1.0  0.38195  0.06291  0.94699  1.0000
  N   N31       1.0  0.59984  0.03136  0.80731  1.0000
  H   H475      1.0  0.46966  0.23318  0.89556  1.0000
  C   C296      1.0  0.34523  0.03628  0.90352  1.0000
  C   C297      1.0  0.33381  0.25679  0.84051  1.0000
  H   H476      1.0  0.47998  0.17900  0.86024  1.0000
  H   H477      1.0  0.37928  0.09570  0.88820  1.0000
  C   C298      1.0  0.35728  0.30022  0.82479  1.0000
  C   C299      1.0  0.37636  0.15313  0.90248  1.0000
  H   H478      1.0  0.34769  0.03439  0.88751  1.0000
  H   H479      1.0  0.52706  0.24585  0.83885  1.0000
  H   H480      1.0  0.62027  0.07304  0.81762  1.0000
  H   H481      1.0  0.36354  0.31151  0.81049  1.0000
  H   H482      1.0  0.50635  0.17372  0.87189  1.0000
  H   H483      1.0  0.52470  0.17763  0.83735  1.0000
  H   H484      1.0  0.51066  0.07783  0.85621  1.0000
  C   C300      1.0  0.51976  0.19460  0.83455  1.0000
  C   C301      1.0  0.38714  0.11714  0.89360  1.0000
  H   H485      1.0  0.39837  0.11930  0.90815  1.0000
  H   H486      1.0  0.33698  0.08488  0.90644  1.0000
  H   H487      1.0  0.35656  0.10898  0.92598  1.0000
  C   C302      1.0  0.43366  0.11498  0.75906  1.0000
  H   H488      1.0  0.37483  0.26360  0.81666  1.0000
  S   S123      1.0  0.52365  0.13482  0.86330  1.0000
  H   H489      1.0  0.60856  0.03293  0.83918  1.0000
  Fe  Fe64      1.0  0.64385  0.09565  0.85883  1.0000
  S   S124      1.0  0.59763  0.07513  0.85718  1.0000
  H   H490      1.0  0.40960  0.03753  0.75876  1.0000
  H   H491      1.0  0.56311  0.23575  0.85313  1.0000
  C   C303      1.0  0.54391  0.11790  0.86124  1.0000
  C   C304      1.0  0.57229  0.13310  0.86326  1.0000
  C   C305      1.0  0.58904  0.12039  0.86194  1.0000
  C   C306      1.0  0.57754  0.09226  0.85868  1.0000
  C   C307      1.0  0.54918  0.07709  0.85652  1.0000
  C   C308      1.0  0.53244  0.08981  0.85776  1.0000
  H   H492      1.0  0.58139  0.15482  0.86599  1.0000
  H   H493      1.0  0.61082  0.13233  0.86367  1.0000
  H   H494      1.0  0.54004  0.05532  0.85407  1.0000
  H   H495      1.0  0.40195  0.13026  0.88247  1.0000
  N   N32       1.0  0.52023  0.20903  0.85360  1.0000
  H   H496      1.0  0.34364  0.23808  0.80543  1.0000
  C   C309      1.0  0.35567  0.26025  0.80875  1.0000
  H   H497      1.0  0.34657  0.30901  0.83399  1.0000
  C   C310      1.0  0.59236  0.02063  0.82780  1.0000
  C   C311      1.0  0.35035  0.12015  0.87623  1.0000
  H   H498      1.0  0.64922  0.01779  0.98342  1.0000
  H   H499      1.0  0.44036  0.13661  0.75935  1.0000
  H   H500      1.0  0.34169  0.09863  0.87073  1.0000
  C   C312      1.0  0.33230  0.29002  0.94304  1.0000
  H   H501      1.0  0.65861  0.09644  0.78899  1.0000
  H   H502      1.0  0.58298  0.02180  0.77705  1.0000
  C   C313      1.0  0.41653  0.05923  0.75886  1.0000
  H   H503      1.0  0.33342  0.12540  0.87729  1.0000
  C   C314      1.0  0.33826  0.03999  0.94514  1.0000
  H   H504      1.0  0.34583  0.00700  0.97963  1.0000
  C   C315      1.0  0.65602  0.08933  0.75661  1.0000
  H   H505      1.0  0.33585  0.04197  0.96113  1.0000
  H   H506      1.0  0.58885  0.99928  0.82864  1.0000
  H   H507      1.0  0.34997  0.37780  0.24359  1.0000
  H   H508      1.0  0.50427  0.64553  0.11795  1.0000
  Fe  Fe65      1.0  0.35797  0.46537  0.14928  1.0000
  H   H509      1.0  0.54785  0.54677  0.13529  1.0000
  S   S125      1.0  0.36985  0.43182  0.14815  1.0000
  H   H510      1.0  0.44353  0.65621  0.11440  1.0000
  C   C316      1.0  0.38317  0.33412  0.03072  1.0000
  H   H511      1.0  0.43684  0.58929  0.12988  1.0000
  Fe  Fe66      1.0  0.57265  0.66394  0.17864  1.0000
  C   C317      1.0  0.48473  0.62647  0.11675  1.0000
  C   C318      1.0  0.46054  0.65211  0.11015  1.0000
  H   H512      1.0  0.59776  0.54253  0.12065  1.0000
  H   H513      1.0  0.41863  0.60823  0.12563  1.0000
  C   C319      1.0  0.34608  0.40949  0.22778  1.0000
  S   S126      1.0  0.51333  0.57519  0.13764  1.0000
  C   C320      1.0  0.42185  0.52729  0.14898  1.0000
  C   C321      1.0  0.43500  0.51560  0.13778  1.0000
  C   C322      1.0  0.46311  0.53033  0.13473  1.0000
  C   C323      1.0  0.46541  0.56804  0.15479  1.0000
  C   C324      1.0  0.43726  0.55346  0.15762  1.0000
  H   H514      1.0  0.34186  0.44365  0.21704  1.0000
  H   H515      1.0  0.47293  0.52130  0.12567  1.0000
  H   H516      1.0  0.42729  0.56251  0.16649  1.0000
  H   H517      1.0  0.62954  0.60497  0.12353  1.0000
  Fe  Fe67      1.0  0.34203  0.41485  0.17448  1.0000
  H   H518      1.0  0.46745  0.62566  0.15446  1.0000
  S   S127      1.0  0.35050  0.39807  0.20360  1.0000
  H   H519      1.0  0.47706  0.58799  0.16171  1.0000
  S   S128      1.0  0.33078  0.39005  0.09670  1.0000
  C   C325      1.0  0.34617  0.39514  0.24509  1.0000
  C   C326      1.0  0.47837  0.55674  0.14298  1.0000
  H   H520      1.0  0.55737  0.57799  0.10695  1.0000
  H   H521      1.0  0.33759  0.33782  0.02379  1.0000
  H   H522      1.0  0.45764  0.64574  0.09391  1.0000
  H   H523      1.0  0.57562  0.60625  0.12385  1.0000
  H   H524      1.0  0.39427  0.34512  0.01723  1.0000
  S   S129      1.0  0.33228  0.44945  0.17651  1.0000
  S   S130      1.0  0.63449  0.66184  0.12173  1.0000
  H   H525      1.0  0.38122  0.34919  0.04095  1.0000
  S   S131      1.0  0.38609  0.51119  0.15107  1.0000
  H   H526      1.0  0.42336  0.49551  0.13101  1.0000
  C   C327      1.0  0.61456  0.59342  0.13514  1.0000
  H   H527      1.0  0.61025  0.65445  0.22469  1.0000
  H   H528      1.0  0.48682  0.61126  0.12637  1.0000
  S   S132      1.0  0.55881  0.64780  0.12092  1.0000
  H   H529      1.0  0.56581  0.57505  0.15223  1.0000
  Fe  Fe68      1.0  0.54024  0.61958  0.14654  1.0000
  S   S133      1.0  0.58014  0.63198  0.16297  1.0000
  H   H530      1.0  0.57034  0.54090  0.10498  1.0000
  H   H531      1.0  0.57522  0.54828  0.15105  1.0000
  H   H532      1.0  0.62288  0.58213  0.14415  1.0000
  Fe  Fe69      1.0  0.33213  0.40905  0.12806  1.0000
  N   N33       1.0  0.58775  0.57503  0.12582  1.0000
  C   C328      1.0  0.59026  0.55503  0.11226  1.0000
  C   C329      1.0  0.56840  0.56060  0.14179  1.0000
  C   C330      1.0  0.57773  0.59107  0.11404  1.0000
  H   H533      1.0  0.59194  0.60259  0.10201  1.0000
  H   H534      1.0  0.60468  0.56528  0.10002  1.0000
  H   H535      1.0  0.61342  0.60888  0.14541  1.0000
  S   S134      1.0  0.53123  0.64915  0.16396  1.0000
  H   H536      1.0  0.48202  0.61875  0.10086  1.0000
  C   C331      1.0  0.46621  0.64084  0.14431  1.0000
  C   C332      1.0  0.43629  0.60562  0.12069  1.0000
  N   N34       1.0  0.46191  0.63123  0.12298  1.0000
  H   H537      1.0  0.43225  0.59793  0.10474  1.0000
  C   C333      1.0  0.57672  0.66086  0.23375  1.0000
  C   C334      1.0  0.34135  0.43196  0.22999  1.0000
  C   C335      1.0  0.59723  0.65335  0.23693  1.0000
  C   C336      1.0  0.56047  0.65996  0.24996  1.0000
  H   H538      1.0  0.44942  0.64469  0.14955  1.0000
  H   H539      1.0  0.62858  0.62407  0.00864  1.0000
  H   H540      1.0  0.48543  0.66018  0.14650  1.0000
  C   C337      1.0  0.33558  0.43926  0.24900  1.0000
  H   H541      1.0  0.33122  0.45627  0.25030  1.0000
  Fe  Fe70      1.0  0.59841  0.66187  0.13787  1.0000
  C   C338      1.0  0.44149  0.49988  0.30125  1.0000
  Fe  Fe71      1.0  0.37021  0.45306  0.35638  1.0000
  S   S135      1.0  0.35590  0.41327  0.33892  1.0000
  H   H542      1.0  0.50007  0.56580  0.35665  1.0000
  C   C339      1.0  0.34052  0.40255  0.26424  1.0000
  C   C340      1.0  0.44849  0.66062  0.34634  1.0000
  C   C341      1.0  0.40236  0.45566  0.30138  1.0000
  S   S136      1.0  0.54167  0.65650  0.32276  1.0000
  H   H543      1.0  0.38046  0.44324  0.29728  1.0000
  S   S137      1.0  0.34390  0.46634  0.33895  1.0000
  S   S138      1.0  0.41613  0.47926  0.35916  1.0000
  H   H544      1.0  0.44697  0.64036  0.34981  1.0000
  C   C342      1.0  0.60210  0.64621  0.25638  1.0000
  H   H545      1.0  0.42158  0.47483  0.26500  1.0000
  C   C343      1.0  0.56531  0.65281  0.26933  1.0000
  H   H546      1.0  0.44986  0.52152  0.29699  1.0000
  N   N35       1.0  0.41270  0.48395  0.29479  1.0000
  H   H547      1.0  0.44406  0.49968  0.31797  1.0000
  C   C344      1.0  0.41007  0.48412  0.27255  1.0000
  H   H548      1.0  0.40411  0.51752  0.29965  1.0000
  H   H549      1.0  0.45422  0.49151  0.29439  1.0000
  H   H550      1.0  0.65427  0.60704  0.48057  1.0000
  C   C345      1.0  0.65470  0.62615  0.48631  1.0000
  C   C346      1.0  0.46507  0.57256  0.35537  1.0000
  C   C347      1.0  0.43655  0.55989  0.35528  1.0000
  C   C348      1.0  0.42126  0.53142  0.35645  1.0000
  C   C349      1.0  0.43437  0.51527  0.35785  1.0000
  C   C350      1.0  0.46287  0.52791  0.35782  1.0000
  C   C351      1.0  0.47816  0.55637  0.35651  1.0000
  H   H551      1.0  0.47324  0.51564  0.35892  1.0000
  C   C352      1.0  0.39676  0.49607  0.30406  1.0000
  H   H552      1.0  0.43440  0.65761  0.33332  1.0000
  S   S139      1.0  0.48328  0.60858  0.35424  1.0000
  H   H553      1.0  0.42620  0.57219  0.35448  1.0000
  H   H554      1.0  0.39937  0.52204  0.35656  1.0000
  H   H555      1.0  0.39818  0.49601  0.32083  1.0000
  Fe  Fe72      1.0  0.57909  0.65170  0.32575  1.0000
  S   S140      1.0  0.33981  0.43423  0.38094  1.0000
  S   S141      1.0  0.59590  0.64152  0.29759  1.0000
  H   H556      1.0  0.63344  0.62295  0.48635  1.0000
  H   H557      1.0  0.61862  0.64139  0.25887  1.0000
  H   H558      1.0  0.49337  0.66373  0.36366  1.0000
  H   H559      1.0  0.37489  0.48456  0.29949  1.0000
  H   H560      1.0  0.55287  0.65268  0.28163  1.0000
  Fe  Fe73      1.0  0.52919  0.63457  0.35189  1.0000
  S   S142      1.0  0.56554  0.62694  0.35409  1.0000
  C   C353      1.0  0.66108  0.64441  0.45278  1.0000
  C   C354      1.0  0.33460  0.42434  0.26613  1.0000
  C   C355      1.0  0.58664  0.64662  0.27281  1.0000
  H   H561      1.0  0.40461  0.45491  0.31807  1.0000
  H   H562      1.0  0.48501  0.65036  0.32727  1.0000
  H   H563      1.0  0.41774  0.50516  0.26703  1.0000
  H   H564      1.0  0.41346  0.44559  0.29435  1.0000
  H   H565      1.0  0.33972  0.39079  0.27731  1.0000
  H   H566      1.0  0.64050  0.64303  0.45164  1.0000
  H   H567      1.0  0.38851  0.47236  0.26730  1.0000
  H   H568      1.0  0.65980  0.62529  0.44625  1.0000
  H   H569      1.0  0.33240  0.37813  0.41311  1.0000
  H   H570      1.0  0.66239  0.62953  0.50231  1.0000
  N   N36       1.0  0.47108  0.38652  0.58910  1.0000
  S   S143      1.0  0.58178  0.50594  0.64694  1.0000
  C   C356      1.0  0.45644  0.39135  0.57210  1.0000
  H   H571      1.0  0.46022  0.41285  0.57210  1.0000
  C   C357      1.0  0.46207  0.39298  0.60831  1.0000
  H   H572      1.0  0.43408  0.37826  0.57305  1.0000
  S   S144      1.0  0.64197  0.57620  0.65886  1.0000
  H   H573      1.0  0.46271  0.38673  0.55730  1.0000
  H   H574      1.0  0.65433  0.63342  0.65407  1.0000
  C   C358      1.0  0.64178  0.55897  0.73453  1.0000
  H   H575      1.0  0.43976  0.38082  0.60979  1.0000
  S   S145      1.0  0.41455  0.35505  0.71101  1.0000
  Fe  Fe74      1.0  0.46424  0.34987  0.65132  1.0000
  S   S146      1.0  0.43382  0.36535  0.65393  1.0000
  H   H576      1.0  0.46710  0.41480  0.60957  1.0000
  H   H577      1.0  0.46023  0.39439  0.69382  1.0000
  H   H578      1.0  0.48710  0.42637  0.68674  1.0000
  H   H579      1.0  0.53390  0.41471  0.69222  1.0000
  C   C359      1.0  0.46510  0.35768  0.58867  1.0000
  H   H580      1.0  0.49355  0.43776  0.72406  1.0000
  H   H581      1.0  0.49938  0.36869  0.70058  1.0000
  H   H582      1.0  0.48632  0.39515  0.67815  1.0000
  H   H583      1.0  0.53215  0.44394  0.70222  1.0000
  C   C360      1.0  0.52747  0.42264  0.70552  1.0000
  H   H584      1.0  0.50829  0.39959  0.57327  1.0000
  H   H585      1.0  0.44300  0.34396  0.59031  1.0000
  C   C361      1.0  0.50061  0.40398  0.58751  1.0000
  S   S147      1.0  0.65876  0.54280  0.62546  1.0000
  C   C362      1.0  0.49026  0.41674  0.72676  1.0000
  C   C363      1.0  0.56220  0.46999  0.64730  1.0000
  C   C364      1.0  0.57402  0.45261  0.64716  1.0000
  C   C365      1.0  0.55752  0.42417  0.64683  1.0000
  C   C366      1.0  0.52909  0.41274  0.64687  1.0000
  C   C367      1.0  0.51729  0.43014  0.64724  1.0000
  C   C368      1.0  0.53375  0.45854  0.64738  1.0000
  H   H586      1.0  0.59585  0.46108  0.64701  1.0000
  H   H587      1.0  0.56693  0.41097  0.64648  1.0000
  H   H588      1.0  0.49551  0.42190  0.64723  1.0000
  S   S148      1.0  0.50939  0.37670  0.64612  1.0000
  H   H589      1.0  0.52443  0.47182  0.64745  1.0000
  C   C369      1.0  0.48234  0.40543  0.69119  1.0000
  H   H590      1.0  0.47191  0.38841  0.62138  1.0000
  H   H591      1.0  0.63102  0.54993  0.72043  1.0000
  H   H592      1.0  0.47120  0.35188  0.57425  1.0000
  H   H593      1.0  0.46829  0.40407  0.72982  1.0000
  C   C370      1.0  0.49313  0.37758  0.71338  1.0000
  H   H594      1.0  0.50591  0.42592  0.58787  1.0000
  H   H595      1.0  0.54033  0.42320  0.71874  1.0000
  H   H596      1.0  0.50186  0.41721  0.74072  1.0000
  N   N37       1.0  0.49834  0.40563  0.70925  1.0000
  H   H597      1.0  0.47118  0.36405  0.71571  1.0000
  H   H598      1.0  0.50434  0.37679  0.72720  1.0000
  S   S149      1.0  0.65343  0.52651  0.67426  1.0000
  C   C371      1.0  0.42021  0.35470  0.75244  1.0000
  Fe  Fe75      1.0  0.62782  0.53213  0.64999  1.0000
  H   H599      1.0  0.47611  0.35342  0.60120  1.0000
  C   C372      1.0  0.41781  0.34070  0.73402  1.0000
  Fe  Fe76      1.0  0.41882  0.33785  0.68060  1.0000
  H   H600      1.0  0.51202  0.40079  0.60034  1.0000
  S   S150      1.0  0.38838  0.33456  0.60419  1.0000
  H   H601      1.0  0.41999  0.37405  0.75240  1.0000
  H   H602      1.0  0.65158  0.61869  0.68972  1.0000
  H   H603      1.0  0.64587  0.64656  0.69772  1.0000
  H   H604      1.0  0.64879  0.66140  0.66207  1.0000
  C   C373      1.0  0.66189  0.64055  0.69446  1.0000
  C   C374      1.0  0.62881  0.55003  0.75302  1.0000
  H   H605      1.0  0.60804  0.53418  0.75300  1.0000
  C   C375      1.0  0.63405  0.63676  0.99498  1.0000
  H   H606      1.0  0.42407  0.35445  0.78506  1.0000
  Fe  Fe77      1.0  0.46615  0.36617  0.85694  1.0000
  S   S151      1.0  0.42476  0.35089  0.84181  1.0000
  H   H607      1.0  0.59702  0.49345  0.78024  1.0000
  H   H608      1.0  0.60348  0.46491  0.78399  1.0000
  S   S152      1.0  0.49200  0.41228  0.85707  1.0000
  H   H609      1.0  0.62037  0.49507  0.79970  1.0000
  C   C376      1.0  0.55272  0.45219  0.79546  1.0000
  H   H610      1.0  0.54751  0.46360  0.78403  1.0000
  H   H611      1.0  0.55378  0.43487  0.78766  1.0000
  H   H612      1.0  0.60296  0.46731  0.83084  1.0000
  H   H613      1.0  0.55859  0.48497  0.82673  1.0000
  C   C377      1.0  0.58309  0.46441  0.87198  1.0000
  C   C378      1.0  0.57106  0.43600  0.87366  1.0000
  C   C379      1.0  0.54307  0.41964  0.86953  1.0000
  C   C380      1.0  0.52682  0.43165  0.86398  1.0000
  C   C381      1.0  0.53872  0.46011  0.86301  1.0000
  C   C382      1.0  0.56670  0.47641  0.86689  1.0000
  H   H614      1.0  0.58354  0.42653  0.87775  1.0000
  H   H615      1.0  0.53414  0.39778  0.87049  1.0000
  H   H616      1.0  0.52623  0.46959  0.85902  1.0000
  H   H617      1.0  0.58780  0.43780  0.81432  1.0000
  C   C383      1.0  0.58448  0.45419  0.82147  1.0000
  C   C384      1.0  0.57603  0.49259  0.81650  1.0000
  N   N38       1.0  0.57851  0.47005  0.80631  1.0000
  S   S153      1.0  0.61874  0.48402  0.87520  1.0000
  H   H618      1.0  0.59461  0.50574  0.82572  1.0000
  H   H619      1.0  0.57298  0.50589  0.80546  1.0000
  H   H620      1.0  0.57559  0.49825  0.86591  1.0000
  S   S154      1.0  0.62491  0.55073  0.79428  1.0000
  C   C385      1.0  0.64243  0.56172  0.77148  1.0000
  Fe  Fe78      1.0  0.64695  0.55834  0.82483  1.0000
  S   S155      1.0  0.44965  0.33925  0.88384  1.0000
  H   H621      1.0  0.53562  0.44345  0.80611  1.0000
  Fe  Fe79      1.0  0.64255  0.52638  0.86275  1.0000
  S   S156      1.0  0.62545  0.55439  0.85411  1.0000
  H   H622      1.0  0.56742  0.44428  0.83190  1.0000
  C   C386      1.0  0.60076  0.48123  0.79187  1.0000
  S   S157      1.0  0.66181  0.52849  0.83288  1.0000
  S   S158      1.0  0.47628  0.33712  0.83951  1.0000
  C   C387      1.0  0.42251  0.34363  0.77098  1.0000
  H   H623      1.0  0.62957  0.62292  0.98153  1.0000
  H   H624      1.0  0.34964  0.33240  0.99996  1.0000
  H   H625      1.0  0.62040  0.64633  0.99397  1.0000
  N   N39       1.0  0.66283  0.65751  0.99593  1.0000
  H   H626      1.0  0.62673  0.98231  0.02070  1.0000
  H   H627      1.0  0.36057  0.98934  0.10390  1.0000
  Fe  Fe80      1.0  0.37203  0.90187  0.14460  1.0000
  S   S159      1.0  0.41691  0.92260  0.13720  1.0000
  S   S160      1.0  0.35948  0.92847  0.16278  1.0000
  C   C388      1.0  0.47020  0.87932  0.13749  1.0000
  C   C389      1.0  0.44207  0.86445  0.13996  1.0000
  C   C390      1.0  0.42558  0.87746  0.14020  1.0000
  C   C391      1.0  0.43701  0.90550  0.13764  1.0000
  C   C392      1.0  0.46515  0.92041  0.13510  1.0000
  C   C393      1.0  0.48169  0.90742  0.13506  1.0000
  H   H628      1.0  0.43295  0.84268  0.14167  1.0000
  H   H629      1.0  0.40395  0.86570  0.14202  1.0000
  H   H630      1.0  0.47414  0.94207  0.13291  1.0000
  C   C394      1.0  0.37912  0.95250  0.10091  1.0000
  H   H631      1.0  0.46771  0.88854  0.17916  1.0000
  H   H632      1.0  0.51526  0.90435  0.16694  1.0000
  H   H633      1.0  0.56496  0.85683  0.25162  1.0000
  C   C395      1.0  0.65147  0.68134  0.10050  1.0000
  H   H634      1.0  0.34008  0.93395  0.22621  1.0000
  S   S161      1.0  0.33829  0.88956  0.12115  1.0000
  H   H635      1.0  0.42375  0.99101  0.08451  1.0000
  S   S162      1.0  0.48987  0.86175  0.13756  1.0000
  H   H636      1.0  0.40309  0.97080  0.13717  1.0000
  C   C396      1.0  0.52150  0.92177  0.17779  1.0000
  H   H637      1.0  0.57548  0.79737  0.10973  1.0000
  C   C397      1.0  0.33715  0.89635  0.23693  1.0000
  H   H638      1.0  0.63257  0.85446  0.13749  1.0000
  C   C398      1.0  0.51517  0.93701  0.21050  1.0000
  H   H639      1.0  0.54323  0.92886  0.18180  1.0000
  H   H640      1.0  0.47957  0.67174  0.11166  1.0000
  H   H641      1.0  0.51496  0.95519  0.20383  1.0000
  C   C399      1.0  0.58823  0.93379  0.24737  1.0000
  S   S163      1.0  0.58684  0.93277  0.20556  1.0000
  C   C400      1.0  0.65708  0.71367  0.07425  1.0000
  Fe  Fe81      1.0  0.55348  0.67867  0.13995  1.0000
  H   H642      1.0  0.46295  0.90085  0.20313  1.0000
  H   H643      1.0  0.47465  0.92323  0.18215  1.0000
  H   H644      1.0  0.65044  0.72703  0.06714  1.0000
  H   H645      1.0  0.59290  0.78149  0.12248  1.0000
  H   H646      1.0  0.52006  0.93848  0.16972  1.0000
  H   H647      1.0  0.53656  0.94292  0.21525  1.0000
  Fe  Fe82      1.0  0.53488  0.87696  0.14484  1.0000
  S   S164      1.0  0.57032  0.91905  0.14561  1.0000
  H   H648      1.0  0.50320  0.91902  0.13266  1.0000
  Fe  Fe83      1.0  0.56963  0.85160  0.16129  1.0000
  S   S165      1.0  0.60727  0.89176  0.16362  1.0000
  S   S166      1.0  0.57314  0.81595  0.17407  1.0000
  Fe  Fe84      1.0  0.57982  0.90743  0.17642  1.0000
  Fe  Fe85      1.0  0.59493  0.89955  0.13273  1.0000
  S   S167      1.0  0.62181  0.90640  0.10498  1.0000
  S   S168      1.0  0.54331  0.86677  0.17594  1.0000
  S   S169      1.0  0.55833  0.85798  0.13001  1.0000
  H   H649      1.0  0.59652  0.83505  0.13502  1.0000
  H   H650      1.0  0.59506  0.95538  0.24621  1.0000
  S   S170      1.0  0.53546  0.70403  0.12646  1.0000
  S   S171      1.0  0.59464  0.69520  0.15514  1.0000
  C   C401      1.0  0.61913  0.84168  0.09848  1.0000
  C   C402      1.0  0.64844  0.93363  0.09228  1.0000
  H   H651      1.0  0.38090  0.99545  0.08209  1.0000
  H   H652      1.0  0.61143  0.74471  0.24875  1.0000
  S   S172      1.0  0.34852  0.86557  0.16331  1.0000
  H   H653      1.0  0.37829  0.95026  0.08416  1.0000
  C   C403      1.0  0.34083  0.92293  0.23931  1.0000
  C   C404      1.0  0.56048  0.78431  0.16123  1.0000
  C   C405      1.0  0.56816  0.76525  0.16843  1.0000
  C   C406      1.0  0.55997  0.74039  0.15806  1.0000
  C   C407      1.0  0.54408  0.73438  0.14034  1.0000
  C   C408      1.0  0.53572  0.75311  0.13335  1.0000
  C   C409      1.0  0.54394  0.77811  0.14378  1.0000
  H   H654      1.0  0.58068  0.76980  0.18205  1.0000
  H   H655      1.0  0.56600  0.72590  0.16387  1.0000
  H   H656      1.0  0.53764  0.79260  0.13829  1.0000
  H   H657      1.0  0.50287  0.93197  0.22429  1.0000
  H   H658      1.0  0.61569  0.82042  0.14668  1.0000
  C   C410      1.0  0.64311  0.69863  0.09102  1.0000
  H   H659      1.0  0.62593  0.70049  0.09666  1.0000
  H   H660      1.0  0.52317  0.74845  0.11975  1.0000
  N   N40       1.0  0.50463  0.91388  0.19583  1.0000
  C   C411      1.0  0.50578  0.89038  0.20507  1.0000
  H   H661      1.0  0.52701  0.89518  0.20935  1.0000
  N   N41       1.0  0.61829  0.82287  0.11432  1.0000
  C   C412      1.0  0.61576  0.83369  0.13422  1.0000
  H   H662      1.0  0.65429  0.96536  0.11381  1.0000
  C   C413      1.0  0.57453  0.88988  0.23136  1.0000
  H   H663      1.0  0.43267  0.98044  0.10774  1.0000
  C   C414      1.0  0.42279  0.99216  0.10123  1.0000
  C   C415      1.0  0.47627  0.90636  0.18988  1.0000
  H   H664      1.0  0.62041  0.83399  0.08316  1.0000
  Fe  Fe86      1.0  0.33363  0.89122  0.18026  1.0000
  H   H665      1.0  0.64311  0.80580  0.12598  1.0000
  H   H666      1.0  0.38826  0.93999  0.10712  1.0000
  C   C416      1.0  0.64344  0.82016  0.11427  1.0000
  C   C417      1.0  0.39415  0.98295  0.13000  1.0000
  H   H667      1.0  0.63678  0.86218  0.10089  1.0000
  H   H668      1.0  0.49357  0.88398  0.21888  1.0000
  H   H669      1.0  0.35791  0.94356  0.10598  1.0000
  H   H670      1.0  0.57065  0.87718  0.21793  1.0000
  H   H671      1.0  0.49780  0.87252  0.19437  1.0000
  N   N42       1.0  0.39450  0.98120  0.10773  1.0000
  C   C418      1.0  0.33810  0.88233  0.25413  1.0000
  C   C419      1.0  0.58306  0.91769  0.22961  1.0000
  C   C420      1.0  0.38181  0.99697  0.09888  1.0000
  S   S173      1.0  0.57482  0.67743  0.21159  1.0000
  H   H672      1.0  0.37303  0.97504  0.13535  1.0000
  C   C421      1.0  0.57140  0.87837  0.25055  1.0000
  H   H673      1.0  0.59629  0.78665  0.09578  1.0000
  H   H674      1.0  0.64612  0.81219  0.09942  1.0000
  C   C422      1.0  0.66099  0.96046  0.09983  1.0000
  H   H675      1.0  0.60066  0.84467  0.09856  1.0000
  C   C423      1.0  0.59475  0.79593  0.11038  1.0000
  H   H676      1.0  0.66158  0.84004  0.11753  1.0000
  C   C424      1.0  0.65758  0.92783  0.07403  1.0000
  H   H677      1.0  0.64794  0.90723  0.06792  1.0000
  H   H678      1.0  0.33543  0.86184  0.25247  1.0000
  H   H679      1.0  0.65570  0.68642  0.01356  1.0000
  H   H680      1.0  0.54454  0.66566  0.24763  1.0000
  C   C425      1.0  0.51081  0.90176  0.27462  1.0000
  H   H681      1.0  0.61535  0.70142  0.28942  1.0000
  H   H682      1.0  0.59844  0.85757  0.41441  1.0000
  S   S174      1.0  0.34850  0.93570  0.30053  1.0000
  C   C426      1.0  0.62019  0.83551  0.38925  1.0000
  Fe  Fe87      1.0  0.36116  0.87869  0.35541  1.0000
  S   S175      1.0  0.39080  0.86167  0.36091  1.0000
  S   S176      1.0  0.37052  0.92261  0.35663  1.0000
  C   C427      1.0  0.48400  0.90765  0.35974  1.0000
  C   C428      1.0  0.42661  0.87985  0.35971  1.0000
  C   C429      1.0  0.44183  0.86570  0.36196  1.0000
  C   C430      1.0  0.47038  0.87948  0.36186  1.0000
  C   C431      1.0  0.46878  0.92179  0.35743  1.0000
  C   C432      1.0  0.44022  0.90797  0.35729  1.0000
  H   H683      1.0  0.43148  0.84395  0.36388  1.0000
  H   H684      1.0  0.48182  0.86834  0.36373  1.0000
  H   H685      1.0  0.47916  0.94360  0.35579  1.0000
  H   H686      1.0  0.42878  0.91912  0.35551  1.0000
  S   S177      1.0  0.60684  0.67707  0.40276  1.0000
  H   H687      1.0  0.61196  0.76494  0.30279  1.0000
  N   N43       1.0  0.47664  0.68038  0.34182  1.0000
  C   C433      1.0  0.62040  0.75060  0.29987  1.0000
  C   C434      1.0  0.58041  0.72061  0.28024  1.0000
  H   H688      1.0  0.42787  0.89365  0.42960  1.0000
  S   S178      1.0  0.33279  0.92439  0.40748  1.0000
  H   H689      1.0  0.51594  0.69773  0.35639  1.0000
  C   C435      1.0  0.47821  0.70702  0.33725  1.0000
  H   H690      1.0  0.38157  0.89811  0.39100  1.0000
  H   H691      1.0  0.36778  0.90605  0.43428  1.0000
  H   H692      1.0  0.65131  0.67300  0.48101  1.0000
  N   N44       1.0  0.61031  0.73584  0.28029  1.0000
  H   H693      1.0  0.60866  0.87738  0.39224  1.0000
  H   H694      1.0  0.34659  0.87901  0.41726  1.0000
  C   C436      1.0  0.61643  0.87229  0.40622  1.0000
  H   H695      1.0  0.47263  0.90959  0.29419  1.0000
  H   H696      1.0  0.49007  0.88904  0.26807  1.0000
  C   C437      1.0  0.36341  0.88536  0.42874  1.0000
  H   H697      1.0  0.52049  0.92095  0.26616  1.0000
  H   H698      1.0  0.52284  0.89069  0.27184  1.0000
  H   H699      1.0  0.35564  0.87128  0.44153  1.0000
  N   N45       1.0  0.38761  0.88521  0.42007  1.0000
  C   C438      1.0  0.34488  0.93502  0.25884  1.0000
  H   H700      1.0  0.49759  0.88462  0.32363  1.0000
  H   H701      1.0  0.48878  0.69173  0.37300  1.0000
  C   C439      1.0  0.39719  0.90438  0.40332  1.0000
  H   H702      1.0  0.41569  0.90515  0.39657  1.0000
  H   H703      1.0  0.37347  0.84248  0.42457  1.0000
  C   C440      1.0  0.40936  0.89360  0.43577  1.0000
  H   H704      1.0  0.54852  0.94344  0.29623  1.0000
  C   C441      1.0  0.38055  0.85755  0.41236  1.0000
  H   H705      1.0  0.62872  0.84028  0.42951  1.0000
  N   N46       1.0  0.63500  0.86092  0.40142  1.0000
  H   H706      1.0  0.64289  0.76239  0.30052  1.0000
  H   H707      1.0  0.41526  0.91445  0.44180  1.0000
  Fe  Fe88      1.0  0.57586  0.89043  0.32551  1.0000
  S   S179      1.0  0.53671  0.86765  0.34169  1.0000
  S   S180      1.0  0.57215  0.87819  0.29197  1.0000
  Fe  Fe89      1.0  0.60734  0.91758  0.36594  1.0000
  S   S181      1.0  0.56967  0.89774  0.38402  1.0000
  S   S182      1.0  0.65038  0.93978  0.37998  1.0000
  Fe  Fe90      1.0  0.56135  0.86024  0.36553  1.0000
  S   S183      1.0  0.55153  0.82128  0.38149  1.0000
  Fe  Fe91      1.0  0.54852  0.90714  0.35827  1.0000
  S   S184      1.0  0.51989  0.92602  0.35980  1.0000
  S   S185      1.0  0.59950  0.87950  0.34828  1.0000
  S   S186      1.0  0.58723  0.93054  0.34135  1.0000
  C   C442      1.0  0.65399  0.96195  0.43972  1.0000
  Fe  Fe92      1.0  0.56440  0.69462  0.34145  1.0000
  S   S187      1.0  0.60319  0.69163  0.34269  1.0000
  S   S188      1.0  0.56162  0.73070  0.32847  1.0000
  H   H708      1.0  0.65679  0.87396  0.42992  1.0000
  H   H709      1.0  0.47623  0.86822  0.30190  1.0000
  C   C443      1.0  0.62160  0.71671  0.27731  1.0000
  H   H710      1.0  0.62344  0.94725  0.41555  1.0000
  C   C444      1.0  0.55450  0.79616  0.36681  1.0000
  C   C445      1.0  0.55763  0.79873  0.34596  1.0000
  C   C446      1.0  0.55995  0.77853  0.33446  1.0000
  C   C447      1.0  0.55965  0.75589  0.34375  1.0000
  C   C448      1.0  0.55697  0.75350  0.36468  1.0000
  C   C449      1.0  0.55413  0.77349  0.37615  1.0000
  H   H711      1.0  0.55795  0.81614  0.33862  1.0000
  H   H712      1.0  0.56200  0.78052  0.31827  1.0000
  H   H713      1.0  0.55704  0.73628  0.37203  1.0000
  H   H714      1.0  0.55185  0.77148  0.39231  1.0000
  H   H715      1.0  0.47180  0.71537  0.35026  1.0000
  C   C450      1.0  0.57692  0.89443  0.26832  1.0000
  C   C451      1.0  0.58533  0.92229  0.26664  1.0000
  H   H716      1.0  0.59012  0.93505  0.28011  1.0000
  C   C452      1.0  0.64410  0.95234  0.41988  1.0000
  H   H717      1.0  0.62676  0.89134  0.41559  1.0000
  C   C453      1.0  0.64550  0.85515  0.42040  1.0000
  H   H718      1.0  0.49938  0.72224  0.33387  1.0000
  N   N47       1.0  0.51007  0.90721  0.29644  1.0000
  C   C454      1.0  0.61874  0.75537  0.26373  1.0000
  H   H719      1.0  0.39822  0.85684  0.40528  1.0000
  H   H720      1.0  0.60263  0.82015  0.39747  1.0000
  H   H721      1.0  0.64413  0.72738  0.27744  1.0000
  H   H722      1.0  0.50281  0.94161  0.29218  1.0000
  H   H723      1.0  0.49323  0.92606  0.31624  1.0000
  C   C455      1.0  0.64606  0.70396  0.43234  1.0000
  S   S189      1.0  0.33547  0.86853  0.32699  1.0000
  Fe  Fe93      1.0  0.58707  0.66771  0.37091  1.0000
  H   H724      1.0  0.57125  0.73423  0.28352  1.0000
  H   H725      1.0  0.64072  0.96414  0.45049  1.0000
  H   H726      1.0  0.53825  0.92949  0.32064  1.0000
  H   H727      1.0  0.62972  0.70445  0.44061  1.0000
  H   H728      1.0  0.46512  0.70553  0.32392  1.0000
  H   H729      1.0  0.61189  0.83917  0.37486  1.0000
  C   C456      1.0  0.34545  0.92076  0.27607  1.0000
  H   H730      1.0  0.57334  0.70475  0.29192  1.0000
  H   H731      1.0  0.64119  0.76730  0.26330  1.0000
  H   H732      1.0  0.40287  0.87958  0.44867  1.0000
  C   C457      1.0  0.64085  0.69261  0.41261  1.0000
  H   H733      1.0  0.40187  0.92534  0.40830  1.0000
  C   C458      1.0  0.53801  0.92410  0.30440  1.0000
  C   C459      1.0  0.49764  0.88119  0.30703  1.0000
  H   H734      1.0  0.36412  0.85054  0.40049  1.0000
  C   C460      1.0  0.49396  0.92176  0.29982  1.0000
  H   H735      1.0  0.63346  0.82623  0.38534  1.0000
  H   H736      1.0  0.50892  0.86936  0.30439  1.0000
  H   H737      1.0  0.55035  0.91321  0.30305  1.0000
  H   H738      1.0  0.61426  0.73630  0.31262  1.0000
  Fe  Fe94      1.0  0.34223  0.91142  0.32918  1.0000
  C   C461      1.0  0.65783  0.88078  0.38982  1.0000
  S   S190      1.0  0.54951  0.67349  0.37048  1.0000
  H   H739      1.0  0.61036  0.76997  0.26543  1.0000
  Fe  Fe95      1.0  0.33287  0.90855  0.37528  1.0000
  C   C462      1.0  0.34254  0.89454  0.27351  1.0000
  H   H740      1.0  0.34729  0.95542  0.26060  1.0000
  H   H741      1.0  0.61452  0.70533  0.26261  1.0000
  H   H742      1.0  0.33128  0.97922  0.48200  1.0000
  H   H743      1.0  0.57202  0.71036  0.26535  1.0000
  C   C463      1.0  0.49445  0.68354  0.35951  1.0000
  H   H744      1.0  0.65055  0.88580  0.37550  1.0000
  H   H745      1.0  0.34343  0.88345  0.28645  1.0000
  H   H746      1.0  0.65859  0.68348  0.38696  1.0000
  H   H747      1.0  0.50681  0.68474  0.32039  1.0000
  H   H748      1.0  0.47255  0.66745  0.31060  1.0000
  H   H749      1.0  0.65957  0.84650  0.41737  1.0000
  C   C464      1.0  0.66121  0.95022  0.40557  1.0000
  C   C465      1.0  0.48562  0.67030  0.32423  1.0000
  H   H750      1.0  0.44111  0.66741  0.35966  1.0000
  C   C466      1.0  0.66225  0.69229  0.40208  1.0000
  H   H751      1.0  0.35689  0.99799  0.45181  1.0000
  H   H752      1.0  0.36363  0.97331  0.98054  1.0000
  H   H753      1.0  0.35123  0.98755  0.94776  1.0000
  H   H754      1.0  0.34152  0.93821  0.97401  1.0000
  C   C467      1.0  0.34235  0.95687  0.98108  1.0000
  C   C468      1.0  0.33058  0.97021  0.94931  1.0000
  H   H755      1.0  0.63019  0.98131  0.98315  1.0000
  H   H756      1.0  0.57457  0.99283  0.79250  1.0000
  H   H757      1.0  0.33730  0.95269  0.99730  1.0000
  H   H758      1.0  0.64565  0.95455  0.00471  1.0000
  H   H759      1.0  0.65650  0.68463  0.97621  1.0000
  H   H760      1.0  0.66292  0.99751  0.97200  1.0000
  H   H761      1.0  0.32997  0.95218  0.94134  1.0000
  C   C469      1.0  0.65092  0.99871  0.98494  1.0000
  C   C470      1.0  0.90329  0.15063  0.01626  1.0000
  H   H762      1.0  0.92440  0.23870  0.03151  1.0000
  H   H763      1.0  0.90656  0.21756  0.05177  1.0000
  H   H764      1.0  0.97816  0.25239  0.07038  1.0000
  H   H765      1.0  0.94884  0.21984  0.06565  1.0000
  Fe  Fe96      1.0  0.74355  0.99962  0.03196  1.0000
  H   H766      1.0  0.91962  0.26456  0.08268  1.0000
  S   S191      1.0  0.71918  0.00181  0.05880  1.0000
  H   H767      1.0  0.97544  0.29480  0.06412  1.0000
  C   C471      1.0  0.85934  0.11086  0.02241  1.0000
  H   H768      1.0  0.95057  0.26599  0.09244  1.0000
  H   H769      1.0  0.96473  0.28338  0.03863  1.0000
  H   H770      1.0  0.92142  0.23364  0.08742  1.0000
  C   C472      1.0  0.91817  0.23916  0.04735  1.0000
  H   H771      1.0  0.94461  0.29336  0.05413  1.0000
  C   C473      1.0  0.86315  0.09614  0.00655  1.0000
  Fe  Fe97      1.0  0.79691  0.02779  0.00817  1.0000
  C   C474      1.0  0.95726  0.28270  0.05420  1.0000
  C   C475      1.0  0.93296  0.25465  0.08181  1.0000
  Fe  Fe98      1.0  0.96866  0.21454  0.00969  1.0000
  C   C476      1.0  0.95962  0.24123  0.06063  1.0000
  N   N48       1.0  0.94197  0.25445  0.06100  1.0000
  S   S192      1.0  0.92794  0.18471  0.02332  1.0000
  C   C477      1.0  0.87927  0.13782  0.02722  1.0000
  H   H772      1.0  0.90415  0.24830  0.04728  1.0000
  H   H773      1.0  0.87610  0.14876  0.03964  1.0000
  H   H774      1.0  0.84118  0.10143  0.03111  1.0000
  H   H775      1.0  0.70184  0.02169  0.02056  1.0000
  C   C478      1.0  0.69129  0.02160  0.00607  1.0000
  H   H776      1.0  0.69196  0.00164  0.09542  1.0000
  H   H777      1.0  0.96622  0.24038  0.04507  1.0000
  S   S193      1.0  0.75835  0.03162  0.00799  1.0000
  H   H778      1.0  0.69055  0.04123  0.00538  1.0000
  S   S194      1.0  0.78377  0.99906  0.03429  1.0000
  H   H779      1.0  0.85055  0.13324  0.47546  1.0000
  H   H780      1.0  0.73815  0.07833  0.46125  1.0000
  H   H781      1.0  0.73007  0.03860  0.41344  1.0000
  H   H782      1.0  0.72867  0.04439  0.46908  1.0000
  H   H783      1.0  0.71884  0.05984  0.42678  1.0000
  C   C479      1.0  0.86396  0.12769  0.48388  1.0000
  H   H784      1.0  0.79169  0.08855  0.44263  1.0000
  C   C480      1.0  0.90937  0.14033  0.49770  1.0000
  S   S195      1.0  0.96255  0.24282  0.48925  1.0000
  C   C481      1.0  0.89144  0.14720  0.48722  1.0000
  H   H785      1.0  0.77809  0.07550  0.41773  1.0000
  C   C482      1.0  0.85373  0.10114  0.49123  1.0000
  C   C483      1.0  0.74503  0.06252  0.46201  1.0000
  H   H786      1.0  0.95257  0.28072  0.46448  1.0000
  C   C484      1.0  0.94748  0.29452  0.47380  1.0000
  H   H787      1.0  0.76482  0.02850  0.42876  1.0000
  S   S196      1.0  0.81898  0.07702  0.48568  1.0000
  H   H788      1.0  0.76662  0.09634  0.43132  1.0000
  C   C485      1.0  0.72640  0.04467  0.42870  1.0000
  H   H789      1.0  0.92800  0.29273  0.46768  1.0000
  H   H790      1.0  0.97956  0.31843  0.44300  1.0000
  H   H791      1.0  0.74475  0.01619  0.45072  1.0000
  H   H792      1.0  0.70971  0.02625  0.43525  1.0000
  H   H793      1.0  0.77930  0.04238  0.45330  1.0000
  N   N49       1.0  0.75115  0.05554  0.44180  1.0000
  C   C486      1.0  0.77281  0.08009  0.43293  1.0000
  C   C487      1.0  0.76044  0.03474  0.44370  1.0000
  H   H794      1.0  0.76324  0.07043  0.47236  1.0000
  H   H795      1.0  0.89884  0.16738  0.48134  1.0000
  H   H796      1.0  0.99138  0.16423  0.48197  1.0000
  Fe  Fe99      1.0  0.79020  0.03519  0.49845  1.0000
  Fe  Fe100     1.0  0.97229  0.20968  0.49876  1.0000
  N   N50       1.0  0.96939  0.32281  0.47350  1.0000
  H   H797      1.0  0.94402  0.28674  0.48946  1.0000
  H   H798      1.0  0.99221  0.31862  0.49849  1.0000
  C   C488      1.0  0.99451  0.32418  0.48234  1.0000
  S   S197      1.0  0.94485  0.16339  0.50126  1.0000
  C   C489      1.0  0.87155  0.09443  0.50201  1.0000
  H   H799      1.0  0.98934  0.11416  0.50212  1.0000
  H   H800      1.0  0.95566  0.33145  0.44526  1.0000
  C   C490      1.0  0.97406  0.33186  0.45240  1.0000
  C   C491      1.0  0.89913  0.11378  0.50505  1.0000
  H   H801      1.0  0.80820  0.24725  0.68669  1.0000
  C   C492      1.0  0.72922  0.03599  0.59973  1.0000
  C   C493      1.0  0.72647  0.03056  0.57874  1.0000
  C   C494      1.0  0.70744  0.03524  0.56773  1.0000
  C   C495      1.0  0.69114  0.04480  0.57766  1.0000
  H   H802      1.0  0.70494  0.03106  0.55162  1.0000
  S   S198      1.0  0.94730  0.31241  0.62429  1.0000
  C   C496      1.0  0.69382  0.05013  0.59866  1.0000
  H   H803      1.0  0.73922  0.10122  0.58681  1.0000
  H   H804      1.0  0.74999  0.15966  0.62026  1.0000
  S   S199      1.0  0.99377  0.23196  0.52772  1.0000
  Fe  Fe101     1.0  0.89550  0.32526  0.67975  1.0000
  S   S200      1.0  0.68716  0.12820  0.63459  1.0000
  S   S201      1.0  0.67857  0.13666  0.68234  1.0000
  C   C497      1.0  0.79558  0.28900  0.68732  1.0000
  Fe  Fe102     1.0  0.71201  0.13779  0.66324  1.0000
  S   S202      1.0  0.70255  0.09431  0.66848  1.0000
  H   H805      1.0  0.77132  0.24294  0.70783  1.0000
  H   H806      1.0  0.95039  0.31059  0.71354  1.0000
  H   H807      1.0  0.75827  0.09789  0.62896  1.0000
  H   H808      1.0  0.73441  0.20184  0.64986  1.0000
  H   H809      1.0  0.71498  0.04904  0.62584  1.0000
  H   H810      1.0  0.84374  0.31863  0.70674  1.0000
  C   C498      1.0  0.71305  0.04570  0.60964  1.0000
  H   H811      1.0  0.72753  0.09987  0.62351  1.0000
  H   H812      1.0  0.75920  0.16254  0.59425  1.0000
  C   C499      1.0  0.74934  0.14777  0.60638  1.0000
  C   C500      1.0  0.93863  0.31155  0.58256  1.0000
  C   C501      1.0  0.76078  0.11467  0.59140  1.0000
  C   C502      1.0  0.96384  0.32504  0.70228  1.0000
  H   H813      1.0  0.77071  0.12798  0.57851  1.0000
  H   H814      1.0  0.97067  0.28041  0.70475  1.0000
  C   C503      1.0  0.68980  0.07858  0.74273  1.0000
  C   C504      1.0  0.95996  0.29451  0.55793  1.0000
  C   C505      1.0  0.97228  0.28780  0.57395  1.0000
  S   S203      1.0  0.96558  0.28949  0.53211  1.0000
  H   H815      1.0  0.79385  0.16085  0.62946  1.0000
  C   C506      1.0  0.98346  0.29569  0.69371  1.0000
  C   C507      1.0  0.94313  0.30640  0.56240  1.0000
  H   H816      1.0  0.81681  0.31528  0.72277  1.0000
  H   H817      1.0  0.75221  0.12350  0.64109  1.0000
  H   H818      1.0  0.92570  0.32078  0.58568  1.0000
  C   C508      1.0  0.96806  0.29327  0.59411  1.0000
  H   H819      1.0  0.77046  0.10126  0.59360  1.0000
  Fe  Fe103     1.0  0.91733  0.32599  0.63686  1.0000
  H   H820      1.0  0.83771  0.27939  0.68412  1.0000
  C   C509      1.0  0.89362  0.30815  0.75176  1.0000
  C   C510      1.0  0.95123  0.30519  0.59857  1.0000
  H   H821      1.0  0.77473  0.27101  0.72361  1.0000
  H   H822      1.0  0.72763  0.13512  0.60181  1.0000
  C   C511      1.0  0.75623  0.21232  0.64868  1.0000
  H   H823      1.0  0.92965  0.27651  0.68594  1.0000
  C   C512      1.0  0.98713  0.33062  0.67087  1.0000
  S   S204      1.0  0.89115  0.30592  0.71040  1.0000
  Fe  Fe104     1.0  0.85837  0.31371  0.64248  1.0000
  S   S205      1.0  0.81376  0.28778  0.63412  1.0000
  S   S206      1.0  0.88313  0.29464  0.65417  1.0000
  C   C513      1.0  0.79766  0.25321  0.64071  1.0000
  C   C514      1.0  0.81276  0.23985  0.64581  1.0000
  C   C515      1.0  0.79984  0.21326  0.65290  1.0000
  C   C516      1.0  0.77163  0.19958  0.65467  1.0000
  H   H824      1.0  0.81123  0.30298  0.67702  1.0000
  C   C517      1.0  0.76926  0.23911  0.64170  1.0000
  H   H825      1.0  0.83442  0.24997  0.64440  1.0000
  H   H826      1.0  0.81187  0.20344  0.65732  1.0000
  N   N51       1.0  0.96961  0.31072  0.68556  1.0000
  H   H827      1.0  0.67624  0.04792  0.56898  1.0000
  H   H828      1.0  0.93349  0.30232  0.66858  1.0000
  C   C518      1.0  0.74968  0.11217  0.62658  1.0000
  H   H829      1.0  0.79470  0.25399  0.72913  1.0000
  C   C519      1.0  0.79175  0.14842  0.61553  1.0000
  S   S207      1.0  0.79319  0.01354  0.52608  1.0000
  H   H830      1.0  0.98807  0.28467  0.68144  1.0000
  H   H831      1.0  0.83332  0.26083  0.70679  1.0000
  H   H832      1.0  0.75736  0.24917  0.63751  1.0000
  C   C520      1.0  0.94389  0.29141  0.67532  1.0000
  S   S208      1.0  0.74686  0.01739  0.56728  1.0000
  C   C521      1.0  0.99213  0.13204  0.51157  1.0000
  H   H833      1.0  0.80257  0.13625  0.61851  1.0000
  C   C522      1.0  0.78616  0.26120  0.71669  1.0000
  H   H834      1.0  0.99131  0.32038  0.65780  1.0000
  H   H835      1.0  0.80245  0.16276  0.60334  1.0000
  H   H836      1.0  0.97798  0.28831  0.60632  1.0000
  Fe  Fe105     1.0  0.67592  0.08460  0.64036  1.0000
  S   S209      1.0  0.75693  0.16709  0.66519  1.0000
  H   H837      1.0  0.69816  0.07292  0.72998  1.0000
  C   C523      1.0  0.82698  0.30410  0.71600  1.0000
  C   C524      1.0  0.82236  0.26627  0.69497  1.0000
  H   H838      1.0  0.83670  0.29818  0.72847  1.0000
  Fe  Fe106     1.0  0.98578  0.26605  0.51736  1.0000
  H   H839      1.0  0.78459  0.29982  0.69329  1.0000
  N   N52       1.0  0.76291  0.13076  0.60995  1.0000
  N   N53       1.0  0.80778  0.28018  0.70375  1.0000
  H   H840      1.0  0.74368  0.03223  0.60845  1.0000
  H   H841      1.0  0.78097  0.27142  0.67781  1.0000
  H   H842      1.0  0.98536  0.27875  0.57080  1.0000
  C   C525      1.0  0.90440  0.32249  0.73409  1.0000
  S   S210      1.0  0.67229  0.06172  0.61036  1.0000
  Fe  Fe107     1.0  0.75188  0.00877  0.53393  1.0000
  H   H843      1.0  0.97278  0.13334  0.51047  1.0000
  Fe  Fe108     1.0  0.66729  0.09259  0.68593  1.0000
  H   H844      1.0  0.93349  0.31171  0.55019  1.0000
  H   H845      1.0  0.86422  0.07415  0.50769  1.0000
  H   H846      1.0  0.91265  0.10805  0.51313  1.0000
  S   S211      1.0  0.74998  0.03217  0.50728  1.0000
  H   H847      1.0  0.94731  0.28005  0.66264  1.0000
  H   H848      1.0  0.87699  0.28775  0.75064  1.0000
  H   H849      1.0  0.99499  0.12794  0.52758  1.0000
  C   C526      1.0  0.66711  0.08277  0.73977  1.0000
  H   H850      1.0  0.71723  0.07517  0.76453  1.0000
  C   C527      1.0  0.68896  0.08557  0.77922  1.0000
  H   H851      1.0  0.77222  0.16198  0.77144  1.0000
  S   S212      1.0  0.83895  0.06184  0.99970  1.0000
  H   H852      1.0  0.78866  0.02961  0.91999  1.0000
  S   S213      1.0  0.70157  0.08425  0.80373  1.0000
  H   H853      1.0  0.75300  0.13139  0.81108  1.0000
  N   N54       1.0  0.75490  0.16777  0.79869  1.0000
  H   H854      1.0  0.97306  0.26489  0.89996  1.0000
  C   C528      1.0  0.72793  0.16213  0.80594  1.0000
  H   H855      1.0  0.76940  0.04610  0.92825  1.0000
  H   H856      1.0  0.76532  0.20855  0.79012  1.0000
  H   H857      1.0  0.84009  0.10098  0.93345  1.0000
  Fe  Fe109     1.0  0.68865  0.09622  0.83303  1.0000
  S   S214      1.0  0.67287  0.12206  0.88350  1.0000
  Fe  Fe110     1.0  0.69402  0.09605  0.87987  1.0000
  H   H858      1.0  0.74290  0.16718  0.76755  1.0000
  S   S215      1.0  0.71540  0.09060  0.90820  1.0000
  Fe  Fe111     1.0  0.69876  0.14637  0.85820  1.0000
  S   S216      1.0  0.71953  0.19237  0.85713  1.0000
  S   S217      1.0  0.72131  0.12209  0.85570  1.0000
  C   C529      1.0  0.71490  0.02050  0.94513  1.0000
  C   C530      1.0  0.69945  0.03586  0.91536  1.0000
  C   C531      1.0  0.71398  0.06290  0.92221  1.0000
  C   C532      1.0  0.72866  0.06850  0.94073  1.0000
  C   C533      1.0  0.72895  0.04745  0.95220  1.0000
  H   H859      1.0  0.73979  0.08933  0.94623  1.0000
  H   H860      1.0  0.68808  0.03120  0.90118  1.0000
  H   H861      1.0  0.82652  0.07589  0.91323  1.0000
  S   S218      1.0  0.87506  0.33007  0.82549  1.0000
  H   H862      1.0  0.74016  0.05214  0.96644  1.0000
  C   C534      1.0  0.96156  0.31618  0.93318  1.0000
  H   H863      1.0  0.76851  0.16076  0.82752  1.0000
  H   H864      1.0  0.71898  0.17304  0.79714  1.0000
  S   S219      1.0  0.98906  0.21110  0.98165  1.0000
  H   H865      1.0  0.89610  0.30845  0.78440  1.0000
  C   C535      1.0  0.76631  0.15377  0.81147  1.0000
  H   H866      1.0  0.72902  0.16855  0.82205  1.0000
  C   C536      1.0  0.69995  0.01481  0.92676  1.0000
  C   C537      1.0  0.75221  0.15770  0.77756  1.0000
  H   H867      1.0  0.78667  0.15753  0.80645  1.0000
  H   H868      1.0  0.83468  0.04372  0.93432  1.0000
  C   C538      1.0  0.66730  0.09137  0.77620  1.0000
  C   C539      1.0  0.82888  0.05201  0.94768  1.0000
  Fe  Fe112     1.0  0.87296  0.29800  0.84668  1.0000
  S   S220      1.0  0.91714  0.30913  0.84448  1.0000
  S   S221      1.0  0.84658  0.25244  0.84643  1.0000
  H   H869      1.0  0.75646  0.24829  0.84951  1.0000
  C   C540      1.0  0.77307  0.19738  0.79982  1.0000
  C   C541      1.0  0.90444  0.31982  0.77093  1.0000
  H   H870      1.0  0.80689  0.09144  0.92276  1.0000
  C   C542      1.0  0.81165  0.23715  0.85090  1.0000
  C   C543      1.0  0.79652  0.25127  0.84903  1.0000
  H   H871      1.0  0.78826  0.08123  0.95674  1.0000
  H   H872      1.0  0.97533  0.30071  0.95826  1.0000
  C   C544      1.0  0.77062  0.19621  0.85874  1.0000
  C   C545      1.0  0.79864  0.20967  0.85587  1.0000
  H   H873      1.0  0.80644  0.27252  0.84526  1.0000
  H   H874      1.0  0.79299  0.05705  0.97182  1.0000
  H   H875      1.0  0.81030  0.19872  0.85755  1.0000
  C   C546      1.0  0.95594  0.31471  0.91225  1.0000
  C   C547      1.0  0.96003  0.29596  0.90038  1.0000
  C   C548      1.0  0.96968  0.27906  0.90935  1.0000
  C   C549      1.0  0.97526  0.28052  0.93030  1.0000
  C   C550      1.0  0.97096  0.29912  0.94218  1.0000
  C   C551      1.0  0.70046  0.07968  0.76237  1.0000
  H   H876      1.0  0.95612  0.29474  0.88424  1.0000
  H   H877      1.0  0.87035  0.28170  0.93445  1.0000
  S   S222      1.0  0.98800  0.25908  0.94074  1.0000
  N   N55       1.0  0.86925  0.25713  0.90865  1.0000
  C   C552      1.0  0.86557  0.23364  0.92079  1.0000
  C   C553      1.0  0.84253  0.25343  0.90123  1.0000
  C   C554      1.0  0.88629  0.25913  0.89127  1.0000
  C   C555      1.0  0.88268  0.28226  0.92130  1.0000
  H   H878      1.0  0.85266  0.23139  0.93397  1.0000
  H   H879      1.0  0.88541  0.23593  0.92670  1.0000
  H   H880      1.0  0.85573  0.21437  0.91162  1.0000
  H   H881      1.0  0.84462  0.27034  0.89144  1.0000
  H   H882      1.0  0.83167  0.23437  0.89196  1.0000
  H   H883      1.0  0.82928  0.25250  0.91387  1.0000
  H   H884      1.0  0.90609  0.26063  0.89626  1.0000
  H   H885      1.0  0.89070  0.27743  0.88235  1.0000
  H   H886      1.0  0.87616  0.24121  0.88075  1.0000
  H   H887      1.0  0.88628  0.30052  0.91254  1.0000
  H   H888      1.0  0.90285  0.28558  0.92719  1.0000
  C   C556      1.0  0.76826  0.23754  0.85145  1.0000
  Fe  Fe113     1.0  0.99467  0.25288  0.97416  1.0000
  H   H889      1.0  0.82042  0.03563  0.95890  1.0000
  H   H890      1.0  0.92525  0.14535  0.99170  1.0000
  H   H891      1.0  0.82102  0.08960  0.96781  1.0000
  C   C557      1.0  0.82124  0.08352  0.92722  1.0000
  C   C558      1.0  0.75518  0.20984  0.85602  1.0000
  H   H892      1.0  0.76098  0.17526  0.86301  1.0000
  C   C559      1.0  0.78428  0.03916  0.93333  1.0000
  S   S223      1.0  0.87836  0.32387  0.87433  1.0000
  H   H893      1.0  0.77401  0.02294  0.94448  1.0000
  H   H894      1.0  0.84775  0.06853  0.95478  1.0000
  H   H895      1.0  0.79391  0.20245  0.79509  1.0000
  H   H896      1.0  0.89048  0.09795  0.98329  1.0000
  C   C560      1.0  0.80253  0.07297  0.96038  1.0000
  N   N56       1.0  0.80922  0.06190  0.94215  1.0000
  H   H897      1.0  0.77486  0.20562  0.81550  1.0000
  C   C561      1.0  0.88708  0.10902  0.99550  1.0000
  H   H898      1.0  0.95870  0.33073  0.94252  1.0000
  S   S224      1.0  0.66786  0.12227  0.83382  1.0000
  H   H899      1.0  0.73904  0.13530  0.77638  1.0000
  C   C562      1.0  0.90695  0.13600  0.00026  1.0000
  H   H900      1.0  0.71348  0.14009  0.80473  1.0000
  S   S225      1.0  0.97194  0.25514  0.00114  1.0000
  H   H901      1.0  0.70400  0.02110  0.99347  1.0000
  S   S226      1.0  0.66311  0.06767  0.85680  1.0000
  H   H902      1.0  0.66345  0.66383  0.02820  1.0000
  H   H903      1.0  0.67528  0.63045  0.01029  1.0000
  H   H904      1.0  0.99103  0.35284  0.45146  1.0000
  N   N57       1.0  0.67184  0.64944  0.47385  1.0000
  H   H905      1.0  0.94676  0.65957  0.42670  1.0000
  H   H906      1.0  0.97782  0.36200  0.48582  1.0000
  H   H907      1.0  0.67431  0.66114  0.44288  1.0000
  C   C563      1.0  0.96160  0.34054  0.48555  1.0000
  H   H908      1.0  0.94267  0.34005  0.47938  1.0000
  H   H909      1.0  0.95796  0.33393  0.50153  1.0000
  H   H910      1.0  0.70088  0.63499  0.46815  1.0000
  H   H911      1.0  0.70874  0.65743  0.48995  1.0000
  C   C564      1.0  0.69993  0.65324  0.47428  1.0000
  H   H912      1.0  0.93034  0.66346  0.46082  1.0000
  S   S227      1.0  0.89169  0.34365  0.62315  1.0000
  C   C565      1.0  0.69837  0.64214  0.59742  1.0000
  H   H913      1.0  0.73259  0.55965  0.74663  1.0000
  C   C566      1.0  0.69563  0.63664  0.56070  1.0000
  C   C567      1.0  0.69083  0.62527  0.58009  1.0000
  H   H914      1.0  0.78307  0.57093  0.72206  1.0000
  H   H915      1.0  0.70077  0.55037  0.70689  1.0000
  H   H916      1.0  0.79014  0.65932  0.55731  1.0000
  H   H917      1.0  0.98272  0.33989  0.71039  1.0000
  S   S228      1.0  0.69206  0.62914  0.62238  1.0000
  Fe  Fe114     1.0  0.68517  0.53972  0.65057  1.0000
  S   S229      1.0  0.71196  0.51917  0.65079  1.0000
  S   S230      1.0  0.70329  0.58364  0.65935  1.0000
  H   H918      1.0  0.78113  0.46401  0.60180  1.0000
  H   H919      1.0  0.90931  0.52540  0.59083  1.0000
  C   C568      1.0  0.82062  0.51585  0.60218  1.0000
  H   H920      1.0  0.94193  0.52830  0.62910  1.0000
  C   C569      1.0  0.75742  0.56678  0.64305  1.0000
  C   C570      1.0  0.97091  0.65344  0.57481  1.0000
  H   H921      1.0  0.74393  0.57309  0.63556  1.0000
  H   H922      1.0  0.81137  0.50819  0.58689  1.0000
  H   H923      1.0  0.76743  0.50105  0.60093  1.0000
  C   C571      1.0  0.96181  0.64980  0.59478  1.0000
  H   H924      1.0  0.93461  0.36002  0.72228  1.0000
  S   S231      1.0  0.95144  0.61755  0.60604  1.0000
  H   H925      1.0  0.82376  0.53508  0.63933  1.0000
  H   H926      1.0  0.93004  0.56026  0.58377  1.0000
  H   H927      1.0  0.77242  0.60422  0.70514  1.0000
  H   H928      1.0  0.97060  0.63646  0.56642  1.0000
  Fe  Fe115     1.0  0.90360  0.37114  0.65107  1.0000
  S   S232      1.0  0.92085  0.41710  0.65489  1.0000
  S   S233      1.0  0.93158  0.35546  0.66354  1.0000
  C   C572      1.0  0.88514  0.47444  0.63830  1.0000
  C   C573      1.0  0.87390  0.44812  0.62957  1.0000
  C   C574      1.0  0.88394  0.42991  0.63494  1.0000
  C   C575      1.0  0.90569  0.43809  0.64884  1.0000
  C   C576      1.0  0.91682  0.46440  0.65760  1.0000
  C   C577      1.0  0.90640  0.48235  0.65258  1.0000
  H   H929      1.0  0.93361  0.47090  0.66838  1.0000
  C   C578      1.0  0.94695  0.52171  0.61455  1.0000
  C   C579      1.0  0.76272  0.55469  0.71698  1.0000
  C   C580      1.0  0.66464  0.65483  0.65990  1.0000
  H   H930      1.0  0.83117  0.50716  0.64094  1.0000
  H   H931      1.0  0.80879  0.46775  0.61823  1.0000
  S   S234      1.0  0.68481  0.59335  0.71150  1.0000
  C   C581      1.0  0.95835  0.53222  0.57971  1.0000
  H   H932      1.0  0.87530  0.40979  0.62800  1.0000
  S   S235      1.0  0.87320  0.49736  0.63011  1.0000
  H   H933      1.0  0.91510  0.50243  0.65960  1.0000
  H   H934      1.0  0.77704  0.46177  0.62868  1.0000
  H   H935      1.0  0.76249  0.49781  0.62764  1.0000
  H   H936      1.0  0.85748  0.44177  0.61848  1.0000
  C   C582      1.0  0.81457  0.51254  0.63814  1.0000
  H   H937      1.0  0.80014  0.50384  0.65060  1.0000
  H   H938      1.0  0.94806  0.57242  0.74876  1.0000
  H   H939      1.0  0.82793  0.53822  0.60278  1.0000
  H   H940      1.0  0.75969  0.59249  0.74102  1.0000
  H   H941      1.0  0.73780  0.59590  0.69911  1.0000
  N   N58       1.0  0.95177  0.54180  0.59872  1.0000
  H   H942      1.0  0.97688  0.52960  0.58164  1.0000
  H   H943      1.0  0.97025  0.57622  0.61935  1.0000
  H   H944      1.0  0.96205  0.54693  0.56744  1.0000
  H   H945      1.0  0.68939  0.62330  0.54747  1.0000
  N   N59       1.0  0.74282  0.56522  0.71527  1.0000
  C   C583      1.0  0.97461  0.56826  0.60513  1.0000
  H   H946      1.0  0.89143  0.59419  0.72011  1.0000
  Fe  Fe116     1.0  0.67486  0.58666  0.63617  1.0000
  N   N60       1.0  0.80110  0.50223  0.61820  1.0000
  C   C584      1.0  0.75223  0.58730  0.70057  1.0000
  C   C585      1.0  0.77785  0.50805  0.61595  1.0000
  H   H947      1.0  0.78443  0.53025  0.61760  1.0000
  H   H948      1.0  0.75660  0.51372  0.66839  1.0000
  Fe  Fe117     1.0  0.88809  0.53960  0.64453  1.0000
  S   S236      1.0  0.93161  0.56835  0.65167  1.0000
  Fe  Fe118     1.0  0.87088  0.58364  0.65361  1.0000
  S   S237      1.0  0.91371  0.61553  0.66121  1.0000
  S   S238      1.0  0.83839  0.59727  0.65167  1.0000
  Fe  Fe119     1.0  0.92536  0.59933  0.63370  1.0000
  S   S239      1.0  0.86844  0.34256  0.66916  1.0000
  Fe  Fe120     1.0  0.91574  0.58168  0.67840  1.0000
  S   S240      1.0  0.93672  0.58461  0.70880  1.0000
  S   S241      1.0  0.88239  0.56959  0.62526  1.0000
  S   S242      1.0  0.87221  0.55079  0.67228  1.0000
  C   C586      1.0  0.71625  0.54309  0.70828  1.0000
  C   C587      1.0  0.80330  0.57563  0.65252  1.0000
  C   C588      1.0  0.78550  0.58384  0.64339  1.0000
  C   C589      1.0  0.79154  0.47261  0.61663  1.0000
  C   C590      1.0  0.74697  0.54131  0.65178  1.0000
  C   C591      1.0  0.76468  0.53327  0.66134  1.0000
  C   C592      1.0  0.79277  0.55066  0.66207  1.0000
  H   H949      1.0  0.79352  0.60333  0.63624  1.0000
  H   H950      1.0  0.83876  0.51245  0.60380  1.0000
  C   C593      1.0  0.70105  0.64866  0.67505  1.0000
  H   H951      1.0  0.80633  0.54486  0.67005  1.0000
  H   H952      1.0  0.72529  0.58410  0.73437  1.0000
  C   C594      1.0  0.92107  0.58329  0.73212  1.0000
  C   C595      1.0  0.89944  0.58933  0.73356  1.0000
  H   H953      1.0  0.92165  0.55226  0.60947  1.0000
  H   H954      1.0  0.71753  0.53472  0.69320  1.0000
  C   C596      1.0  0.88869  0.58992  0.75253  1.0000
  C   C597      1.0  0.92612  0.34874  0.73575  1.0000
  N   N61       1.0  0.68031  0.65758  0.67883  1.0000
  H   H955      1.0  0.94150  0.51228  0.57449  1.0000
  Fe  Fe121     1.0  0.66970  0.57098  0.68126  1.0000
  C   C598      1.0  0.93137  0.57720  0.74977  1.0000
  H   H956      1.0  0.75413  0.57987  0.68528  1.0000
  H   H957      1.0  0.92962  0.50156  0.61033  1.0000
  C   C599      1.0  0.74002  0.57583  0.73520  1.0000
  H   H958      1.0  0.69152  0.62721  0.66955  1.0000
  H   H959      1.0  0.71303  0.64996  0.68903  1.0000
  H   H960      1.0  0.70846  0.52600  0.71893  1.0000
  C   C600      1.0  0.92710  0.54499  0.59545  1.0000
  H   H961      1.0  0.68098  0.60345  0.58160  1.0000
  H   H962      1.0  0.76522  0.54647  0.70221  1.0000
  H   H963      1.0  0.75630  0.53804  0.72800  1.0000
  C   C601      1.0  0.66827  0.58019  0.73437  1.0000
  H   H964      1.0  0.67311  0.64195  0.70890  1.0000
  C   C602      1.0  0.68188  0.59188  0.75281  1.0000
  H   H965      1.0  0.87236  0.59523  0.75353  1.0000
  H   H966      1.0  0.97861  0.58400  0.59361  1.0000
  H   H967      1.0  0.96504  0.51861  0.61746  1.0000
  H   H968      1.0  0.95319  0.33642  0.69668  1.0000
  H   H969      1.0  0.71527  0.66089  0.66324  1.0000
  H   H970      1.0  0.97728  0.34231  0.66437  1.0000
  H   H971      1.0  0.70227  0.60849  0.75287  1.0000
  C   C603      1.0  0.70810  0.66499  0.55829  1.0000
  C   C604      1.0  0.93745  0.36012  0.75493  1.0000
  H   H972      1.0  0.99361  0.56672  0.60781  1.0000
  H   H973      1.0  0.90678  0.38386  0.80153  1.0000
  H   H974      1.0  0.75233  0.65346  0.90815  1.0000
  C   C605      1.0  0.94010  0.42828  0.78190  1.0000
  H   H975      1.0  0.87322  0.46707  0.89183  1.0000
  H   H976      1.0  0.66557  0.66117  0.96363  1.0000
  S   S243      1.0  0.94204  0.36024  0.79641  1.0000
  H   H977      1.0  0.91896  0.63382  0.81926  1.0000
  C   C606      1.0  0.66917  0.58243  0.77130  1.0000
  H   H978      1.0  0.74358  0.59073  0.88101  1.0000
  H   H979      1.0  0.92539  0.64105  0.78290  1.0000
  C   C607      1.0  0.95532  0.65623  0.90542  1.0000
  C   C608      1.0  0.78788  0.57201  0.84092  1.0000
  S   S244      1.0  0.67016  0.62644  0.88360  1.0000
  H   H980      1.0  0.96814  0.44793  0.81704  1.0000
  Fe  Fe122     1.0  0.69826  0.56414  0.84655  1.0000
  S   S245      1.0  0.68468  0.59437  0.83639  1.0000
  H   H981      1.0  0.82523  0.56953  0.84299  1.0000
  C   C609      1.0  0.74328  0.63644  0.86960  1.0000
  N   N62       1.0  0.76279  0.63425  0.88392  1.0000
  C   C610      1.0  0.95393  0.64781  0.94148  1.0000
  S   S246      1.0  0.68094  0.55969  0.87746  1.0000
  H   H982      1.0  0.71914  0.62998  0.94748  1.0000
  C   C611      1.0  0.68791  0.64144  0.90675  1.0000
  H   H983      1.0  0.73185  0.60362  0.90143  1.0000
  C   C612      1.0  0.71185  0.64071  0.93767  1.0000
  C   C613      1.0  0.69741  0.62784  0.91963  1.0000
  C   C614      1.0  0.76225  0.56395  0.84891  1.0000
  H   H984      1.0  0.73470  0.54087  0.87193  1.0000
  S   S247      1.0  0.74132  0.57634  0.83778  1.0000
  C   C615      1.0  0.93848  0.65247  0.82230  1.0000
  Fe  Fe123     1.0  0.92275  0.33609  0.87161  1.0000
  H   H985      1.0  0.94499  0.61501  0.80124  1.0000
  H   H986      1.0  0.94751  0.63351  0.95361  1.0000
  H   H987      1.0  0.92558  0.42699  0.76965  1.0000
  H   H988      1.0  0.89474  0.40037  0.81897  1.0000
  C   C616      1.0  0.92337  0.45088  0.80486  1.0000
  Fe  Fe124     1.0  0.91967  0.34352  0.82549  1.0000
  H   H989      1.0  0.88781  0.40040  0.79246  1.0000
  H   H990      1.0  0.90866  0.45071  0.79319  1.0000
  H   H991      1.0  0.94220  0.47057  0.80401  1.0000
  N   N63       1.0  0.92891  0.42750  0.80207  1.0000
  C   C617      1.0  0.96376  0.63457  0.80370  1.0000
  C   C618      1.0  0.90344  0.40194  0.80380  1.0000
  C   C619      1.0  0.94874  0.42881  0.81775  1.0000
  C   C620      1.0  0.87158  0.48379  0.90013  1.0000
  H   H992      1.0  0.94336  0.47424  0.86943  1.0000
  Fe  Fe125     1.0  0.88504  0.35757  0.85313  1.0000
  S   S248      1.0  0.92987  0.37224  0.85251  1.0000
  S   S249      1.0  0.86462  0.38488  0.85463  1.0000
  S   S250      1.0  0.92681  0.51442  0.85962  1.0000
  H   H993      1.0  0.67978  0.59170  0.78541  1.0000
  H   H994      1.0  0.85515  0.52182  0.90579  1.0000
  C   C621      1.0  0.84191  0.50147  0.91191  1.0000
  H   H995      1.0  0.83164  0.45185  0.92430  1.0000
  C   C622      1.0  0.90923  0.47847  0.85764  1.0000
  C   C623      1.0  0.88240  0.46444  0.85036  1.0000
  C   C624      1.0  0.86894  0.43578  0.84965  1.0000
  C   C625      1.0  0.88233  0.42089  0.85579  1.0000
  C   C626      1.0  0.90927  0.43494  0.86279  1.0000
  C   C627      1.0  0.92261  0.46356  0.86373  1.0000
  H   H996      1.0  0.87207  0.47569  0.84526  1.0000
  H   H997      1.0  0.84812  0.42507  0.84411  1.0000
  H   H998      1.0  0.91969  0.42375  0.86786  1.0000
  H   H999      1.0  0.88335  0.66253  0.95924  1.0000
  N   N64       1.0  0.84335  0.47962  0.89982  1.0000
  H   H1000     1.0  0.87948  0.48465  0.91580  1.0000
  H   H1001     1.0  0.88551  0.50310  0.89286  1.0000
  H   H1002     1.0  0.81350  0.47810  0.87801  1.0000
  H   H1003     1.0  0.82097  0.49926  0.91166  1.0000
  C   C628      1.0  0.83438  0.48019  0.87879  1.0000
  H   H1004     1.0  0.84778  0.49980  0.87176  1.0000
  H   H1005     1.0  0.93510  0.61653  0.91807  1.0000
  H   H1006     1.0  0.84835  0.50168  0.92792  1.0000
  H   H1007     1.0  0.80400  0.44923  0.90835  1.0000
  H   H1008     1.0  0.95478  0.38008  0.75605  1.0000
  H   H1009     1.0  0.83453  0.46361  0.86928  1.0000
  C   C629      1.0  0.82546  0.45301  0.90843  1.0000
  H   H1010     1.0  0.82609  0.43608  0.89960  1.0000
  C   C630      1.0  0.75453  0.54734  0.86574  1.0000
  Fe  Fe126     1.0  0.66519  0.58804  0.86669  1.0000
  H   H1011     1.0  0.95351  0.41154  0.81602  1.0000
  C   C631      1.0  0.89901  0.58392  0.77019  1.0000
  C   C632      1.0  0.92017  0.57713  0.76870  1.0000
  H   H1012     1.0  0.92811  0.57212  0.78209  1.0000
  H   H1013     1.0  0.73783  0.62142  0.85685  1.0000
  S   S251      1.0  0.88605  0.58722  0.79375  1.0000
  C   C633      1.0  0.94680  0.63809  0.92132  1.0000
  C   C634      1.0  0.75013  0.60708  0.89288  1.0000
  C   C635      1.0  0.79840  0.54733  0.86656  1.0000
  H   H1014     1.0  0.94083  0.42789  0.83316  1.0000
  H   H1015     1.0  0.95930  0.44732  0.78001  1.0000
  H   H1016     1.0  0.91460  0.45063  0.81985  1.0000
  C   C636      1.0  0.80578  0.56358  0.84959  1.0000
  H   H1017     1.0  0.79392  0.58471  0.82785  1.0000
  H   H1018     1.0  0.95804  0.66329  0.77353  1.0000
  Fe  Fe127     1.0  0.92038  0.60201  0.86691  1.0000
  S   S252      1.0  0.89921  0.56200  0.88231  1.0000
  S   S253      1.0  0.94771  0.64503  0.87963  1.0000
  Fe  Fe128     1.0  0.89409  0.57605  0.82522  1.0000
  S   S254      1.0  0.87076  0.53420  0.83761  1.0000
  Fe  Fe129     1.0  0.86236  0.55529  0.86365  1.0000
  S   S255      1.0  0.82125  0.53740  0.87790  1.0000
  Fe  Fe130     1.0  0.90916  0.54371  0.85513  1.0000
  S   S256      1.0  0.88265  0.59641  0.85019  1.0000
  S   S257      1.0  0.93346  0.58446  0.84088  1.0000
  H   H1019     1.0  0.69336  0.60729  0.91580  1.0000
  H   H1020     1.0  0.94712  0.64963  0.83682  1.0000
  H   H1021     1.0  0.76673  0.52638  0.88764  1.0000
  C   C637      1.0  0.77266  0.53913  0.87459  1.0000
  H   H1022     1.0  0.78200  0.62233  0.86077  1.0000
  H   H1023     1.0  0.76441  0.60434  0.90340  1.0000
  H   H1024     1.0  0.94463  0.41093  0.77949  1.0000
  C   C638      1.0  0.78720  0.63802  0.87306  1.0000
  H   H1025     1.0  0.80229  0.63627  0.88333  1.0000
  C   C639      1.0  0.92668  0.34571  0.77260  1.0000
  H   H1026     1.0  0.97698  0.63694  0.79070  1.0000
  H   H1027     1.0  0.72412  0.63257  0.87706  1.0000
  S   S258      1.0  0.94362  0.33653  0.90193  1.0000
  H   H1028     1.0  0.97421  0.63263  0.81759  1.0000
  H   H1029     1.0  0.79718  0.65820  0.86593  1.0000
  C   C640      1.0  0.94456  0.65990  0.78653  1.0000
  H   H1030     1.0  0.67828  0.63173  0.98321  1.0000
  N   N65       1.0  0.95735  0.65748  0.80562  1.0000
  H   H1031     1.0  0.75166  0.65693  0.86300  1.0000
  C   C641      1.0  0.77045  0.65536  0.90007  1.0000
  H   H1032     1.0  0.78455  0.65388  0.91148  1.0000
  C   C642      1.0  0.68026  0.64402  0.99716  1.0000
  H   H1033     1.0  0.70205  0.65916  0.99898  1.0000
  S   S259      1.0  0.69626  0.73146  0.04546  1.0000
  H   H1034     1.0  0.68963  0.69105  0.01520  1.0000
  C   C643      1.0  0.76522  0.85154  0.01383  1.0000
  C   C644      1.0  0.69159  0.97517  0.07115  1.0000
  H   H1035     1.0  0.72635  0.95732  0.09127  1.0000
  Fe  Fe131     1.0  0.73275  0.73888  0.02604  1.0000
  H   H1036     1.0  0.78088  0.95619  0.06028  1.0000
  C   C645      1.0  0.68789  0.69431  0.07606  1.0000
  C   C646      1.0  0.67887  0.94841  0.06349  1.0000
  H   H1037     1.0  0.70521  0.69265  0.07054  1.0000
  H   H1038     1.0  0.70631  0.91704  0.06700  1.0000
  C   C647      1.0  0.72743  0.92318  0.06245  1.0000
  H   H1039     1.0  0.73195  0.93742  0.04975  1.0000
  C   C648      1.0  0.77447  0.94199  0.07305  1.0000
  H   H1040     1.0  0.86764  0.81665  0.02494  1.0000
  Fe  Fe132     1.0  0.76549  0.96445  0.01116  1.0000
  H   H1041     1.0  0.83818  0.86318  0.03685  1.0000
  H   H1042     1.0  0.68538  0.94354  0.04943  1.0000
  C   C649      1.0  0.87951  0.86745  0.01411  1.0000
  C   C650      1.0  0.74675  0.96123  0.08617  1.0000
  H   H1043     1.0  0.92022  0.75477  0.03392  1.0000
  H   H1044     1.0  0.72812  0.90476  0.05627  1.0000
  N   N66       1.0  0.74700  0.93583  0.07953  1.0000
  H   H1045     1.0  0.77528  0.92333  0.06759  1.0000
  C   C651      1.0  0.88062  0.75326  0.03240  1.0000
  H   H1046     1.0  0.75377  0.92571  0.10955  1.0000
  S   S260      1.0  0.77312  0.77678  0.02878  1.0000
  C   C652      1.0  0.90634  0.75914  0.02496  1.0000
  H   H1047     1.0  0.89480  0.86114  0.00913  1.0000
  H   H1048     1.0  0.76148  0.97157  0.09889  1.0000
  H   H1049     1.0  0.75211  0.97590  0.07369  1.0000
  H   H1050     1.0  0.88648  0.87791  0.02913  1.0000
  S   S261      1.0  0.76549  0.92492  0.02132  1.0000
  S   S262      1.0  0.97537  0.73025  0.01575  1.0000
  S   S263      1.0  0.75212  0.71251  0.01805  1.0000
  C   C653      1.0  0.76826  0.89687  0.01003  1.0000
  C   C654      1.0  0.76290  0.87409  0.02182  1.0000
  H   H1051     1.0  0.73911  0.89741  0.09184  1.0000
  H   H1052     1.0  0.78986  0.95151  0.08552  1.0000
  H   H1053     1.0  0.83302  0.80607  0.03056  1.0000
  H   H1054     1.0  0.87499  0.74437  0.04709  1.0000
  H   H1055     1.0  0.76081  0.83419  0.02310  1.0000
  C   C655      1.0  0.67386  0.67921  0.09284  1.0000
  C   C656      1.0  0.73931  0.91687  0.09644  1.0000
  S   S264      1.0  0.83074  0.75271  0.03194  1.0000
  C   C657      1.0  0.86222  0.75894  0.02115  1.0000
  H   H1056     1.0  0.75673  0.87377  0.03723  1.0000
  H   H1057     1.0  0.85932  0.83335  0.04501  1.0000
  Fe  Fe133     1.0  0.79206  0.75089  0.01764  1.0000
  H   H1058     1.0  0.71874  0.91198  0.10178  1.0000
  C   C658      1.0  0.68238  0.98103  0.08932  1.0000
  H   H1059     1.0  0.68061  0.66601  0.10007  1.0000
  C   C659      1.0  0.67963  0.71177  0.06670  1.0000
  C   C660      1.0  0.85316  0.82423  0.02953  1.0000
  C   C661      1.0  0.91433  0.77144  0.00630  1.0000
  N   N67       1.0  0.85231  0.84384  0.01506  1.0000
  C   C662      1.0  0.83260  0.85299  0.02168  1.0000
  H   H1060     1.0  0.81186  0.83560  0.02251  1.0000
  H   H1061     1.0  0.67599  0.97182  0.02015  1.0000
  S   S265      1.0  0.72507  0.96451  0.01002  1.0000
  H   H1062     1.0  0.83103  0.86741  0.01087  1.0000
  C   C663      1.0  0.66801  0.67537  0.01398  1.0000
  C   C664      1.0  0.66596  0.97269  0.00567  1.0000
  H   H1063     1.0  0.70151  0.95553  0.40064  1.0000
  C   C665      1.0  0.97155  0.72545  0.44234  1.0000
  S   S266      1.0  0.72558  0.72278  0.44320  1.0000
  C   C666      1.0  0.68086  0.96893  0.44571  1.0000
  C   C667      1.0  0.69774  0.96603  0.43155  1.0000
  C   C668      1.0  0.94582  0.68520  0.46126  1.0000
  H   H1064     1.0  0.97676  0.73466  0.42723  1.0000
  H   H1065     1.0  0.91762  0.70559  0.44099  1.0000
  C   C669      1.0  0.69335  0.71346  0.43128  1.0000
  C   C670      1.0  0.68825  0.70245  0.41143  1.0000
  H   H1066     1.0  0.98072  0.68284  0.43501  1.0000
  H   H1067     1.0  0.99060  0.72785  0.44979  1.0000
  H   H1068     1.0  0.66935  0.90025  0.39852  1.0000
  H   H1069     1.0  0.71834  0.97095  0.43587  1.0000
  H   H1070     1.0  0.70442  0.70136  0.40333  1.0000
  H   H1071     1.0  0.96410  0.73757  0.45138  1.0000
  H   H1072     1.0  0.67579  0.72375  0.45653  1.0000
  H   H1073     1.0  0.92915  0.70294  0.41631  1.0000
  Fe  Fe134     1.0  0.74113  0.73960  0.47531  1.0000
  C   C671      1.0  0.68806  0.95710  0.41156  1.0000
  C   C672      1.0  0.67179  0.67422  0.48213  1.0000
  C   C673      1.0  0.96162  0.68149  0.42826  1.0000
  H   H1074     1.0  0.90984  0.67277  0.43031  1.0000
  C   C674      1.0  0.67218  0.71475  0.44149  1.0000
  S   S267      1.0  0.93136  0.74625  0.48212  1.0000
  H   H1075     1.0  0.96636  0.68981  0.41282  1.0000
  H   H1076     1.0  0.93830  0.69643  0.47125  1.0000
  S   S268      1.0  0.77551  0.78126  0.48362  1.0000
  C   C675      1.0  0.92580  0.69430  0.43166  1.0000
  H   H1077     1.0  0.67862  0.67798  0.49830  1.0000
  C   C676      1.0  0.90459  0.75227  0.49146  1.0000
  H   H1078     1.0  0.96459  0.68651  0.46858  1.0000
  C   C677      1.0  0.85875  0.74782  0.48653  1.0000
  C   C678      1.0  0.88031  0.74321  0.47989  1.0000
  H   H1079     1.0  0.84043  0.74097  0.47732  1.0000
  H   H1080     1.0  0.87824  0.73277  0.46556  1.0000
  N   N68       1.0  0.95116  0.69656  0.44084  1.0000
  H   H1081     1.0  0.67226  0.87292  0.38585  1.0000
  Fe  Fe135     1.0  0.97283  0.75634  0.49689  1.0000
  S   S269      1.0  0.75960  0.71827  0.49368  1.0000
  S   S270      1.0  0.71441  0.73936  0.50021  1.0000
  Fe  Fe136     1.0  0.73068  0.99212  0.48986  1.0000
  S   S271      1.0  0.77058  0.99628  0.47940  1.0000
  S   S272      1.0  0.69259  0.98289  0.47054  1.0000
  H   H1082     1.0  0.68580  0.69233  0.47378  1.0000
  H   H1083     1.0  0.71336  0.67082  0.46503  1.0000
  C   C679      1.0  0.86121  0.76175  0.50487  1.0000
  Fe  Fe137     1.0  0.79150  0.75942  0.50433  1.0000
  S   S273      1.0  0.71326  0.67792  0.53332  1.0000
  S   S274      1.0  0.72950  0.96807  0.51746  1.0000
  H   H1084     1.0  0.80135  0.93780  0.55544  1.0000
  H   H1085     1.0  0.72546  0.70370  0.57412  1.0000
  H   H1086     1.0  0.74195  0.95728  0.58038  1.0000
  S   S275      1.0  0.73655  0.81335  0.51753  1.0000
  Fe  Fe138     1.0  0.73467  0.72026  0.51933  1.0000
  C   C680      1.0  0.71603  0.68189  0.57562  1.0000
  C   C681      1.0  0.74370  0.88956  0.51078  1.0000
  C   C682      1.0  0.88537  0.77055  0.51652  1.0000
  C   C683      1.0  0.90686  0.76584  0.50993  1.0000
  H   H1087     1.0  0.97386  0.71490  0.60493  1.0000
  H   H1088     1.0  0.76957  0.68460  0.52511  1.0000
  C   C684      1.0  0.79630  0.95411  0.56044  1.0000
  C   C685      1.0  0.76935  0.92915  0.58830  1.0000
  H   H1089     1.0  0.79737  0.96607  0.54687  1.0000
  H   H1090     1.0  0.95583  0.66978  0.62082  1.0000
  H   H1091     1.0  0.74851  0.93226  0.54041  1.0000
  H   H1092     1.0  0.75336  0.90562  0.55154  1.0000
  H   H1093     1.0  0.81246  0.96800  0.57127  1.0000
  S   S276      1.0  0.83492  0.76850  0.51421  1.0000
  C   C686      1.0  0.98199  0.70138  0.57639  1.0000
  S   S277      1.0  0.76704  0.76102  0.53081  1.0000
  C   C687      1.0  0.97287  0.69774  0.59636  1.0000
  H   H1094     1.0  0.76144  0.97509  0.55941  1.0000
  C   C688      1.0  0.76220  0.96488  0.57354  1.0000
  H   H1095     1.0  0.88764  0.78141  0.53070  1.0000
  C   C689      1.0  0.75053  0.84891  0.51278  1.0000
  C   C690      1.0  0.74884  0.92276  0.55500  1.0000
  H   H1096     1.0  0.70781  0.69965  0.67442  1.0000
  H   H1097     1.0  0.71193  0.84873  0.51520  1.0000
  C   C691      1.0  0.82875  0.71094  0.55257  1.0000
  H   H1098     1.0  0.76909  0.71368  0.55308  1.0000
  S   S278      1.0  0.97809  0.72039  0.50665  1.0000
  H   H1099     1.0  0.74908  0.92008  0.59526  1.0000
  C   C692      1.0  0.79116  0.72083  0.55590  1.0000
  H   H1100     1.0  0.83559  0.69589  0.54781  1.0000
  H   H1101     1.0  0.81021  0.90641  0.50655  1.0000
  H   H1102     1.0  0.83510  0.71677  0.56867  1.0000
  C   C693      1.0  0.79179  0.69282  0.52795  1.0000
  C   C694      1.0  0.77156  0.90623  0.50873  1.0000
  H   H1103     1.0  0.78961  0.68021  0.57810  1.0000
  H   H1104     1.0  0.72803  0.91402  0.56098  1.0000
  H   H1105     1.0  0.71703  0.68383  0.60824  1.0000
  H   H1106     1.0  0.80234  0.73990  0.54748  1.0000
  H   H1107     1.0  0.77478  0.91247  0.58555  1.0000
  N   N69       1.0  0.76918  0.94273  0.56935  1.0000
  H   H1108     1.0  0.84004  0.72946  0.54352  1.0000
  C   C695      1.0  0.98063  0.67892  0.56558  1.0000
  H   H1109     1.0  0.92532  0.77302  0.51903  1.0000
  C   C696      1.0  0.69376  0.68630  0.68589  1.0000
  H   H1110     1.0  0.80225  0.71090  0.51837  1.0000
  Fe  Fe139     1.0  0.74925  0.78039  0.50941  1.0000
  H   H1111     1.0  0.79560  0.72621  0.57225  1.0000
  N   N70       1.0  0.79912  0.70001  0.54955  1.0000
  H   H1112     1.0  0.77735  0.98082  0.58392  1.0000
  H   H1113     1.0  0.78428  0.94370  0.59957  1.0000
  H   H1114     1.0  0.70582  0.68905  0.70011  1.0000
  C   C697      1.0  0.73340  0.86125  0.51314  1.0000
  C   C698      1.0  0.71112  0.67051  0.59501  1.0000
  C   C699      1.0  0.78470  0.67553  0.56169  1.0000
  H   H1115     1.0  0.73010  0.89847  0.51089  1.0000
  H   H1116     1.0  0.79763  0.67728  0.52256  1.0000
  H   H1117     1.0  0.98772  0.68133  0.55029  1.0000
  C   C700      1.0  0.78866  0.89389  0.50824  1.0000
  H   H1118     1.0  0.67869  0.69371  0.68890  1.0000
  C   C701      1.0  0.77825  0.86547  0.51004  1.0000
  S   S279      1.0  0.78637  0.94254  0.50798  1.0000
  C   C702      1.0  0.96255  0.67210  0.60542  1.0000
  H   H1119     1.0  0.67802  0.66708  0.64768  1.0000
  Fe  Fe140     1.0  0.77047  0.97418  0.50779  1.0000
  H   H1120     1.0  0.79179  0.85646  0.50981  1.0000
  H   H1121     1.0  0.76229  0.66696  0.55965  1.0000
  S   S280      1.0  0.99528  0.78203  0.52419  1.0000
  Fe  Fe141     1.0  0.74724  0.72095  0.98541  1.0000
  S   S281      1.0  0.97729  0.68660  0.97194  1.0000
  H   H1122     1.0  0.97748  0.69846  0.89789  1.0000
  S   S282      1.0  0.94706  0.78075  0.99645  1.0000
  H   H1123     1.0  0.93111  0.69390  0.98852  1.0000
  S   S283      1.0  0.71561  0.99335  0.95857  1.0000
  H   H1124     1.0  0.71072  0.70114  0.93434  1.0000
  C   C703      1.0  0.89590  0.77705  0.99499  1.0000
  S   S284      1.0  0.72551  0.74532  0.99334  1.0000
  C   C704      1.0  0.91582  0.70131  0.98620  1.0000
  N   N71       1.0  0.66388  0.99818  0.00450  1.0000
  H   H1125     1.0  0.68889  0.99401  0.92117  1.0000
  Fe  Fe142     1.0  0.74208  0.99615  0.98613  1.0000
  H   H1126     1.0  0.85807  0.82308  0.98935  1.0000
  H   H1127     1.0  0.85608  0.77500  0.99332  1.0000
  C   C705      1.0  0.84394  0.83061  0.99484  1.0000
  C   C706      1.0  0.97066  0.68422  0.91004  1.0000
  H   H1128     1.0  0.88737  0.71670  0.94595  1.0000
  H   H1129     1.0  0.78522  0.87476  0.96684  1.0000
  C   C707      1.0  0.93751  0.72512  0.95626  1.0000
  H   H1130     1.0  0.78051  0.91411  0.98083  1.0000
  H   H1131     1.0  0.84282  0.84469  0.98351  1.0000
  S   S285      1.0  0.78798  0.75820  0.98492  1.0000
  C   C708      1.0  0.69262  0.66785  0.91234  1.0000
  S   S286      1.0  0.77808  0.82429  0.98339  1.0000
  C   C709      1.0  0.71689  0.66726  0.94311  1.0000
  C   C710      1.0  0.77620  0.89682  0.99011  1.0000
  C   C711      1.0  0.98260  0.68286  0.81001  1.0000
  H   H1132     1.0  0.95391  0.71925  0.95843  1.0000
  H   H1133     1.0  0.94453  0.74535  0.96385  1.0000
  C   C712      1.0  0.77332  0.85155  0.99395  1.0000
  S   S287      1.0  0.73568  0.68238  0.96588  1.0000
  H   H1134     1.0  0.93553  0.72764  0.93980  1.0000
  H   H1135     1.0  0.92307  0.72088  0.99486  1.0000
  H   H1136     1.0  0.89673  0.68640  0.99307  1.0000
  H   H1137     1.0  0.78045  0.67613  0.89386  1.0000
  H   H1138     1.0  0.90181  0.78656  0.98054  1.0000
  N   N72       1.0  0.91177  0.70466  0.96452  1.0000
  C   C713      1.0  0.96946  0.67575  0.94610  1.0000
  C   C714      1.0  0.70703  0.68072  0.93040  1.0000
  C   C715      1.0  0.97761  0.69396  0.93023  1.0000
  Fe  Fe143     1.0  0.76671  0.78210  0.99597  1.0000
  S   S288      1.0  0.78089  0.99292  0.98507  1.0000
  C   C716      1.0  0.77889  0.87441  0.98222  1.0000
  C   C717      1.0  0.89096  0.71393  0.96211  1.0000
  H   H1139     1.0  0.68523  0.67850  0.90253  1.0000
  H   H1140     1.0  0.91810  0.67079  0.95561  1.0000
  H   H1141     1.0  0.82340  0.81296  0.99507  1.0000
  H   H1142     1.0  0.99244  0.68167  0.82450  1.0000
  H   H1143     1.0  0.98967  0.71549  0.93347  1.0000
  H   H1144     1.0  0.69064  0.68968  0.97775  1.0000
  H   H1145     1.0  0.97854  0.70061  0.81141  1.0000
  H   H1146     1.0  0.87132  0.69921  0.96843  1.0000
  C   C718      1.0  0.90291  0.67839  0.95361  1.0000
  H   H1147     1.0  0.89737  0.73379  0.97019  1.0000
  C   C719      1.0  0.66906  0.67393  0.97758  1.0000
  H   H1148     1.0  0.67798  0.97075  0.99306  1.0000
  C   C720      1.0  0.86993  0.77057  0.00222  1.0000
  Fe  Fe144     1.0  0.98186  0.77059  0.00427  1.0000
  H   H1149     1.0  0.90042  0.68023  0.93709  1.0000
  H   H1150     1.0  0.93938  0.67695  0.78741  1.0000
  H   H1151     1.0  0.93368  0.66960  0.82465  1.0000
  H   H1152     1.0  0.87957  0.88260  0.00327  1.0000
