data_image0
_chemical_formula_structural       HCH3SC2H2FeS2FeCH4S2FeS2FeS2FeSFeS3CSH2C4H2CHFeHC6H5CH2C3HCHNC4H12C2HCH3CSH5NCHC3H3C3H5NHCSHNCH3CHCFeS2FeS2FeSFeS3HSH2FeS2C6H4C6H2NHC6H5NH6CH4SH2C2H3NH3SC2H3CHCHNH2CH4CHCNC4FeH4CHCHCH2CH3C3H11CH3FeS2FeS2FeSFeS2FeSH2SH2NSHCSCSCH2C6H4C6H7NH3C2HCHCH2CHSCH5SHC2H5FeHCH4FeHFeHCHCH3SHC3SHFeS2NFeS2FeS2FeSFeS3C2H2C7H4C6H7C6H4NC4H11CH2CHCH2SC2FeH2CH2CH9NCH2CS2NHNH7CH4NH3SHFeSCFeSFeS2H4C2HC4FeH4NC4H3S2C2H3CH3SFe2S2FeS2FeCNFeSFeHS2C2H4CH3C6H8CHC3H2SH2SCH3CHSC2HNCNHCH6SHSH2FeS2FeS2FeSFeS3CSFeS2CFeH2C6H4C6H4C6H4C7H2CHC5H4NC2H2CNH6SH2CH2SH2CH4NCHC2H4CHC2H5FeCHS2H2NHFeH6SCH4SHCHFeS2FeSH2CFeS3FeH2SFeS2C6H4CSC2HCFeH3NC4H9CHSH5C2FeS2HCSFeS2FeS2Fe2S3NFeC5H3C2H4CH2C6H7CH2NCH4CHCHCHS2H4CHC2HSH3C2NH4CH3C2H2CHCH6S2HSHCFeS2FeS2FeSFeS2FeS2FeCH3C7H4C2HC2SHCHC5H2C3HCH4C6H3FeH2NC4H15C3H2SH3CSCH4CH2NCH2CNHSH2CH2CNHCHFeC4H8CH2CHNFeHC2NHS2HCH2CH7CSCH3CHCHFeHSHC2FeS2FeS2FeSFeS2C2NH2C2H3C4HC6H6SH2FeCHSNH6CHCHC2NC4H9C2HCHSCH2CH3CH2CHCHSHFeS2FeCSHFeS2FeS2FeSFeS2CSHC6H9C6H4C2H6NC4H5CSH2FeH3SHFeSH2CFeS2FeS2FeS2FeSFeS2C4H7C6H5C7H4NHFeHSH3CH2CNH5CNH2SC2H3FeHCH2SCHC2H2C2H5C2HSH3SCH5CH2C2HSC2HCFeH3CH8NCH2CHC2NHC2HSH3FeHSH2SFeS2FeSFeS3H2C6H4C2H2CHCH2SC6H5NCFeC2H2CHCHCH3FeHCSH2CSC2NH11CH3C2HSFeSC3FeSHS3H2FeSC7H8CSFeSH2NH2NH3FeHCHCNCH3CSH2C2H4C3H2CH2CH3FeHC2HCFeS2FeS2FeSFeS3FeSFeS2HC2SC4H2C5H3C3SC2H2C6H4C6H3CHCHCHC2HNHNC2H2NCH2C2H2SH7CH6CHCH2SHCH6CHSH2CFeH4CH6SHCH5FeCH2CNHCH2C2H5CH2CH2FeH2FeSHC2FeS2FeSCSHC4NFeHSHC6H4NC4H11CHSHSCH2SH4CHFeSHNSHFeSFeS2C8H9CH2SH3CHC3H2SH3FeH3CNCH6CH2SH3CH3CHNFeS2CH3FeS2FeS2FeSFeS3HC2HC3H5C5HFeCHCH4C6H3SH3CHSHCH2CNC2H4C2H2CNHNHNHCHC2H4CH2CH4CHCSH4C2H3CH2CHCHS2CHFeS2FeS2FeSFeS2HSCFeSC6H5CH3C6H6NC2H4CH4C2HCH9CFeH4CHCH2CH3CHC2SH2C2NC2H3FeNC2H3CH3FeHSHCH2SNH3C2HFeS2FeS2FeSFeS3CHSHSNSC2H3C6H5C3H3C6H4C3HCHCH3CFeH2NC2HCH3CH4CH9CH2FeC2H4C2NCH4CHCHCH4SH2FeS2FeS2FeSFeHS2NCHCSCFeS2HNCHCH2CNH2C6H4FeCH6SH2CH5FeC3H4CH4CHCSHC2H3CHCHCS2H4C2H4CHCHCH
_chemical_formula_sum              "H1152 C720 S288 Fe144 N72"
_cell_length_a       67.4899
_cell_length_b       67.5437
_cell_length_c       51.8615
_cell_angle_alpha    90.2117
_cell_angle_beta     89.6756
_cell_angle_gamma    116.862

_space_group_name_H-M_alt    "P 1"
_space_group_IT_number       1

loop_
  _space_group_symop_operation_xyz
  'x, y, z'

loop_
  _atom_site_type_symbol
  _atom_site_label
  _atom_site_symmetry_multiplicity
  _atom_site_fract_x
  _atom_site_fract_y
  _atom_site_fract_z
  _atom_site_occupancy
  H   H1        1.0  0.34228  0.11097  0.47294  1.0000
  C   C1        1.0  0.35319  0.12238  0.48805  1.0000
  H   H2        1.0  0.34368  0.11818  0.50651  1.0000
  H   H3        1.0  0.33838  0.02086  0.47782  1.0000
  H   H4        1.0  0.35654  0.13958  0.48272  1.0000
  S   S1        1.0  0.06606  0.50541  0.29792  1.0000
  C   C2        1.0  0.04039  0.50475  0.30536  1.0000
  C   C3        1.0  0.03794  0.51573  0.32713  1.0000
  H   H5        1.0  0.03024  0.45883  0.32666  1.0000
  H   H6        1.0  0.30446  0.51908  0.07556  1.0000
  Fe  Fe1       1.0  0.31076  0.42771  0.50473  1.0000
  S   S2        1.0  0.33752  0.45825  0.48630  1.0000
  S   S3        1.0  0.27994  0.43214  0.51637  1.0000
  Fe  Fe2       1.0  0.34149  0.40443  0.50452  1.0000
  C   C4        1.0  0.30711  0.46998  0.43877  1.0000
  H   H7        1.0  0.30743  0.48513  0.43000  1.0000
  H   H8        1.0  0.26574  0.46495  0.42973  1.0000
  H   H9        1.0  0.06250  0.49670  0.65766  1.0000
  H   H10       1.0  0.25197  0.43519  0.43265  1.0000
  S   S4        1.0  0.33489  0.42578  0.53374  1.0000
  S   S5        1.0  0.31514  0.40395  0.47714  1.0000
  Fe  Fe3       1.0  0.14218  0.45189  0.51364  1.0000
  S   S6        1.0  0.13989  0.41877  0.52472  1.0000
  S   S7        1.0  0.15571  0.48342  0.53718  1.0000
  Fe  Fe4       1.0  0.12573  0.43734  0.45974  1.0000
  S   S8        1.0  0.12234  0.40305  0.46581  1.0000
  S   S9        1.0  0.11221  0.44620  0.42432  1.0000
  Fe  Fe5       1.0  0.10689  0.40424  0.50385  1.0000
  S   S10       1.0  0.07656  0.37465  0.52066  1.0000
  Fe  Fe6       1.0  0.15568  0.41978  0.48599  1.0000
  S   S11       1.0  0.18049  0.40555  0.47821  1.0000
  S   S12       1.0  0.10811  0.43744  0.49651  1.0000
  S   S13       1.0  0.16011  0.45404  0.47618  1.0000
  C   C5        1.0  0.04935  0.36466  0.50752  1.0000
  S   S14       1.0  0.34760  0.37641  0.52153  1.0000
  H   H11       1.0  0.05868  0.47969  0.60173  1.0000
  H   H12       1.0  0.06962  0.50808  0.61122  1.0000
  C   C6        1.0  0.13577  0.50739  0.59852  1.0000
  C   C7        1.0  0.12565  0.47274  0.41033  1.0000
  C   C8        1.0  0.11363  0.47941  0.39348  1.0000
  C   C9        1.0  0.12365  0.50050  0.38204  1.0000
  H   H13       1.0  0.12451  0.48616  0.49879  1.0000
  H   H14       1.0  0.16373  0.51899  0.57243  1.0000
  C   C10       1.0  0.14791  0.48718  0.41548  1.0000
  H   H15       1.0  0.09647  0.46821  0.38930  1.0000
  Fe  Fe7       1.0  0.34322  0.43478  0.46047  1.0000
  H   H16       1.0  0.15735  0.48201  0.42817  1.0000
  C   C11       1.0  0.25243  0.42457  0.50503  1.0000
  C   C12       1.0  0.24188  0.40791  0.48659  1.0000
  C   C13       1.0  0.22002  0.40250  0.47853  1.0000
  C   C14       1.0  0.20836  0.41368  0.48860  1.0000
  C   C15       1.0  0.21897  0.43042  0.50688  1.0000
  C   C16       1.0  0.24076  0.43572  0.51507  1.0000
  H   H17       1.0  0.25033  0.39884  0.47899  1.0000
  H   H18       1.0  0.21199  0.38940  0.46452  1.0000
  H   H19       1.0  0.21033  0.43917  0.51494  1.0000
  H   H20       1.0  0.24863  0.44858  0.52940  1.0000
  H   H21       1.0  0.30371  0.44741  0.39506  1.0000
  C   C17       1.0  0.11559  0.48957  0.60560  1.0000
  H   H22       1.0  0.05283  0.46869  0.64688  1.0000
  H   H23       1.0  0.03621  0.45059  0.35739  1.0000
  C   C18       1.0  0.13996  0.48540  0.56341  1.0000
  C   C19       1.0  0.11960  0.46770  0.57021  1.0000
  C   C20       1.0  0.10749  0.46978  0.59131  1.0000
  H   H24       1.0  0.12144  0.48744  0.46444  1.0000
  C   C21       1.0  0.02548  0.45674  0.34746  1.0000
  H   H25       1.0  0.11336  0.45232  0.55945  1.0000
  N   N1        1.0  0.13493  0.35373  0.52415  1.0000
  C   C22       1.0  0.11762  0.35548  0.54024  1.0000
  C   C23       1.0  0.13300  0.33112  0.52629  1.0000
  C   C24       1.0  0.15718  0.37011  0.53294  1.0000
  C   C25       1.0  0.13192  0.35822  0.49697  1.0000
  H   H26       1.0  0.11854  0.37231  0.53904  1.0000
  H   H27       1.0  0.11923  0.35215  0.56090  1.0000
  H   H28       1.0  0.10059  0.34365  0.53381  1.0000
  H   H29       1.0  0.14582  0.32928  0.51431  1.0000
  H   H30       1.0  0.13517  0.32716  0.54658  1.0000
  H   H31       1.0  0.11642  0.31840  0.51968  1.0000
  H   H32       1.0  0.15927  0.38739  0.53142  1.0000
  H   H33       1.0  0.17062  0.36949  0.52088  1.0000
  H   H34       1.0  0.16018  0.36732  0.55336  1.0000
  H   H35       1.0  0.14462  0.35702  0.48413  1.0000
  H   H36       1.0  0.13379  0.37529  0.49479  1.0000
  H   H37       1.0  0.11515  0.34662  0.48969  1.0000
  C   C26       1.0  0.13291  0.49522  0.48092  1.0000
  C   C27       1.0  0.14587  0.51494  0.38713  1.0000
  H   H38       1.0  0.11418  0.50549  0.36916  1.0000
  C   C28       1.0  0.15807  0.50817  0.40363  1.0000
  H   H39       1.0  0.03418  0.34001  0.53720  1.0000
  H   H40       1.0  0.27368  0.41438  0.43602  1.0000
  H   H41       1.0  0.26637  0.45202  0.45967  1.0000
  C   C29       1.0  0.28836  0.43002  0.44160  1.0000
  S   S15       1.0  0.10005  0.49146  0.63210  1.0000
  H   H42       1.0  0.30347  0.42859  0.43539  1.0000
  H   H43       1.0  0.28859  0.43096  0.46300  1.0000
  H   H44       1.0  0.05904  0.38683  0.47503  1.0000
  H   H45       1.0  0.14769  0.49225  0.47786  1.0000
  H   H46       1.0  0.09193  0.45591  0.59677  1.0000
  N   N2        1.0  0.28766  0.44966  0.43007  1.0000
  C   C30       1.0  0.28824  0.44806  0.40167  1.0000
  H   H47       1.0  0.32299  0.46961  0.43347  1.0000
  C   C31       1.0  0.14795  0.50526  0.57753  1.0000
  C   C32       1.0  0.26704  0.45051  0.43830  1.0000
  C   C33       1.0  0.04536  0.37353  0.48493  1.0000
  H   H48       1.0  0.30694  0.47189  0.46012  1.0000
  H   H49       1.0  0.27387  0.43283  0.39444  1.0000
  H   H50       1.0  0.28779  0.46262  0.39222  1.0000
  C   C34       1.0  0.03129  0.34720  0.51991  1.0000
  C   C35       1.0  0.04752  0.48180  0.65088  1.0000
  C   C36       1.0  0.05395  0.49313  0.60628  1.0000
  H   H51       1.0  0.02612  0.51033  0.61641  1.0000
  H   H52       1.0  0.17534  0.51923  0.40741  1.0000
  H   H53       1.0  0.02973  0.47358  0.35518  1.0000
  H   H54       1.0  0.04723  0.49694  0.58849  1.0000
  H   H55       1.0  0.11048  0.51376  0.50565  1.0000
  N   N3        1.0  0.03783  0.48682  0.62783  1.0000
  H   H56       1.0  0.03548  0.47592  0.66714  1.0000
  C   C37       1.0  0.03257  0.50537  0.63362  1.0000
  S   S16       1.0  0.34863  0.44368  0.41823  1.0000
  H   H57       1.0  0.10728  0.51522  0.47141  1.0000
  N   N4        1.0  0.13931  0.51917  0.48322  1.0000
  C   C38       1.0  0.03836  0.50957  0.70470  1.0000
  H   H58       1.0  0.05442  0.51099  0.70992  1.0000
  H   H59       1.0  0.33312  0.50991  0.80760  1.0000
  H   H60       1.0  0.33109  0.50596  0.84197  1.0000
  C   C39       1.0  0.34292  0.51376  0.82572  1.0000
  H   H61       1.0  0.35401  0.50559  0.82450  1.0000
  C   C40       1.0  0.06689  0.59902  0.30331  1.0000
  Fe  Fe8       1.0  0.22257  0.62660  0.08046  1.0000
  S   S17       1.0  0.21566  0.63617  0.11998  1.0000
  S   S18       1.0  0.20708  0.63199  0.04429  1.0000
  Fe  Fe9       1.0  0.25230  0.60783  0.10095  1.0000
  S   S19       1.0  0.24762  0.61471  0.14230  1.0000
  S   S20       1.0  0.27478  0.59457  0.08475  1.0000
  Fe  Fe10      1.0  0.21162  0.60268  0.13226  1.0000
  S   S21       1.0  0.18109  0.57842  0.15424  1.0000
  Fe  Fe11      1.0  0.25201  0.64758  0.12706  1.0000
  S   S22       1.0  0.27445  0.67757  0.15017  1.0000
  S   S23       1.0  0.21604  0.59237  0.09210  1.0000
  S   S24       1.0  0.25936  0.64155  0.08642  1.0000
  H   H62       1.0  0.31170  0.64371  0.14152  1.0000
  S   S25       1.0  0.13056  0.53947  0.30749  1.0000
  H   H63       1.0  0.30356  0.66276  0.12673  1.0000
  H   H64       1.0  0.17879  0.58043  0.05502  1.0000
  Fe  Fe12      1.0  0.13902  0.57496  0.29919  1.0000
  S   S26       1.0  0.16626  0.59707  0.27159  1.0000
  S   S27       1.0  0.10368  0.56948  0.30211  1.0000
  C   C41       1.0  0.17715  0.58361  0.18693  1.0000
  C   C42       1.0  0.15875  0.56797  0.20071  1.0000
  C   C43       1.0  0.15507  0.57180  0.22666  1.0000
  C   C44       1.0  0.16975  0.59141  0.23894  1.0000
  C   C45       1.0  0.18820  0.60695  0.22520  1.0000
  C   C46       1.0  0.19191  0.60309  0.19934  1.0000
  H   H65       1.0  0.14726  0.55283  0.19127  1.0000
  H   H66       1.0  0.14084  0.55967  0.23704  1.0000
  H   H67       1.0  0.19966  0.62216  0.23455  1.0000
  H   H68       1.0  0.20613  0.61528  0.18896  1.0000
  C   C47       1.0  0.29056  0.70213  0.13315  1.0000
  C   C48       1.0  0.28687  0.70433  0.10702  1.0000
  C   C49       1.0  0.30043  0.72410  0.09390  1.0000
  C   C50       1.0  0.31804  0.74138  0.10672  1.0000
  C   C51       1.0  0.32181  0.73903  0.13273  1.0000
  C   C52       1.0  0.30786  0.71962  0.14601  1.0000
  H   H69       1.0  0.27335  0.69098  0.09709  1.0000
  H   H70       1.0  0.29737  0.72590  0.07382  1.0000
  N   N5        1.0  0.20000  0.56274  0.30126  1.0000
  H   H71       1.0  0.31057  0.71814  0.16631  1.0000
  C   C53       1.0  0.33292  0.60849  0.13797  1.0000
  C   C54       1.0  0.33627  0.61163  0.11137  1.0000
  C   C55       1.0  0.31834  0.60756  0.09514  1.0000
  C   C56       1.0  0.29700  0.60019  0.10543  1.0000
  C   C57       1.0  0.29362  0.59729  0.13204  1.0000
  C   C58       1.0  0.31161  0.60147  0.14832  1.0000
  H   H72       1.0  0.17119  0.53504  0.31673  1.0000
  H   H73       1.0  0.32102  0.61037  0.07461  1.0000
  H   H74       1.0  0.27710  0.59149  0.14005  1.0000
  H   H75       1.0  0.30898  0.59909  0.16892  1.0000
  H   H76       1.0  0.33304  0.67044  0.17539  1.0000
  N   N6        1.0  0.04454  0.58004  0.30577  1.0000
  H   H77       1.0  0.07103  0.60443  0.28291  1.0000
  H   H78       1.0  0.05541  0.55548  0.29599  1.0000
  H   H79       1.0  0.21948  0.59646  0.03448  1.0000
  H   H80       1.0  0.16158  0.58952  0.03781  1.0000
  H   H81       1.0  0.27018  0.66322  0.01552  1.0000
  H   H82       1.0  0.34410  0.53146  0.08638  1.0000
  C   C59       1.0  0.30954  0.53481  0.06468  1.0000
  H   H83       1.0  0.19266  0.52838  0.30547  1.0000
  H   H84       1.0  0.34126  0.57166  0.04058  1.0000
  H   H85       1.0  0.31157  0.56183  0.10402  1.0000
  H   H86       1.0  0.15472  0.60151  0.10642  1.0000
  S   S28       1.0  0.33552  0.76577  0.09014  1.0000
  H   H87       1.0  0.11752  0.55606  0.06264  1.0000
  H   H88       1.0  0.14188  0.54410  0.08688  1.0000
  C   C60       1.0  0.31697  0.65750  0.12737  1.0000
  C   C61       1.0  0.20893  0.61852  0.01578  1.0000
  H   H89       1.0  0.35218  0.54400  0.05495  1.0000
  H   H90       1.0  0.35265  0.61720  0.10329  1.0000
  H   H91       1.0  0.20288  0.59571  0.30511  1.0000
  N   N7        1.0  0.32971  0.55297  0.07577  1.0000
  H   H92       1.0  0.23168  0.57298  0.31939  1.0000
  H   H93       1.0  0.12607  0.58510  0.05747  1.0000
  H   H94       1.0  0.33140  0.70056  0.11599  1.0000
  S   S29       1.0  0.35521  0.61370  0.15850  1.0000
  C   C62       1.0  0.32527  0.55695  0.10277  1.0000
  C   C63       1.0  0.19539  0.57936  0.31514  1.0000
  H   H95       1.0  0.31778  0.65067  0.10806  1.0000
  H   H96       1.0  0.31229  0.53163  0.04420  1.0000
  H   H97       1.0  0.32017  0.74682  0.00772  1.0000
  C   C64       1.0  0.04323  0.56136  0.28968  1.0000
  H   H98       1.0  0.22836  0.55843  0.28935  1.0000
  C   C65       1.0  0.02762  0.58674  0.29711  1.0000
  H   H99       1.0  0.32185  0.57758  0.05887  1.0000
  N   N8        1.0  0.33850  0.67612  0.13463  1.0000
  H   H100      1.0  0.11830  0.57354  0.08927  1.0000
  H   H101      1.0  0.16812  0.56446  0.09881  1.0000
  C   C66       1.0  0.33677  0.68379  0.16089  1.0000
  H   H102      1.0  0.33510  0.75241  0.14285  1.0000
  H   H103      1.0  0.32052  0.54193  0.11491  1.0000
  H   H104      1.0  0.17263  0.55433  0.27519  1.0000
  H   H105      1.0  0.15268  0.56030  0.04251  1.0000
  C   C67       1.0  0.18951  0.54138  0.31525  1.0000
  H   H106      1.0  0.16210  0.61322  0.07442  1.0000
  C   C68       1.0  0.21552  0.60164  0.01634  1.0000
  N   N9        1.0  0.15025  0.57780  0.07629  1.0000
  C   C69       1.0  0.16209  0.60023  0.08760  1.0000
  C   C70       1.0  0.12697  0.57288  0.07119  1.0000
  C   C71       1.0  0.15078  0.56128  0.09458  1.0000
  C   C72       1.0  0.16121  0.57689  0.05184  1.0000
  Fe  Fe13      1.0  0.09576  0.53480  0.31414  1.0000
  H   H107      1.0  0.19847  0.57564  0.26382  1.0000
  H   H108      1.0  0.19380  0.54723  0.26378  1.0000
  H   H109      1.0  0.14314  0.56188  0.11349  1.0000
  H   H110      1.0  0.34600  0.68948  0.09626  1.0000
  C   C73       1.0  0.33594  0.57338  0.06050  1.0000
  H   H111      1.0  0.19572  0.54312  0.33540  1.0000
  C   C74       1.0  0.34810  0.54676  0.07506  1.0000
  H   H112      1.0  0.17972  0.60449  0.09124  1.0000
  C   C75       1.0  0.34431  0.69460  0.11622  1.0000
  H   H113      1.0  0.29529  0.53893  0.06515  1.0000
  H   H114      1.0  0.34018  0.57056  0.11177  1.0000
  C   C76       1.0  0.22426  0.57054  0.29980  1.0000
  H   H115      1.0  0.32319  0.68878  0.16218  1.0000
  H   H116      1.0  0.17727  0.57401  0.31631  1.0000
  H   H117      1.0  0.03038  0.59230  0.27665  1.0000
  C   C77       1.0  0.04034  0.57300  0.33304  1.0000
  C   C78       1.0  0.32658  0.76337  0.01713  1.0000
  C   C79       1.0  0.19087  0.55979  0.27487  1.0000
  H   H118      1.0  0.23263  0.58668  0.28941  1.0000
  H   H119      1.0  0.06836  0.61352  0.31490  1.0000
  H   H120      1.0  0.07993  0.59471  0.31054  1.0000
  H   H121      1.0  0.32208  0.76055  0.03796  1.0000
  H   H122      1.0  0.04674  0.56614  0.26903  1.0000
  H   H123      1.0  0.29813  0.66789  0.00918  1.0000
  H   H124      1.0  0.02644  0.54688  0.29081  1.0000
  H   H125      1.0  0.35252  0.69831  0.16670  1.0000
  H   H126      1.0  0.35266  0.65539  0.14865  1.0000
  H   H127      1.0  0.20169  0.58186  0.33528  1.0000
  H   H128      1.0  0.35012  0.58784  0.06940  1.0000
  C   C80       1.0  0.35596  0.66863  0.13413  1.0000
  H   H129      1.0  0.02794  0.60062  0.30904  1.0000
  H   H130      1.0  0.35704  0.74778  0.01529  1.0000
  H   H131      1.0  0.35717  0.66183  0.11494  1.0000
  Fe  Fe14      1.0  0.13470  0.67651  0.48107  1.0000
  S   S30       1.0  0.13027  0.70691  0.47290  1.0000
  S   S31       1.0  0.15119  0.66217  0.45394  1.0000
  Fe  Fe15      1.0  0.11682  0.67219  0.53604  1.0000
  S   S32       1.0  0.11166  0.70269  0.53226  1.0000
  S   S33       1.0  0.10277  0.64887  0.56982  1.0000
  Fe  Fe16      1.0  0.09712  0.68830  0.49358  1.0000
  S   S34       1.0  0.06365  0.68261  0.47680  1.0000
  Fe  Fe17      1.0  0.14541  0.71852  0.51226  1.0000
  S   S35       1.0  0.10099  0.65733  0.49836  1.0000
  S   S36       1.0  0.15114  0.68859  0.51937  1.0000
  Fe  Fe18      1.0  0.13496  0.57437  0.65174  1.0000
  S   S37       1.0  0.15486  0.60467  0.62734  1.0000
  H   H132      1.0  0.16045  0.54675  0.50713  1.0000
  H   H133      1.0  0.05326  0.62784  0.49405  1.0000
  S   S38       1.0  0.10110  0.54861  0.64055  1.0000
  H   H134      1.0  0.23063  0.71143  0.45142  1.0000
  H   H135      1.0  0.22288  0.75090  0.49564  1.0000
  N   N10       1.0  0.20904  0.72236  0.47075  1.0000
  S   S39       1.0  0.15847  0.54168  0.37356  1.0000
  H   H136      1.0  0.19962  0.71291  0.51018  1.0000
  C   C81       1.0  0.22724  0.74418  0.47801  1.0000
  S   S40       1.0  0.17500  0.75156  0.52491  1.0000
  C   C82       1.0  0.03731  0.66541  0.49105  1.0000
  S   S41       1.0  0.14740  0.54960  0.66209  1.0000
  C   C83       1.0  0.21552  0.71362  0.44775  1.0000
  H   H137      1.0  0.04284  0.58710  0.34600  1.0000
  H   H138      1.0  0.05000  0.66283  0.52819  1.0000
  C   C84       1.0  0.11755  0.63524  0.58213  1.0000
  C   C85       1.0  0.14077  0.64511  0.58153  1.0000
  C   C86       1.0  0.15214  0.63512  0.59460  1.0000
  C   C87       1.0  0.14034  0.61508  0.60794  1.0000
  C   C88       1.0  0.11713  0.60464  0.60722  1.0000
  C   C89       1.0  0.10578  0.61488  0.59476  1.0000
  H   H139      1.0  0.14996  0.66089  0.57195  1.0000
  H   H140      1.0  0.17011  0.64325  0.59499  1.0000
  H   H141      1.0  0.10786  0.58903  0.61691  1.0000
  H   H142      1.0  0.08782  0.60714  0.59518  1.0000
  C   C90       1.0  0.13503  0.64391  0.42944  1.0000
  C   C91       1.0  0.11453  0.64262  0.42217  1.0000
  C   C92       1.0  0.10246  0.62844  0.40188  1.0000
  C   C93       1.0  0.11061  0.61522  0.38912  1.0000
  C   C94       1.0  0.13095  0.61635  0.39666  1.0000
  C   C95       1.0  0.14319  0.63078  0.41659  1.0000
  H   H143      1.0  0.10831  0.65294  0.43175  1.0000
  H   H144      1.0  0.08692  0.62787  0.39585  1.0000
  H   H145      1.0  0.13736  0.60621  0.38707  1.0000
  H   H146      1.0  0.15903  0.63171  0.42210  1.0000
  H   H147      1.0  0.12882  0.64198  0.63893  1.0000
  H   H148      1.0  0.21907  0.70411  0.49719  1.0000
  H   H149      1.0  0.07817  0.61677  0.46682  1.0000
  N   N11       1.0  0.04552  0.61227  0.45666  1.0000
  H   H150      1.0  0.05880  0.63280  0.42305  1.0000
  H   H151      1.0  0.24284  0.74305  0.48218  1.0000
  H   H152      1.0  0.18291  0.73041  0.48211  1.0000
  C   C96       1.0  0.05421  0.63394  0.44341  1.0000
  C   C97       1.0  0.15466  0.52857  0.50518  1.0000
  H   H153      1.0  0.06780  0.60231  0.43708  1.0000
  C   C98       1.0  0.18890  0.72486  0.46487  1.0000
  H   H154      1.0  0.19198  0.73722  0.44932  1.0000
  C   C99       1.0  0.20436  0.70669  0.49242  1.0000
  H   H155      1.0  0.16957  0.52564  0.50307  1.0000
  H   H156      1.0  0.10681  0.60302  0.65850  1.0000
  C   C100      1.0  0.03918  0.61463  0.48341  1.0000
  H   H157      1.0  0.02994  0.59361  0.42259  1.0000
  S   S42       1.0  0.10009  0.54212  0.35653  1.0000
  C   C101      1.0  0.15041  0.53057  0.45918  1.0000
  H   H158      1.0  0.19040  0.69013  0.48776  1.0000
  H   H159      1.0  0.03365  0.59895  0.49450  1.0000
  H   H160      1.0  0.21901  0.72497  0.43098  1.0000
  H   H161      1.0  0.17508  0.70889  0.45846  1.0000
  H   H162      1.0  0.04182  0.64060  0.44343  1.0000
  S   S43       1.0  0.09506  0.59745  0.36388  1.0000
  H   H163      1.0  0.06933  0.64662  0.45310  1.0000
  C   C102      1.0  0.06286  0.60459  0.45696  1.0000
  C   C103      1.0  0.12009  0.64744  0.65336  1.0000
  H   H164      1.0  0.15569  0.54872  0.46022  1.0000
  H   H165      1.0  0.05708  0.58849  0.46723  1.0000
  H   H166      1.0  0.10458  0.64585  0.64412  1.0000
  H   H167      1.0  0.08399  0.60942  0.66309  1.0000
  H   H168      1.0  0.04747  0.52032  0.64055  1.0000
  Fe  Fe19      1.0  0.11248  0.52397  0.65394  1.0000
  H   H169      1.0  0.02530  0.61925  0.48382  1.0000
  C   C104      1.0  0.03527  0.65789  0.51650  1.0000
  H   H170      1.0  0.12345  0.54012  0.48948  1.0000
  H   H171      1.0  0.20198  0.69712  0.44197  1.0000
  H   H172      1.0  0.13917  0.52398  0.44227  1.0000
  H   H173      1.0  0.23085  0.75669  0.46246  1.0000
  Fe  Fe20      1.0  0.13572  0.54996  0.34898  1.0000
  H   H174      1.0  0.13098  0.66537  0.65697  1.0000
  Fe  Fe21      1.0  0.11020  0.57731  0.34437  1.0000
  H   H175      1.0  0.16547  0.52829  0.45510  1.0000
  C   C105      1.0  0.02578  0.59594  0.44281  1.0000
  H   H176      1.0  0.14215  0.52269  0.60944  1.0000
  C   C106      1.0  0.11922  0.52223  0.48763  1.0000
  H   H177      1.0  0.14655  0.52072  0.52372  1.0000
  H   H178      1.0  0.05188  0.52450  0.33980  1.0000
  H   H179      1.0  0.05190  0.56642  0.33971  1.0000
  S   S44       1.0  0.14624  0.58590  0.34060  1.0000
  H   H180      1.0  0.18701  0.76996  0.47217  1.0000
  C   C107      1.0  0.09958  0.61088  0.67192  1.0000
  C   C108      1.0  0.13642  0.63522  0.68716  1.0000
  C   C109      1.0  0.25824  0.66260  0.96618  1.0000
  S   S45       1.0  0.34172  0.57844  0.88959  1.0000
  H   H181      1.0  0.31808  0.65323  0.85792  1.0000
  Fe  Fe22      1.0  0.13484  0.55119  0.70208  1.0000
  S   S46       1.0  0.15350  0.54988  0.73789  1.0000
  S   S47       1.0  0.12531  0.57806  0.69234  1.0000
  N   N12       1.0  0.11546  0.63423  0.67730  1.0000
  Fe  Fe23      1.0  0.21557  0.62394  0.85444  1.0000
  S   S48       1.0  0.22199  0.59480  0.86331  1.0000
  S   S49       1.0  0.19076  0.62400  0.82503  1.0000
  Fe  Fe24      1.0  0.25455  0.65584  0.88780  1.0000
  S   S50       1.0  0.26394  0.62917  0.89847  1.0000
  S   S51       1.0  0.27592  0.68868  0.90700  1.0000
  Fe  Fe25      1.0  0.25780  0.61891  0.85716  1.0000
  S   S52       1.0  0.28243  0.61436  0.83160  1.0000
  Fe  Fe26      1.0  0.22737  0.60805  0.90419  1.0000
  S   S53       1.0  0.21804  0.58741  0.94068  1.0000
  S   S54       1.0  0.25124  0.64729  0.84582  1.0000
  S   S55       1.0  0.21814  0.63540  0.89591  1.0000
  C   C110      1.0  0.21338  0.59885  0.96938  1.0000
  C   C111      1.0  0.20645  0.61549  0.96888  1.0000
  H   H182      1.0  0.32619  0.65869  0.82470  1.0000
  H   H183      1.0  0.20297  0.62095  0.95064  1.0000
  C   C112      1.0  0.20380  0.62495  0.99205  1.0000
  C   C113      1.0  0.33411  0.73704  0.85812  1.0000
  C   C114      1.0  0.31576  0.71984  0.84633  1.0000
  C   C115      1.0  0.29787  0.70497  0.86124  1.0000
  C   C116      1.0  0.29807  0.70741  0.88801  1.0000
  C   C117      1.0  0.31624  0.72487  0.89984  1.0000
  C   C118      1.0  0.33433  0.73961  0.88492  1.0000
  H   H184      1.0  0.31542  0.71798  0.82558  1.0000
  H   H185      1.0  0.28373  0.69194  0.85192  1.0000
  H   H186      1.0  0.31636  0.72697  0.92052  1.0000
  H   H187      1.0  0.26332  0.62607  0.96026  1.0000
  C   C119      1.0  0.32550  0.58901  0.87397  1.0000
  C   C120      1.0  0.30424  0.58397  0.88336  1.0000
  C   C121      1.0  0.29106  0.59212  0.87076  1.0000
  C   C122      1.0  0.29884  0.60463  0.84823  1.0000
  C   C123      1.0  0.32000  0.60952  0.83873  1.0000
  C   C124      1.0  0.33347  0.60209  0.85185  1.0000
  H   H188      1.0  0.29803  0.57390  0.90050  1.0000
  H   H189      1.0  0.27469  0.58826  0.87816  1.0000
  H   H190      1.0  0.32607  0.61919  0.82129  1.0000
  H   H191      1.0  0.22249  0.57855  0.99379  1.0000
  H   H192      1.0  0.19840  0.63779  0.99148  1.0000
  H   H193      1.0  0.34234  0.67778  0.89206  1.0000
  H   H194      1.0  0.22980  0.56423  0.77919  1.0000
  C   C125      1.0  0.16131  0.56980  0.76292  1.0000
  C   C126      1.0  0.16151  0.59043  0.75952  1.0000
  C   C127      1.0  0.17008  0.60673  0.77897  1.0000
  C   C128      1.0  0.17865  0.60260  0.80185  1.0000
  C   C129      1.0  0.17792  0.58180  0.80549  1.0000
  C   C130      1.0  0.16930  0.56548  0.78611  1.0000
  H   H195      1.0  0.15552  0.59399  0.74171  1.0000
  H   H196      1.0  0.17046  0.62275  0.77609  1.0000
  H   H197      1.0  0.18399  0.57826  0.82327  1.0000
  H   H198      1.0  0.16908  0.54952  0.78895  1.0000
  N   N13       1.0  0.23882  0.59835  0.77021  1.0000
  C   C131      1.0  0.24046  0.61838  0.78363  1.0000
  C   C132      1.0  0.26085  0.60274  0.75979  1.0000
  C   C133      1.0  0.22273  0.59268  0.74886  1.0000
  C   C134      1.0  0.23131  0.57967  0.78862  1.0000
  H   H199      1.0  0.22436  0.61544  0.79268  1.0000
  H   H200      1.0  0.24531  0.63265  0.77022  1.0000
  H   H201      1.0  0.25302  0.62355  0.79925  1.0000
  H   H202      1.0  0.27328  0.60682  0.77553  1.0000
  H   H203      1.0  0.26016  0.58803  0.74932  1.0000
  H   H204      1.0  0.26724  0.61699  0.74617  1.0000
  H   H205      1.0  0.21996  0.57691  0.73915  1.0000
  H   H206      1.0  0.22833  0.60598  0.73402  1.0000
  H   H207      1.0  0.20630  0.59048  0.75594  1.0000
  H   H208      1.0  0.21482  0.57594  0.79699  1.0000
  H   H209      1.0  0.24304  0.58347  0.80504  1.0000
  C   C135      1.0  0.03662  0.52800  0.69493  1.0000
  H   H210      1.0  0.28418  0.63193  0.98453  1.0000
  H   H211      1.0  0.11734  0.66091  0.70153  1.0000
  C   C136      1.0  0.35009  0.69085  0.87711  1.0000
  H   H212      1.0  0.34985  0.60616  0.84451  1.0000
  C   C137      1.0  0.21727  0.59152  0.99324  1.0000
  H   H213      1.0  0.25697  0.62781  0.99353  1.0000
  H   H214      1.0  0.31035  0.66680  0.96398  1.0000
  S   S56       1.0  0.06046  0.55306  0.68856  1.0000
  C   C138      1.0  0.10578  0.64335  0.69682  1.0000
  C   C139      1.0  0.29578  0.66890  0.95735  1.0000
  Fe  Fe27      1.0  0.09213  0.55023  0.68185  1.0000
  H   H215      1.0  0.26318  0.68041  0.96223  1.0000
  H   H216      1.0  0.09483  0.60067  0.68982  1.0000
  C   C140      1.0  0.27014  0.63525  0.97862  1.0000
  H   H217      1.0  0.30115  0.68693  0.95433  1.0000
  H   H218      1.0  0.31718  0.67630  0.84197  1.0000
  C   C141      1.0  0.32689  0.66672  0.84368  1.0000
  H   H219      1.0  0.10201  0.63368  0.71510  1.0000
  H   H220      1.0  0.25155  0.65340  0.94783  1.0000
  H   H221      1.0  0.13363  0.62552  0.70530  1.0000
  H   H222      1.0  0.32890  0.54157  0.84779  1.0000
  H   H223      1.0  0.34830  0.75305  0.89408  1.0000
  H   H224      1.0  0.24439  0.65681  0.98037  1.0000
  H   H225      1.0  0.08997  0.64283  0.68986  1.0000
  H   H226      1.0  0.14892  0.65259  0.69120  1.0000
  H   H227      1.0  0.29092  0.66087  0.93809  1.0000
  N   N14       1.0  0.27707  0.65925  0.97582  1.0000
  C   C142      1.0  0.28405  0.67021  0.00119  1.0000
  H   H228      1.0  0.28927  0.68833  0.99980  1.0000
  H   H229      1.0  0.33056  0.54522  0.81330  1.0000
  C   C143      1.0  0.34057  0.54816  0.83114  1.0000
  S   S57       1.0  0.35677  0.75434  0.83885  1.0000
  S   S58       1.0  0.10066  0.52341  0.69470  1.0000
  N   N15       1.0  0.35004  0.68106  0.85157  1.0000
  H   H230      1.0  0.35143  0.70883  0.82995  1.0000
  N   N16       1.0  0.35587  0.53795  0.82956  1.0000
  H   H231      1.0  0.35396  0.65324  0.86634  1.0000
  H   H232      1.0  0.34066  0.70073  0.87668  1.0000
  H   H233      1.0  0.35013  0.76381  0.97509  1.0000
  H   H234      1.0  0.34976  0.56642  0.83402  1.0000
  H   H235      1.0  0.35746  0.53566  0.87088  1.0000
  H   H236      1.0  0.14403  0.62822  0.67289  1.0000
  H   H237      1.0  0.31752  0.77214  0.00889  1.0000
  C   C144      1.0  0.34789  0.84159  0.30445  1.0000
  H   H238      1.0  0.33582  0.82665  0.31504  1.0000
  H   H239      1.0  0.35494  0.79602  0.04765  1.0000
  H   H240      1.0  0.34237  0.85475  0.30674  1.0000
  H   H241      1.0  0.34679  0.83722  0.28360  1.0000
  N   N17       1.0  0.35084  0.77635  0.01352  1.0000
  H   H242      1.0  0.35038  0.80779  0.01862  1.0000
  H   H243      1.0  0.22975  0.86609  0.53035  1.0000
  H   H244      1.0  0.22178  0.89593  0.51259  1.0000
  S   S59       1.0  0.31669  0.88728  0.46416  1.0000
  H   H245      1.0  0.23635  0.91095  0.48432  1.0000
  Fe  Fe28      1.0  0.33217  0.87910  0.53321  1.0000
  S   S60       1.0  0.30289  0.88565  0.52509  1.0000
  C   C145      1.0  0.33342  0.98748  0.48393  1.0000
  Fe  Fe29      1.0  0.29510  0.86084  0.49268  1.0000
  S   S61       1.0  0.26062  0.83503  0.47818  1.0000
  Fe  Fe30      1.0  0.32643  0.91161  0.49739  1.0000
  S   S62       1.0  0.32456  0.94429  0.49102  1.0000
  S   S63       1.0  0.32282  0.85267  0.50292  1.0000
  H   H246      1.0  0.25072  0.86045  0.51564  1.0000
  H   H247      1.0  0.27069  0.88120  0.47667  1.0000
  H   H248      1.0  0.25853  0.88595  0.53288  1.0000
  H   H249      1.0  0.31692  0.98024  0.47573  1.0000
  C   C146      1.0  0.21650  0.78785  0.52753  1.0000
  C   C147      1.0  0.34565  0.01065  0.48516  1.0000
  H   H250      1.0  0.25074  0.91543  0.51441  1.0000
  C   C148      1.0  0.20056  0.77971  0.48496  1.0000
  C   C149      1.0  0.21962  0.79813  0.47528  1.0000
  C   C150      1.0  0.23734  0.81150  0.49157  1.0000
  C   C151      1.0  0.23565  0.80614  0.51781  1.0000
  Fe  Fe31      1.0  0.34481  0.88071  0.47717  1.0000
  H   H251      1.0  0.26497  0.90262  0.46376  1.0000
  H   H252      1.0  0.22056  0.80214  0.45499  1.0000
  H   H253      1.0  0.24901  0.81616  0.53071  1.0000
  H   H254      1.0  0.27908  0.90680  0.49396  1.0000
  N   N18       1.0  0.24403  0.88463  0.49566  1.0000
  C   C152      1.0  0.22681  0.86796  0.47899  1.0000
  C   C153      1.0  0.23791  0.90251  0.50203  1.0000
  C   C154      1.0  0.26561  0.89423  0.48193  1.0000
  C   C155      1.0  0.24582  0.87385  0.51970  1.0000
  H   H255      1.0  0.21031  0.86028  0.48875  1.0000
  H   H256      1.0  0.23098  0.85423  0.47391  1.0000
  H   H257      1.0  0.22507  0.87542  0.46058  1.0000
  S   S64       1.0  0.35608  0.90669  0.50826  1.0000
  S   S65       1.0  0.34199  0.87017  0.57130  1.0000
  C   C156      1.0  0.34209  0.97356  0.49323  1.0000
  C   C157      1.0  0.19880  0.77441  0.51124  1.0000
  H   H258      1.0  0.21539  0.78405  0.54790  1.0000
  H   H259      1.0  0.34804  0.86753  0.67010  1.0000
  H   H260      1.0  0.34825  0.78952  0.97660  1.0000
  C   C158      1.0  0.35601  0.77982  0.98566  1.0000
  H   H261      1.0  0.57168  0.13433  0.20046  1.0000
  H   H262      1.0  0.66426  0.15515  0.10860  1.0000
  H   H263      1.0  0.61770  0.18072  0.31704  1.0000
  S   S66       1.0  0.56082  0.10959  0.31461  1.0000
  Fe  Fe32      1.0  0.55475  0.07404  0.31753  1.0000
  Fe  Fe33      1.0  0.59574  0.11684  0.30403  1.0000
  S   S67       1.0  0.61769  0.14574  0.27815  1.0000
  S   S68       1.0  0.58881  0.08081  0.30336  1.0000
  Fe  Fe34      1.0  0.61928  0.20370  0.14715  1.0000
  S   S69       1.0  0.65517  0.21314  0.13918  1.0000
  S   S70       1.0  0.59671  0.17107  0.16678  1.0000
  Fe  Fe35      1.0  0.62151  0.24393  0.11748  1.0000
  C   C159      1.0  0.63292  0.14845  0.14483  1.0000
  N   N19       1.0  0.62998  0.14673  0.11652  1.0000
  Fe  Fe36      1.0  0.64789  0.22026  0.09890  1.0000
  S   S71       1.0  0.66121  0.21013  0.06388  1.0000
  Fe  Fe37      1.0  0.66081  0.24775  0.14818  1.0000
  H   H264      1.0  0.59693  0.19517  0.00893  1.0000
  S   S72       1.0  0.61162  0.20869  0.10602  1.0000
  S   S73       1.0  0.62540  0.23796  0.15934  1.0000
  C   C160      1.0  0.62515  0.20242  0.03331  1.0000
  C   C161      1.0  0.64796  0.20897  0.03422  1.0000
  H   H265      1.0  0.57980  0.22203  0.01583  1.0000
  H   H266      1.0  0.61543  0.19804  0.05087  1.0000
  H   H267      1.0  0.61126  0.15405  0.08782  1.0000
  H   H268      1.0  0.62973  0.26646  0.04612  1.0000
  C   C162      1.0  0.61907  0.25190  0.03401  1.0000
  H   H269      1.0  0.61916  0.17194  0.11537  1.0000
  H   H270      1.0  0.61938  0.12150  0.08723  1.0000
  H   H271      1.0  0.59716  0.14455  0.11839  1.0000
  C   C163      1.0  0.60252  0.16438  0.19794  1.0000
  C   C164      1.0  0.62237  0.17786  0.21055  1.0000
  C   C165      1.0  0.62675  0.17178  0.23501  1.0000
  C   C166      1.0  0.61136  0.15225  0.24716  1.0000
  C   C167      1.0  0.59141  0.13884  0.23466  1.0000
  C   C168      1.0  0.58709  0.14485  0.21008  1.0000
  H   H272      1.0  0.63440  0.19293  0.20143  1.0000
  H   H273      1.0  0.64221  0.18227  0.24456  1.0000
  H   H274      1.0  0.57941  0.12379  0.24382  1.0000
  H   H275      1.0  0.64973  0.15999  0.08221  1.0000
  H   H276      1.0  0.64511  0.14267  0.15131  1.0000
  H   H277      1.0  0.63379  0.11688  0.11381  1.0000
  H   H278      1.0  0.63016  0.24754  0.02179  1.0000
  H   H279      1.0  0.57507  0.15312  0.28771  1.0000
  C   C169      1.0  0.56396  0.16757  0.33160  1.0000
  H   H280      1.0  0.60899  0.21177  0.30702  1.0000
  C   C170      1.0  0.65144  0.16056  0.10361  1.0000
  C   C171      1.0  0.58091  0.17134  0.28949  1.0000
  C   C172      1.0  0.59316  0.20296  0.31802  1.0000
  H   H281      1.0  0.60563  0.11253  0.11786  1.0000
  H   H282      1.0  0.63891  0.16585  0.15163  1.0000
  S   S74       1.0  0.52212  0.04587  0.30545  1.0000
  H   H283      1.0  0.56821  0.17526  0.28043  1.0000
  H   H284      1.0  0.65808  0.17833  0.10916  1.0000
  S   S75       1.0  0.65734  0.25597  0.10723  1.0000
  C   C173      1.0  0.66023  0.21398  0.01112  1.0000
  H   H285      1.0  0.61693  0.13849  0.15515  1.0000
  H   H286      1.0  0.58094  0.20800  0.30976  1.0000
  H   H287      1.0  0.59642  0.17942  0.27776  1.0000
  C   C174      1.0  0.61362  0.15455  0.10909  1.0000
  H   H288      1.0  0.55553  0.03106  0.29519  1.0000
  S   S76       1.0  0.60605  0.26399  0.09966  1.0000
  C   C175      1.0  0.62184  0.12335  0.10849  1.0000
  C   C176      1.0  0.58942  0.26255  0.03527  1.0000
  H   H289      1.0  0.57993  0.24903  0.04928  1.0000
  N   N20       1.0  0.58489  0.17865  0.31671  1.0000
  C   C177      1.0  0.61469  0.20081  0.00951  1.0000
  N   N21       1.0  0.60346  0.25651  0.01819  1.0000
  H   H290      1.0  0.61006  0.23783  0.04752  1.0000
  C   C178      1.0  0.60165  0.17277  0.32778  1.0000
  H   H291      1.0  0.57727  0.26597  0.02412  1.0000
  H   H292      1.0  0.55087  0.17161  0.32392  1.0000
  H   H293      1.0  0.59598  0.15461  0.32675  1.0000
  H   H294      1.0  0.67786  0.21884  0.01166  1.0000
  H   H295      1.0  0.55729  0.14920  0.33115  1.0000
  H   H296      1.0  0.59638  0.20900  0.33831  1.0000
  S   S77       1.0  0.61435  0.06854  0.36749  1.0000
  H   H297      1.0  0.66980  0.03149  0.49518  1.0000
  S   S78       1.0  0.56655  0.13409  0.38505  1.0000
  H   H298      1.0  0.67864  0.04697  0.42446  1.0000
  H   H299      1.0  0.56646  0.17245  0.35234  1.0000
  Fe  Fe38      1.0  0.45711  0.10552  0.53459  1.0000
  S   S79       1.0  0.42514  0.10804  0.52931  1.0000
  S   S80       1.0  0.46846  0.10531  0.57546  1.0000
  Fe  Fe39      1.0  0.46204  0.09885  0.47758  1.0000
  S   S81       1.0  0.43090  0.10148  0.46855  1.0000
  S   S82       1.0  0.47496  0.08509  0.44529  1.0000
  Fe  Fe40      1.0  0.44313  0.13061  0.49606  1.0000
  S   S83       1.0  0.44083  0.16177  0.48123  1.0000
  Fe  Fe41      1.0  0.41584  0.07879  0.50236  1.0000
  S   S84       1.0  0.38087  0.05049  0.49590  1.0000
  S   S85       1.0  0.47571  0.12945  0.50267  1.0000
  S   S86       1.0  0.44635  0.07489  0.51023  1.0000
  C   C179      1.0  0.51043  0.06788  0.63441  1.0000
  S   S87       1.0  0.64362  0.10897  0.64293  1.0000
  Fe  Fe42      1.0  0.58118  0.12904  0.63516  1.0000
  S   S88       1.0  0.57074  0.13742  0.59714  1.0000
  S   S89       1.0  0.58137  0.09603  0.63735  1.0000
  C   C180      1.0  0.38793  0.13588  0.51080  1.0000
  Fe  Fe43      1.0  0.61476  0.11497  0.65561  1.0000
  H   H300      1.0  0.52878  0.03462  0.60387  1.0000
  H   H301      1.0  0.64851  0.11252  0.35344  1.0000
  C   C181      1.0  0.49705  0.11511  0.58122  1.0000
  C   C182      1.0  0.51245  0.12167  0.56098  1.0000
  C   C183      1.0  0.53510  0.12889  0.56616  1.0000
  C   C184      1.0  0.54242  0.12935  0.59153  1.0000
  C   C185      1.0  0.52702  0.12283  0.61178  1.0000
  C   C186      1.0  0.50440  0.11585  0.60662  1.0000
  H   H302      1.0  0.50694  0.12118  0.54134  1.0000
  H   H303      1.0  0.54697  0.13397  0.55043  1.0000
  H   H304      1.0  0.53256  0.12338  0.63139  1.0000
  H   H305      1.0  0.49255  0.11101  0.62234  1.0000
  C   C187      1.0  0.43746  0.22436  0.51395  1.0000
  C   C188      1.0  0.43549  0.20707  0.53057  1.0000
  C   C189      1.0  0.43717  0.18817  0.52116  1.0000
  C   C190      1.0  0.44041  0.18604  0.49479  1.0000
  C   C191      1.0  0.44228  0.20328  0.47817  1.0000
  C   C192      1.0  0.44104  0.22237  0.48765  1.0000
  H   H306      1.0  0.43270  0.20830  0.55093  1.0000
  H   H307      1.0  0.43574  0.17518  0.53429  1.0000
  H   H308      1.0  0.44478  0.20191  0.45775  1.0000
  H   H309      1.0  0.44253  0.23539  0.47453  1.0000
  C   C193      1.0  0.54113  0.12072  0.40194  1.0000
  C   C194      1.0  0.52580  0.09911  0.39543  1.0000
  C   C195      1.0  0.50566  0.08853  0.40898  1.0000
  C   C196      1.0  0.50059  0.09945  0.42910  1.0000
  C   C197      1.0  0.51586  0.12113  0.43564  1.0000
  C   C198      1.0  0.53613  0.13175  0.42205  1.0000
  H   H310      1.0  0.52938  0.09052  0.37984  1.0000
  H   H311      1.0  0.49392  0.07179  0.40377  1.0000
  H   H312      1.0  0.51209  0.12967  0.45115  1.0000
  H   H313      1.0  0.54791  0.14849  0.42718  1.0000
  C   C199      1.0  0.41347  0.04762  0.43144  1.0000
  C   C200      1.0  0.52665  0.07213  0.59192  1.0000
  C   C201      1.0  0.66997  0.09042  0.41037  1.0000
  C   C202      1.0  0.63709  0.12047  0.59401  1.0000
  C   C203      1.0  0.64870  0.11237  0.60949  1.0000
  C   C204      1.0  0.66474  0.10719  0.59820  1.0000
  C   C205      1.0  0.66914  0.11013  0.57156  1.0000
  H   H314      1.0  0.62469  0.12453  0.60251  1.0000
  H   H315      1.0  0.67361  0.10072  0.61006  1.0000
  C   C206      1.0  0.49163  0.04051  0.60152  1.0000
  H   H316      1.0  0.63091  0.13010  0.47709  1.0000
  C   C207      1.0  0.38623  0.12634  0.46565  1.0000
  C   C208      1.0  0.64896  0.07728  0.39985  1.0000
  C   C209      1.0  0.64104  0.08529  0.37952  1.0000
  C   C210      1.0  0.65441  0.10636  0.36937  1.0000
  C   C211      1.0  0.67573  0.11929  0.37948  1.0000
  H   H317      1.0  0.63336  0.10510  0.47204  1.0000
  H   H318      1.0  0.63870  0.06093  0.40764  1.0000
  H   H319      1.0  0.48227  0.04959  0.59499  1.0000
  H   H320      1.0  0.40158  0.12414  0.46651  1.0000
  N   N22       1.0  0.51356  0.05595  0.61204  1.0000
  C   C212      1.0  0.36697  0.02075  0.49579  1.0000
  C   C213      1.0  0.43293  0.02646  0.41948  1.0000
  H   H321      1.0  0.37599  0.11575  0.44961  1.0000
  H   H322      1.0  0.43736  0.24776  0.62052  1.0000
  C   C214      1.0  0.52545  0.04329  0.62034  1.0000
  N   N23       1.0  0.41692  0.02811  0.43789  1.0000
  H   H323      1.0  0.48125  0.02818  0.61626  1.0000
  H   H324      1.0  0.39234  0.15346  0.50602  1.0000
  H   H325      1.0  0.41517  0.03383  0.47840  1.0000
  H   H326      1.0  0.54167  0.05432  0.62933  1.0000
  H   H327      1.0  0.40388  0.13500  0.51312  1.0000
  H   H328      1.0  0.40682  0.04639  0.41162  1.0000
  S   S90       1.0  0.56307  0.07642  0.35955  1.0000
  H   H329      1.0  0.59032  0.08061  0.44107  1.0000
  H   H330      1.0  0.64728  0.14373  0.43374  1.0000
  C   C215      1.0  0.60628  0.09070  0.43086  1.0000
  H   H331      1.0  0.59886  0.12503  0.41686  1.0000
  H   H332      1.0  0.60245  0.09051  0.40995  1.0000
  S   S91       1.0  0.43429  0.24741  0.52697  1.0000
  H   H333      1.0  0.50175  0.05635  0.65058  1.0000
  H   H334      1.0  0.63552  0.12668  0.40575  1.0000
  C   C216      1.0  0.63847  0.12628  0.42681  1.0000
  H   H335      1.0  0.61689  0.08210  0.43293  1.0000
  H   H336      1.0  0.50047  0.07663  0.62921  1.0000
  H   H337      1.0  0.38445  0.09551  0.49917  1.0000
  H   H338      1.0  0.65002  0.11878  0.42926  1.0000
  N   N24       1.0  0.61745  0.11361  0.44104  1.0000
  C   C217      1.0  0.60277  0.12432  0.43760  1.0000
  H   H339      1.0  0.61055  0.14163  0.44511  1.0000
  C   C218      1.0  0.62230  0.11309  0.46875  1.0000
  C   C219      1.0  0.65761  0.11840  0.55616  1.0000
  H   H340      1.0  0.42679  0.02451  0.39931  1.0000
  H   H341      1.0  0.42931  0.06324  0.43246  1.0000
  H   H342      1.0  0.52665  0.08057  0.64196  1.0000
  H   H343      1.0  0.58663  0.11509  0.44786  1.0000
  C   C220      1.0  0.64154  0.12349  0.56745  1.0000
  H   H344      1.0  0.60686  0.10371  0.48021  1.0000
  C   C221      1.0  0.68346  0.11142  0.40016  1.0000
  C   C222      1.0  0.36902  0.09749  0.49746  1.0000
  H   H345      1.0  0.63255  0.12988  0.55567  1.0000
  H   H346      1.0  0.49336  0.03115  0.58466  1.0000
  H   H347      1.0  0.37941  0.13202  0.52987  1.0000
  H   H348      1.0  0.54301  0.08465  0.59939  1.0000
  H   H349      1.0  0.67587  0.08405  0.42596  1.0000
  Fe  Fe44      1.0  0.59755  0.08544  0.34551  1.0000
  C   C223      1.0  0.45083  0.25556  0.60594  1.0000
  H   H350      1.0  0.51572  0.03052  0.63500  1.0000
  S   S92       1.0  0.61568  0.14835  0.65086  1.0000
  S   S93       1.0  0.66330  0.12315  0.52293  1.0000
  H   H351      1.0  0.39160  0.14404  0.46050  1.0000
  H   H352      1.0  0.52998  0.06387  0.57504  1.0000
  N   N25       1.0  0.37408  0.12051  0.49049  1.0000
  H   H353      1.0  0.44548  0.24521  0.58807  1.0000
  Fe  Fe45      1.0  0.57224  0.11247  0.35558  1.0000
  H   H354      1.0  0.60485  0.17759  0.34846  1.0000
  H   H355      1.0  0.44923  0.04168  0.42006  1.0000
  H   H356      1.0  0.36016  0.09249  0.51629  1.0000
  H   H357      1.0  0.68618  0.13546  0.37137  1.0000
  H   H358      1.0  0.51777  0.08146  0.58471  1.0000
  H   H359      1.0  0.44272  0.04482  0.46564  1.0000
  S   S94       1.0  0.60761  0.12180  0.34525  1.0000
  C   C224      1.0  0.42583  0.03060  0.46431  1.0000
  H   H360      1.0  0.46586  0.25465  0.61326  1.0000
  H   H361      1.0  0.68900  0.03124  0.44306  1.0000
  H   H362      1.0  0.40159  0.04946  0.44510  1.0000
  H   H363      1.0  0.68124  0.10576  0.56295  1.0000
  S   S95       1.0  0.68843  0.09471  0.47751  1.0000
  H   H364      1.0  0.35859  0.08535  0.48264  1.0000
  C   C225      1.0  0.67813  0.02107  0.49574  1.0000
  H   H365      1.0  0.42942  0.26932  0.57241  1.0000
  Fe  Fe46      1.0  0.63485  0.19642  0.86466  1.0000
  S   S96       1.0  0.65329  0.20029  0.90197  1.0000
  S   S97       1.0  0.62876  0.16706  0.83867  1.0000
  Fe  Fe47      1.0  0.63454  0.24109  0.87116  1.0000
  S   S98       1.0  0.65362  0.24920  0.90826  1.0000
  H   H366      1.0  0.57733  0.12443  0.73322  1.0000
  H   H367      1.0  0.66895  0.20788  0.80918  1.0000
  C   C226      1.0  0.58923  0.23654  0.00309  1.0000
  Fe  Fe48      1.0  0.63094  0.21371  0.91857  1.0000
  S   S99       1.0  0.61312  0.20513  0.95727  1.0000
  S   S100      1.0  0.65740  0.23054  0.85056  1.0000
  S   S101      1.0  0.61027  0.20647  0.88241  1.0000
  Fe  Fe49      1.0  0.67426  0.23524  0.88869  1.0000
  H   H368      1.0  0.67064  0.18366  0.79803  1.0000
  H   H369      1.0  0.55976  0.09510  0.73447  1.0000
  S   S102      1.0  0.62522  0.26438  0.84956  1.0000
  Fe  Fe50      1.0  0.59960  0.14200  0.69018  1.0000
  S   S103      1.0  0.60695  0.16935  0.71982  1.0000
  S   S104      1.0  0.60132  0.10990  0.69631  1.0000
  C   C227      1.0  0.62302  0.16801  0.80559  1.0000
  C   C228      1.0  0.61981  0.18548  0.79545  1.0000
  C   C229      1.0  0.61538  0.18584  0.76903  1.0000
  C   C230      1.0  0.61419  0.16883  0.75247  1.0000
  C   C231      1.0  0.61783  0.15156  0.76253  1.0000
  C   C232      1.0  0.62206  0.15108  0.78903  1.0000
  H   H370      1.0  0.62052  0.19863  0.80799  1.0000
  H   H371      1.0  0.61261  0.19928  0.76141  1.0000
  H   H372      1.0  0.61737  0.13858  0.74990  1.0000
  H   H373      1.0  0.62474  0.13761  0.79671  1.0000
  C   C233      1.0  0.62699  0.20631  0.98645  1.0000
  S   S105      1.0  0.53647  0.06567  0.69198  1.0000
  C   C234      1.0  0.64984  0.21293  0.98730  1.0000
  C   C235      1.0  0.53494  0.03919  0.68760  1.0000
  H   H374      1.0  0.65944  0.21704  0.96961  1.0000
  C   C236      1.0  0.68073  0.20168  0.80209  1.0000
  Fe  Fe51      1.0  0.56785  0.09418  0.67727  1.0000
  H   H375      1.0  0.59928  0.23183  0.98957  1.0000
  H   H376      1.0  0.57702  0.23929  0.99120  1.0000
  H   H377      1.0  0.57682  0.10913  0.76161  1.0000
  N   N26       1.0  0.54823  0.11491  0.75659  1.0000
  C   C237      1.0  0.55781  0.13560  0.77198  1.0000
  C   C238      1.0  0.53516  0.11727  0.73509  1.0000
  C   C239      1.0  0.53372  0.09606  0.77309  1.0000
  C   C240      1.0  0.56632  0.11067  0.74605  1.0000
  H   H378      1.0  0.56822  0.15021  0.75974  1.0000
  H   H379      1.0  0.56870  0.13490  0.78765  1.0000
  H   H380      1.0  0.54466  0.13901  0.78097  1.0000
  H   H381      1.0  0.52092  0.11983  0.74224  1.0000
  H   H382      1.0  0.54559  0.13180  0.72276  1.0000
  H   H383      1.0  0.52848  0.10230  0.72242  1.0000
  H   H384      1.0  0.52639  0.08024  0.76191  1.0000
  H   H385      1.0  0.51978  0.09859  0.78135  1.0000
  H   H386      1.0  0.54316  0.09386  0.78944  1.0000
  C   C241      1.0  0.55388  0.03676  0.68126  1.0000
  H   H387      1.0  0.49974  0.02209  0.69528  1.0000
  S   S106      1.0  0.56508  0.12588  0.67373  1.0000
  H   H388      1.0  0.62185  0.26740  0.90499  1.0000
  H   H389      1.0  0.67802  0.17593  0.84266  1.0000
  H   H390      1.0  0.56974  0.05127  0.67901  1.0000
  H   H391      1.0  0.68774  0.21015  0.78347  1.0000
  H   H392      1.0  0.67656  0.20026  0.85354  1.0000
  C   C242      1.0  0.68806  0.19414  0.84555  1.0000
  C   C243      1.0  0.51445  0.02028  0.69043  1.0000
  Fe  Fe52      1.0  0.56509  0.43525  0.30825  1.0000
  S   S107      1.0  0.53690  0.44334  0.31712  1.0000
  S   S108      1.0  0.56121  0.41325  0.27356  1.0000
  H   H393      1.0  0.55377  0.46964  0.20308  1.0000
  C   C244      1.0  0.63752  0.38980  0.22257  1.0000
  S   S109      1.0  0.59191  0.47012  0.31321  1.0000
  Fe  Fe53      1.0  0.62580  0.42343  0.14496  1.0000
  S   S110      1.0  0.64070  0.43439  0.10523  1.0000
  S   S111      1.0  0.62021  0.44695  0.17222  1.0000
  Fe  Fe54      1.0  0.62904  0.37991  0.14126  1.0000
  S   S112      1.0  0.64397  0.38715  0.10180  1.0000
  S   S113      1.0  0.62610  0.35051  0.16434  1.0000
  Fe  Fe55      1.0  0.66470  0.42143  0.11667  1.0000
  Fe  Fe56      1.0  0.61871  0.39922  0.09342  1.0000
  S   S114      1.0  0.60066  0.38730  0.05560  1.0000
  S   S115      1.0  0.65185  0.41341  0.15708  1.0000
  S   S116      1.0  0.60166  0.38901  0.13222  1.0000
  N   N27       1.0  0.56837  0.48666  0.23840  1.0000
  Fe  Fe57      1.0  0.56382  0.47760  0.32487  1.0000
  C   C245      1.0  0.62051  0.30823  0.15814  1.0000
  C   C246      1.0  0.61941  0.32628  0.14629  1.0000
  C   C247      1.0  0.61378  0.32502  0.12021  1.0000
  C   C248      1.0  0.60931  0.30569  0.10602  1.0000
  C   C249      1.0  0.60863  0.39301  0.24716  1.0000
  H   H394      1.0  0.62480  0.30909  0.17832  1.0000
  H   H395      1.0  0.61263  0.33880  0.11101  1.0000
  H   H396      1.0  0.55760  0.50947  0.25495  1.0000
  C   C250      1.0  0.62569  0.42464  0.02638  1.0000
  C   C251      1.0  0.61211  0.40170  0.02669  1.0000
  H   H397      1.0  0.64158  0.38091  0.20688  1.0000
  H   H398      1.0  0.62905  0.43399  0.04417  1.0000
  H   H399      1.0  0.60758  0.34702  0.21882  1.0000
  H   H400      1.0  0.67120  0.31052  0.11305  1.0000
  C   C252      1.0  0.51813  0.48858  0.30530  1.0000
  H   H401      1.0  0.58462  0.37692  0.20515  1.0000
  H   H402      1.0  0.61056  0.39944  0.19485  1.0000
  C   C253      1.0  0.57725  0.42359  0.24532  1.0000
  C   C254      1.0  0.57020  0.41137  0.22236  1.0000
  C   C255      1.0  0.58311  0.41850  0.19977  1.0000
  C   C256      1.0  0.60336  0.43776  0.20008  1.0000
  C   C257      1.0  0.61016  0.45029  0.22288  1.0000
  C   C258      1.0  0.59723  0.44316  0.24550  1.0000
  H   H403      1.0  0.55467  0.39628  0.22205  1.0000
  H   H404      1.0  0.57744  0.40907  0.18210  1.0000
  H   H405      1.0  0.62575  0.46532  0.22318  1.0000
  H   H406      1.0  0.60300  0.45249  0.26319  1.0000
  H   H407      1.0  0.60486  0.30474  0.08590  1.0000
  H   H408      1.0  0.56030  0.45590  0.25799  1.0000
  H   H409      1.0  0.64487  0.40763  0.21700  1.0000
  C   C259      1.0  0.49737  0.48847  0.30304  1.0000
  H   H410      1.0  0.59814  0.48643  0.25260  1.0000
  H   H411      1.0  0.59046  0.38649  0.25073  1.0000
  N   N28       1.0  0.61325  0.38044  0.22657  1.0000
  C   C260      1.0  0.60418  0.35685  0.23402  1.0000
  H   H412      1.0  0.58976  0.50451  0.26979  1.0000
  H   H413      1.0  0.68592  0.40195  0.06421  1.0000
  H   H414      1.0  0.66204  0.30742  0.14600  1.0000
  H   H415      1.0  0.61166  0.35485  0.25228  1.0000
  C   C261      1.0  0.67699  0.31357  0.13338  1.0000
  H   H416      1.0  0.61642  0.39221  0.26572  1.0000
  C   C262      1.0  0.55904  0.50260  0.23581  1.0000
  H   H417      1.0  0.60220  0.51221  0.23840  1.0000
  C   C263      1.0  0.53714  0.50846  0.31010  1.0000
  H   H418      1.0  0.68205  0.33620  0.17790  1.0000
  S   S117      1.0  0.68768  0.27242  0.17325  1.0000
  S   S118      1.0  0.56350  0.50916  0.31158  1.0000
  H   H419      1.0  0.55150  0.47409  0.27423  1.0000
  H   H420      1.0  0.61710  0.27521  0.15324  1.0000
  H   H421      1.0  0.64607  0.38858  0.24032  1.0000
  H   H422      1.0  0.61514  0.41084  0.24191  1.0000
  C   C264      1.0  0.61076  0.28774  0.11781  1.0000
  H   H423      1.0  0.58585  0.34925  0.23680  1.0000
  C   C265      1.0  0.60266  0.38217  0.20240  1.0000
  C   C266      1.0  0.55357  0.46802  0.25495  1.0000
  H   H424      1.0  0.60415  0.37148  0.18700  1.0000
  S   S119      1.0  0.46907  0.50728  0.30410  1.0000
  H   H425      1.0  0.43040  0.47261  0.33194  1.0000
  H   H426      1.0  0.68539  0.30305  0.13732  1.0000
  H   H427      1.0  0.58159  0.49160  0.19978  1.0000
  C   C267      1.0  0.68090  0.35085  0.13043  1.0000
  C   C268      1.0  0.59061  0.49795  0.25028  1.0000
  N   N29       1.0  0.68477  0.41813  0.02907  1.0000
  H   H428      1.0  0.53673  0.45883  0.24646  1.0000
  H   H429      1.0  0.67590  0.34819  0.10982  1.0000
  H   H430      1.0  0.51940  0.47334  0.30283  1.0000
  H   H431      1.0  0.48277  0.47309  0.29893  1.0000
  C   C269      1.0  0.61627  0.28905  0.14390  1.0000
  H   H432      1.0  0.66907  0.42804  0.05922  1.0000
  H   H433      1.0  0.65178  0.39260  0.03746  1.0000
  H   H434      1.0  0.54209  0.49460  0.22732  1.0000
  C   C270      1.0  0.49542  0.50813  0.30618  1.0000
  C   C271      1.0  0.66347  0.39967  0.02089  1.0000
  H   H435      1.0  0.57685  0.46569  0.21412  1.0000
  H   H436      1.0  0.56968  0.51689  0.22335  1.0000
  C   C272      1.0  0.68052  0.43519  0.04250  1.0000
  H   H437      1.0  0.66564  0.34672  0.14207  1.0000
  C   C273      1.0  0.57022  0.47806  0.21270  1.0000
  H   H438      1.0  0.66588  0.38599  0.01178  1.0000
  H   H439      1.0  0.59963  0.27761  0.04690  1.0000
  H   H440      1.0  0.67291  0.44281  0.02943  1.0000
  H   H441      1.0  0.62710  0.29040  0.01105  1.0000
  H   H442      1.0  0.65507  0.40535  0.00647  1.0000
  H   H443      1.0  0.36300  0.46501  0.57284  1.0000
  S   S120      1.0  0.56601  0.47148  0.36688  1.0000
  S   S121      1.0  0.62057  0.46745  0.38088  1.0000
  H   H444      1.0  0.43979  0.51303  0.60274  1.0000
  S   S122      1.0  0.51266  0.42096  0.38648  1.0000
  H   H445      1.0  0.49111  0.40469  0.43482  1.0000
  C   C274      1.0  0.63628  0.51291  0.37778  1.0000
  Fe  Fe58      1.0  0.45917  0.32756  0.53900  1.0000
  S   S123      1.0  0.42484  0.30003  0.53238  1.0000
  S   S124      1.0  0.46536  0.34248  0.57908  1.0000
  Fe  Fe59      1.0  0.47312  0.32545  0.48375  1.0000
  S   S125      1.0  0.44001  0.29724  0.47362  1.0000
  S   S126      1.0  0.50051  0.33826  0.45374  1.0000
  Fe  Fe60      1.0  0.42598  0.31743  0.49514  1.0000
  S   S127      1.0  0.40090  0.32633  0.47514  1.0000
  Fe  Fe61      1.0  0.44213  0.28240  0.51191  1.0000
  S   S128      1.0  0.45915  0.34613  0.50323  1.0000
  S   S129      1.0  0.47639  0.30952  0.52038  1.0000
  Fe  Fe62      1.0  0.56702  0.42897  0.64996  1.0000
  S   S130      1.0  0.55798  0.45639  0.64154  1.0000
  S   S131      1.0  0.56217  0.40051  0.62344  1.0000
  Fe  Fe63      1.0  0.59180  0.47944  0.65645  1.0000
  C   C275      1.0  0.37001  0.41419  0.58200  1.0000
  H   H446      1.0  0.40708  0.45215  0.59160  1.0000
  H   H447      1.0  0.36764  0.46910  0.37196  1.0000
  H   H448      1.0  0.47246  0.50115  0.36106  1.0000
  C   C276      1.0  0.53358  0.50022  0.63282  1.0000
  C   C277      1.0  0.49256  0.35930  0.59020  1.0000
  C   C278      1.0  0.49553  0.37282  0.61189  1.0000
  C   C279      1.0  0.51688  0.38593  0.62182  1.0000
  C   C280      1.0  0.53536  0.38516  0.61047  1.0000
  C   C281      1.0  0.53238  0.37145  0.58893  1.0000
  C   C282      1.0  0.51106  0.35873  0.57861  1.0000
  H   H449      1.0  0.48128  0.37329  0.62099  1.0000
  H   H450      1.0  0.51898  0.39641  0.63846  1.0000
  H   H451      1.0  0.54663  0.37081  0.58007  1.0000
  H   H452      1.0  0.50895  0.34835  0.56190  1.0000
  C   C283      1.0  0.37002  0.35102  0.52459  1.0000
  C   C284      1.0  0.38200  0.35501  0.47268  1.0000
  H   H453      1.0  0.56912  0.49712  0.61350  1.0000
  C   C285      1.0  0.38813  0.34200  0.48885  1.0000
  C   C286      1.0  0.62074  0.49512  0.59533  1.0000
  S   S132      1.0  0.60197  0.45247  0.66107  1.0000
  H   H454      1.0  0.39371  0.44409  0.54633  1.0000
  C   C287      1.0  0.43888  0.48529  0.39574  1.0000
  H   H455      1.0  0.38661  0.33014  0.52759  1.0000
  C   C288      1.0  0.40612  0.49183  0.61439  1.0000
  C   C289      1.0  0.63038  0.49647  0.57092  1.0000
  C   C290      1.0  0.41844  0.49945  0.56991  1.0000
  C   C291      1.0  0.39678  0.48609  0.56136  1.0000
  C   C292      1.0  0.37981  0.47516  0.57933  1.0000
  H   H456      1.0  0.45312  0.37059  0.42333  1.0000
  H   H457      1.0  0.43601  0.49813  0.34774  1.0000
  C   C293      1.0  0.39674  0.42925  0.54739  1.0000
  C   C294      1.0  0.39460  0.50011  0.38440  1.0000
  C   C295      1.0  0.37683  0.47886  0.38832  1.0000
  H   H458      1.0  0.40616  0.43034  0.61187  1.0000
  C   C296      1.0  0.38275  0.48304  0.43438  1.0000
  H   H459      1.0  0.43146  0.44176  0.35709  1.0000
  H   H460      1.0  0.41329  0.40332  0.56730  1.0000
  H   H461      1.0  0.37846  0.47659  0.45374  1.0000
  H   H462      1.0  0.65146  0.48556  0.42229  1.0000
  C   C297      1.0  0.51066  0.39875  0.40568  1.0000
  C   C298      1.0  0.52048  0.38532  0.39812  1.0000
  C   C299      1.0  0.51779  0.36712  0.41341  1.0000
  C   C300      1.0  0.50511  0.36218  0.43616  1.0000
  C   C301      1.0  0.49573  0.37593  0.44395  1.0000
  C   C302      1.0  0.49851  0.39417  0.42875  1.0000
  H   H463      1.0  0.52968  0.38861  0.38019  1.0000
  H   H464      1.0  0.52504  0.35649  0.40726  1.0000
  H   H465      1.0  0.48626  0.37250  0.46163  1.0000
  Fe  Fe64      1.0  0.36158  0.45441  0.51274  1.0000
  H   H466      1.0  0.42423  0.35661  0.43193  1.0000
  H   H467      1.0  0.41224  0.30398  0.39860  1.0000
  N   N30       1.0  0.57808  0.43061  0.43905  1.0000
  C   C303      1.0  0.56978  0.44490  0.42626  1.0000
  C   C304      1.0  0.59944  0.44472  0.45179  1.0000
  C   C305      1.0  0.58147  0.41634  0.41962  1.0000
  C   C306      1.0  0.56165  0.41651  0.45843  1.0000
  H   H468      1.0  0.58208  0.45619  0.41207  1.0000
  H   H469      1.0  0.56646  0.45549  0.44036  1.0000
  H   H470      1.0  0.55409  0.43492  0.41564  1.0000
  H   H471      1.0  0.61214  0.45549  0.43752  1.0000
  H   H472      1.0  0.59759  0.45589  0.46642  1.0000
  H   H473      1.0  0.60627  0.43456  0.46168  1.0000
  H   H474      1.0  0.58764  0.40525  0.42859  1.0000
  H   H475      1.0  0.59380  0.42641  0.40470  1.0000
  H   H476      1.0  0.56578  0.40567  0.40940  1.0000
  H   H477      1.0  0.56721  0.40528  0.46829  1.0000
  H   H478      1.0  0.54533  0.40584  0.44937  1.0000
  H   H479      1.0  0.55875  0.42669  0.47351  1.0000
  H   H480      1.0  0.45263  0.32133  0.38921  1.0000
  H   H481      1.0  0.42109  0.27175  0.60472  1.0000
  H   H482      1.0  0.44571  0.36250  0.37744  1.0000
  C   C307      1.0  0.43503  0.27899  0.59065  1.0000
  C   C308      1.0  0.41581  0.31672  0.41388  1.0000
  C   C309      1.0  0.43923  0.35415  0.42815  1.0000
  H   H483      1.0  0.39371  0.39231  0.59346  1.0000
  H   H484      1.0  0.38433  0.38689  0.56071  1.0000
  S   S133      1.0  0.61252  0.51337  0.63913  1.0000
  H   H485      1.0  0.47712  0.30570  0.57653  1.0000
  H   H486      1.0  0.52289  0.49380  0.61551  1.0000
  H   H487      1.0  0.44812  0.48226  0.41168  1.0000
  C   C310      1.0  0.42892  0.47989  0.35073  1.0000
  S   S134      1.0  0.39147  0.48425  0.52814  1.0000
  C   C311      1.0  0.40031  0.50429  0.43050  1.0000
  H   H488      1.0  0.36557  0.37607  0.46976  1.0000
  H   H489      1.0  0.44562  0.50358  0.39334  1.0000
  H   H490      1.0  0.42126  0.47882  0.40207  1.0000
  H   H491      1.0  0.36653  0.40708  0.60178  1.0000
  C   C312      1.0  0.47328  0.28823  0.58110  1.0000
  H   H492      1.0  0.41403  0.43428  0.54070  1.0000
  H   H493      1.0  0.36479  0.34871  0.54456  1.0000
  N   N31       1.0  0.45539  0.27871  0.60057  1.0000
  C   C313      1.0  0.46432  0.48289  0.36439  1.0000
  H   H494      1.0  0.42634  0.44101  0.58629  1.0000
  H   H495      1.0  0.43894  0.44567  0.39061  1.0000
  C   C314      1.0  0.42308  0.50249  0.59634  1.0000
  N   N32       1.0  0.44066  0.47459  0.37151  1.0000
  H   H496      1.0  0.43168  0.50763  0.55604  1.0000
  S   S135      1.0  0.36950  0.43323  0.48532  1.0000
  H   H497      1.0  0.57075  0.51151  0.65892  1.0000
  H   H498      1.0  0.38541  0.41694  0.53329  1.0000
  C   C315      1.0  0.43121  0.34656  0.38291  1.0000
  H   H499      1.0  0.38604  0.35615  0.45237  1.0000
  H   H500      1.0  0.41842  0.30975  0.43221  1.0000
  C   C316      1.0  0.36393  0.36408  0.50847  1.0000
  N   N33       1.0  0.43533  0.33783  0.40731  1.0000
  H   H501      1.0  0.42820  0.33467  0.36674  1.0000
  C   C317      1.0  0.62423  0.51451  0.60846  1.0000
  H   H502      1.0  0.47780  0.29241  0.63242  1.0000
  Fe  Fe65      1.0  0.54131  0.43637  0.35837  1.0000
  C   C318      1.0  0.65084  0.49924  0.41218  1.0000
  C   C319      1.0  0.37087  0.47028  0.41334  1.0000
  C   C320      1.0  0.38453  0.47793  0.60586  1.0000
  C   C321      1.0  0.63679  0.49508  0.39090  1.0000
  H   H503      1.0  0.37136  0.46969  0.61981  1.0000
  H   H504      1.0  0.36687  0.42900  0.58204  1.0000
  H   H505      1.0  0.41645  0.34975  0.38459  1.0000
  H   H506      1.0  0.47003  0.34946  0.39884  1.0000
  H   H507      1.0  0.40932  0.51402  0.44696  1.0000
  H   H508      1.0  0.46852  0.27851  0.56281  1.0000
  H   H509      1.0  0.61076  0.47909  0.60405  1.0000
  H   H510      1.0  0.41257  0.44351  0.38054  1.0000
  C   C322      1.0  0.39627  0.39976  0.57387  1.0000
  H   H511      1.0  0.62782  0.48141  0.56094  1.0000
  H   H512      1.0  0.44340  0.34856  0.44662  1.0000
  C   C323      1.0  0.45510  0.33394  0.40433  1.0000
  H   H513      1.0  0.45906  0.32790  0.42263  1.0000
  N   N34       1.0  0.55547  0.51869  0.62633  1.0000
  Fe  Fe66      1.0  0.59160  0.46080  0.35484  1.0000
  H   H514      1.0  0.40065  0.31911  0.41679  1.0000
  C   C324      1.0  0.38239  0.34039  0.51499  1.0000
  C   C325      1.0  0.40885  0.43656  0.59166  1.0000
  N   N35       1.0  0.39298  0.41996  0.57375  1.0000
  H   H515      1.0  0.47384  0.47934  0.37958  1.0000
  S   S136      1.0  0.41166  0.49584  0.64754  1.0000
  S   S137      1.0  0.56702  0.42501  0.34911  1.0000
  H   H516      1.0  0.46622  0.47514  0.34617  1.0000
  C   C326      1.0  0.37032  0.36631  0.48249  1.0000
  H   H517      1.0  0.48893  0.28834  0.58790  1.0000
  H   H518      1.0  0.46600  0.30971  0.62065  1.0000
  C   C327      1.0  0.43045  0.45028  0.37512  1.0000
  H   H519      1.0  0.52450  0.50559  0.64691  1.0000
  H   H520      1.0  0.53522  0.48604  0.64170  1.0000
  H   H521      1.0  0.39905  0.50672  0.36509  1.0000
  H   H522      1.0  0.43781  0.29621  0.58651  1.0000
  H   H523      1.0  0.62552  0.50983  0.36129  1.0000
  H   H524      1.0  0.44928  0.28558  0.63954  1.0000
  H   H525      1.0  0.41095  0.47359  0.35517  1.0000
  C   C328      1.0  0.46242  0.29213  0.62442  1.0000
  S   S138      1.0  0.65634  0.51807  0.52967  1.0000
  C   C329      1.0  0.64344  0.51716  0.55950  1.0000
  H   H526      1.0  0.68146  0.51458  0.57978  1.0000
  H   H527      1.0  0.60438  0.39732  0.66673  1.0000
  H   H528      1.0  0.55657  0.50587  0.58852  1.0000
  C   C330      1.0  0.56652  0.51131  0.60650  1.0000
  H   H529      1.0  0.56692  0.36662  0.66133  1.0000
  C   C331      1.0  0.40635  0.51286  0.40555  1.0000
  H   H530      1.0  0.35761  0.40171  0.56884  1.0000
  Fe  Fe67      1.0  0.58835  0.44863  0.70149  1.0000
  H   H531      1.0  0.54866  0.40752  0.91344  1.0000
  S   S139      1.0  0.61042  0.44304  0.73047  1.0000
  H   H532      1.0  0.56039  0.41811  0.88215  1.0000
  C   C332      1.0  0.53459  0.49761  0.70338  1.0000
  C   C333      1.0  0.60749  0.38980  0.00344  1.0000
  Fe  Fe68      1.0  0.61327  0.39923  0.86627  1.0000
  S   S140      1.0  0.64565  0.42866  0.87547  1.0000
  S   S141      1.0  0.58654  0.40332  0.84395  1.0000
  Fe  Fe69      1.0  0.62439  0.36802  0.89948  1.0000
  S   S142      1.0  0.65757  0.39517  0.91087  1.0000
  S   S143      1.0  0.61510  0.33553  0.91959  1.0000
  Fe  Fe70      1.0  0.63922  0.41553  0.91616  1.0000
  S   S144      1.0  0.64319  0.43733  0.95091  1.0000
  Fe  Fe71      1.0  0.66035  0.40514  0.86932  1.0000
  S   S145      1.0  0.60583  0.38771  0.90744  1.0000
  S   S146      1.0  0.62834  0.37634  0.85729  1.0000
  C   C334      1.0  0.61535  0.31442  0.90008  1.0000
  C   C335      1.0  0.61768  0.29684  0.91152  1.0000
  N   N36       1.0  0.68404  0.34646  0.85913  1.0000
  H   H533      1.0  0.59693  0.37206  0.00352  1.0000
  H   H534      1.0  0.61540  0.30017  0.83707  1.0000
  C   C336      1.0  0.61404  0.31534  0.87328  1.0000
  C   C337      1.0  0.68394  0.35976  0.88180  1.0000
  H   H535      1.0  0.61841  0.29596  0.93229  1.0000
  H   H536      1.0  0.57001  0.39609  0.72320  1.0000
  H   H537      1.0  0.67512  0.36529  0.83230  1.0000
  C   C338      1.0  0.63058  0.42349  0.97978  1.0000
  C   C339      1.0  0.63464  0.43554  0.00291  1.0000
  C   C340      1.0  0.61694  0.40058  0.98013  1.0000
  C   C341      1.0  0.49654  0.48181  0.68868  1.0000
  H   H538      1.0  0.61380  0.39103  0.96256  1.0000
  C   C342      1.0  0.60326  0.43240  0.76213  1.0000
  C   C343      1.0  0.58206  0.42591  0.77254  1.0000
  C   C344      1.0  0.57705  0.41696  0.79764  1.0000
  C   C345      1.0  0.59316  0.41441  0.81242  1.0000
  C   C346      1.0  0.61428  0.42079  0.80189  1.0000
  C   C347      1.0  0.61928  0.42972  0.77687  1.0000
  H   H539      1.0  0.56958  0.42786  0.76135  1.0000
  H   H540      1.0  0.56066  0.41204  0.80564  1.0000
  H   H541      1.0  0.62683  0.41891  0.81305  1.0000
  H   H542      1.0  0.63570  0.43466  0.76895  1.0000
  H   H543      1.0  0.55863  0.44577  0.92874  1.0000
  H   H544      1.0  0.58677  0.46711  0.92572  1.0000
  S   S147      1.0  0.58110  0.47793  0.69783  1.0000
  H   H545      1.0  0.56969  0.40127  0.89973  1.0000
  H   H546      1.0  0.66689  0.35371  0.89005  1.0000
  Fe  Fe72      1.0  0.54778  0.45311  0.68318  1.0000
  C   C348      1.0  0.61596  0.29918  0.85786  1.0000
  H   H547      1.0  0.66827  0.33751  0.82203  1.0000
  S   S148      1.0  0.51493  0.45310  0.69133  1.0000
  N   N37       1.0  0.58265  0.37903  0.69794  1.0000
  H   H548      1.0  0.54905  0.49567  0.70881  1.0000
  H   H549      1.0  0.65997  0.31677  0.87726  1.0000
  H   H550      1.0  0.55549  0.38158  0.67929  1.0000
  H   H551      1.0  0.62675  0.27090  0.98708  1.0000
  H   H552      1.0  0.57951  0.34703  0.70862  1.0000
  H   H553      1.0  0.59119  0.39058  0.73697  1.0000
  C   C349      1.0  0.61929  0.28216  0.86924  1.0000
  H   H554      1.0  0.48161  0.46758  0.68241  1.0000
  C   C350      1.0  0.59182  0.36295  0.69998  1.0000
  H   H555      1.0  0.61159  0.32850  0.86442  1.0000
  C   C351      1.0  0.66923  0.34791  0.83912  1.0000
  C   C352      1.0  0.57653  0.38361  0.72392  1.0000
  N   N38       1.0  0.58174  0.43461  0.91417  1.0000
  C   C353      1.0  0.58685  0.42897  0.94002  1.0000
  C   C354      1.0  0.60198  0.44326  0.89798  1.0000
  C   C355      1.0  0.57391  0.45173  0.91664  1.0000
  C   C356      1.0  0.56429  0.41453  0.90194  1.0000
  H   H556      1.0  0.60032  0.44364  0.94960  1.0000
  H   H557      1.0  0.59275  0.41604  0.93889  1.0000
  H   H558      1.0  0.57204  0.42251  0.95292  1.0000
  H   H559      1.0  0.60796  0.43058  0.89545  1.0000
  H   H560      1.0  0.59884  0.44768  0.87826  1.0000
  H   H561      1.0  0.61580  0.45811  0.90676  1.0000
  H   H562      1.0  0.56998  0.45636  0.89742  1.0000
  H   H563      1.0  0.60689  0.36955  0.71237  1.0000
  H   H564      1.0  0.67362  0.31199  0.85004  1.0000
  C   C357      1.0  0.67612  0.32307  0.86696  1.0000
  C   C358      1.0  0.49717  0.50289  0.68953  1.0000
  H   H565      1.0  0.65209  0.34229  0.84659  1.0000
  C   C359      1.0  0.51542  0.47921  0.69504  1.0000
  H   H566      1.0  0.56360  0.36838  0.73314  1.0000
  S   S149      1.0  0.55393  0.42348  0.69049  1.0000
  C   C360      1.0  0.61970  0.28073  0.89611  1.0000
  H   H567      1.0  0.68801  0.32107  0.88017  1.0000
  H   H568      1.0  0.61483  0.40750  0.69861  1.0000
  C   C361      1.0  0.59957  0.39988  0.68656  1.0000
  H   H569      1.0  0.54962  0.35401  0.68909  1.0000
  H   H570      1.0  0.59665  0.35919  0.68070  1.0000
  H   H571      1.0  0.59318  0.41234  0.68515  1.0000
  C   C362      1.0  0.56278  0.36981  0.68126  1.0000
  H   H572      1.0  0.64501  0.45331  0.00275  1.0000
  H   H573      1.0  0.60483  0.27899  0.98814  1.0000
  C   C363      1.0  0.61612  0.27505  0.00035  1.0000
  H   H574      1.0  0.48275  0.50486  0.68388  1.0000
  C   C364      1.0  0.53499  0.51855  0.70498  1.0000
  H   H575      1.0  0.68979  0.37748  0.87661  1.0000
  S   S150      1.0  0.68921  0.41139  0.84317  1.0000
  H   H576      1.0  0.69061  0.43467  0.99240  1.0000
  Fe  Fe73      1.0  0.45089  0.57224  0.31002  1.0000
  S   S151      1.0  0.43369  0.53671  0.32342  1.0000
  S   S152      1.0  0.43356  0.58682  0.28467  1.0000
  Fe  Fe74      1.0  0.46737  0.53795  0.31856  1.0000
  C   C365      1.0  0.40637  0.60793  0.02020  1.0000
  S   S153      1.0  0.48380  0.57243  0.30210  1.0000
  H   H577      1.0  0.49319  0.65273  0.14545  1.0000
  Fe  Fe75      1.0  0.40585  0.61100  0.08800  1.0000
  S   S154      1.0  0.39062  0.58954  0.12286  1.0000
  S   S155      1.0  0.39265  0.59519  0.04913  1.0000
  Fe  Fe76      1.0  0.43222  0.65160  0.12096  1.0000
  S   S156      1.0  0.41896  0.63379  0.15822  1.0000
  S   S157      1.0  0.45537  0.68806  0.12055  1.0000
  Fe  Fe77      1.0  0.42458  0.60656  0.14026  1.0000
  S   S158      1.0  0.44113  0.58933  0.16240  1.0000
  Fe  Fe78      1.0  0.38632  0.61849  0.13776  1.0000
  S   S159      1.0  0.44048  0.62557  0.10397  1.0000
  S   S160      1.0  0.39902  0.63883  0.10195  1.0000
  C   C366      1.0  0.42752  0.62606  0.02026  1.0000
  S   S161      1.0  0.39873  0.73595  0.15782  1.0000
  H   H578      1.0  0.47261  0.63048  0.21093  1.0000
  C   C367      1.0  0.44057  0.70218  0.13150  1.0000
  C   C368      1.0  0.42560  0.69358  0.15204  1.0000
  C   C369      1.0  0.41333  0.70446  0.16047  1.0000
  C   C370      1.0  0.41532  0.72350  0.14774  1.0000
  C   C371      1.0  0.43034  0.73223  0.12724  1.0000
  C   C372      1.0  0.44323  0.72174  0.11939  1.0000
  H   H579      1.0  0.42355  0.67860  0.16160  1.0000
  H   H580      1.0  0.40184  0.69774  0.17645  1.0000
  H   H581      1.0  0.43193  0.74691  0.11727  1.0000
  H   H582      1.0  0.45472  0.72837  0.10340  1.0000
  H   H583      1.0  0.36033  0.70904  0.12144  1.0000
  H   H584      1.0  0.37251  0.68251  0.13850  1.0000
  H   H585      1.0  0.51299  0.54325  0.31367  1.0000
  H   H586      1.0  0.46466  0.63688  0.15435  1.0000
  H   H587      1.0  0.43582  0.63261  0.03836  1.0000
  C   C373      1.0  0.43524  0.58636  0.25068  1.0000
  C   C374      1.0  0.42226  0.59351  0.23602  1.0000
  C   C375      1.0  0.42345  0.59384  0.20894  1.0000
  C   C376      1.0  0.43792  0.58735  0.19628  1.0000
  C   C377      1.0  0.45083  0.58007  0.21090  1.0000
  C   C378      1.0  0.44948  0.57953  0.23802  1.0000
  H   H588      1.0  0.41111  0.59867  0.24568  1.0000
  H   H589      1.0  0.41317  0.59916  0.19791  1.0000
  H   H590      1.0  0.46200  0.57493  0.20124  1.0000
  H   H591      1.0  0.45951  0.57394  0.24913  1.0000
  C   C379      1.0  0.51436  0.52799  0.31129  1.0000
  C   C380      1.0  0.53524  0.52820  0.31285  1.0000
  H   H592      1.0  0.51140  0.67734  0.21066  1.0000
  H   H593      1.0  0.36358  0.56017  0.08316  1.0000
  H   H594      1.0  0.44434  0.75593  0.18788  1.0000
  H   H595      1.0  0.48479  0.62899  0.16635  1.0000
  H   H596      1.0  0.47183  0.65513  0.22282  1.0000
  H   H597      1.0  0.45223  0.63819  0.19909  1.0000
  N   N39       1.0  0.48520  0.65796  0.18438  1.0000
  C   C381      1.0  0.48067  0.67670  0.17723  1.0000
  C   C382      1.0  0.50835  0.66653  0.19339  1.0000
  C   C383      1.0  0.48192  0.64358  0.16164  1.0000
  C   C384      1.0  0.46985  0.64494  0.20523  1.0000
  H   H598      1.0  0.46322  0.67076  0.17068  1.0000
  H   H599      1.0  0.49148  0.68653  0.16099  1.0000
  H   H600      1.0  0.48326  0.68812  0.19376  1.0000
  H   H601      1.0  0.51220  0.65269  0.19883  1.0000
  H   H602      1.0  0.52038  0.67643  0.17812  1.0000
  C   C385      1.0  0.36220  0.76415  0.02477  1.0000
  S   S162      1.0  0.38577  0.75635  0.09242  1.0000
  H   H603      1.0  0.35856  0.76113  0.04574  1.0000
  H   H604      1.0  0.54990  0.54366  0.31643  1.0000
  Fe  Fe79      1.0  0.40051  0.76318  0.13177  1.0000
  H   H605      1.0  0.41397  0.76086  0.20794  1.0000
  H   H606      1.0  0.44808  0.76859  0.23348  1.0000
  H   H607      1.0  0.63528  0.59664  0.41263  1.0000
  S   S163      1.0  0.47789  0.54892  0.35904  1.0000
  H   H608      1.0  0.54282  0.72106  0.42241  1.0000
  Fe  Fe80      1.0  0.44557  0.55037  0.36286  1.0000
  S   S164      1.0  0.42912  0.53923  0.40177  1.0000
  H   H609      1.0  0.66245  0.68425  0.50217  1.0000
  H   H610      1.0  0.39022  0.54574  0.54404  1.0000
  C   C386      1.0  0.57113  0.76284  0.43639  1.0000
  Fe  Fe81      1.0  0.47591  0.57080  0.63422  1.0000
  S   S165      1.0  0.48309  0.58648  0.59447  1.0000
  S   S166      1.0  0.47571  0.53767  0.63904  1.0000
  Fe  Fe82      1.0  0.57859  0.68667  0.53040  1.0000
  S   S167      1.0  0.61419  0.70727  0.51792  1.0000
  S   S168      1.0  0.57098  0.67542  0.57188  1.0000
  Fe  Fe83      1.0  0.56113  0.68230  0.47589  1.0000
  S   S169      1.0  0.59514  0.70171  0.45932  1.0000
  S   S170      1.0  0.52996  0.66925  0.45201  1.0000
  Fe  Fe84      1.0  0.60575  0.68194  0.48612  1.0000
  S   S171      1.0  0.62122  0.65951  0.47313  1.0000
  Fe  Fe85      1.0  0.60031  0.72539  0.49257  1.0000
  S   S172      1.0  0.57090  0.66081  0.49995  1.0000
  S   S173      1.0  0.56546  0.70654  0.50777  1.0000
  C   C387      1.0  0.64023  0.65172  0.48811  1.0000
  C   C388      1.0  0.63698  0.62973  0.48534  1.0000
  C   C389      1.0  0.65297  0.62333  0.49415  1.0000
  C   C390      1.0  0.64676  0.53657  0.57252  1.0000
  H   H611      1.0  0.62216  0.61766  0.47587  1.0000
  H   H612      1.0  0.65025  0.60637  0.49191  1.0000
  H   H613      1.0  0.41151  0.53825  0.60703  1.0000
  H   H614      1.0  0.59372  0.62464  0.59503  1.0000
  H   H615      1.0  0.49377  0.60553  0.47038  1.0000
  H   H616      1.0  0.68372  0.62517  0.45617  1.0000
  H   H617      1.0  0.65685  0.55259  0.56384  1.0000
  C   C391      1.0  0.50775  0.61109  0.58863  1.0000
  C   C392      1.0  0.51203  0.62006  0.56366  1.0000
  C   C393      1.0  0.53135  0.63976  0.55834  1.0000
  C   C394      1.0  0.54652  0.65068  0.57800  1.0000
  C   C395      1.0  0.54232  0.64166  0.60295  1.0000
  C   C396      1.0  0.52301  0.62189  0.60826  1.0000
  H   H618      1.0  0.50027  0.61186  0.54841  1.0000
  H   H619      1.0  0.53427  0.64669  0.53913  1.0000
  H   H620      1.0  0.55391  0.65010  0.61829  1.0000
  H   H621      1.0  0.51982  0.61519  0.62758  1.0000
  H   H622      1.0  0.44217  0.56808  0.54905  1.0000
  C   C397      1.0  0.48605  0.58705  0.46902  1.0000
  C   C398      1.0  0.52744  0.62682  0.38205  1.0000
  C   C399      1.0  0.54685  0.63677  0.39686  1.0000
  C   C400      1.0  0.54805  0.65032  0.41805  1.0000
  C   C401      1.0  0.52992  0.65424  0.42422  1.0000
  C   C402      1.0  0.51093  0.64514  0.40869  1.0000
  C   C403      1.0  0.50962  0.63133  0.38778  1.0000
  H   H623      1.0  0.56075  0.63344  0.39243  1.0000
  H   H624      1.0  0.56282  0.65735  0.42985  1.0000
  H   H625      1.0  0.49699  0.64839  0.41318  1.0000
  H   H626      1.0  0.49480  0.62413  0.37615  1.0000
  N   N40       1.0  0.61211  0.64545  0.56336  1.0000
  H   H627      1.0  0.65017  0.54857  0.37500  1.0000
  Fe  Fe86      1.0  0.49143  0.58349  0.34348  1.0000
  H   H628      1.0  0.45787  0.54765  0.44821  1.0000
  S   S174      1.0  0.45983  0.58595  0.35034  1.0000
  H   H629      1.0  0.56861  0.55186  0.61147  1.0000
  H   H630      1.0  0.61711  0.65023  0.60428  1.0000
  H   H631      1.0  0.53550  0.76965  0.44574  1.0000
  C   C404      1.0  0.53201  0.75224  0.44124  1.0000
  H   H632      1.0  0.42262  0.53909  0.54862  1.0000
  H   H633      1.0  0.58659  0.53849  0.64527  1.0000
  C   C405      1.0  0.62458  0.66940  0.55761  1.0000
  N   N41       1.0  0.66954  0.62013  0.41815  1.0000
  H   H634      1.0  0.50868  0.58481  0.41098  1.0000
  H   H635      1.0  0.64155  0.64256  0.57368  1.0000
  H   H636      1.0  0.67959  0.65502  0.41340  1.0000
  H   H637      1.0  0.40878  0.57487  0.54128  1.0000
  H   H638      1.0  0.47468  0.54935  0.42070  1.0000
  C   C406      1.0  0.65025  0.53483  0.38556  1.0000
  N   N42       1.0  0.48552  0.57972  0.44203  1.0000
  H   H639      1.0  0.39182  0.52472  0.58198  1.0000
  H   H640      1.0  0.38831  0.54407  0.60311  1.0000
  S   S175      1.0  0.61536  0.76236  0.48127  1.0000
  C   C407      1.0  0.60343  0.64250  0.59006  1.0000
  C   C408      1.0  0.39928  0.56138  0.55526  1.0000
  H   H641      1.0  0.66239  0.61495  0.37761  1.0000
  H   H642      1.0  0.52932  0.74977  0.42007  1.0000
  H   H643      1.0  0.59218  0.65037  0.59279  1.0000
  Fe  Fe87      1.0  0.67863  0.55090  0.51102  1.0000
  H   H644      1.0  0.56690  0.74752  0.48490  1.0000
  C   C409      1.0  0.59338  0.63507  0.54519  1.0000
  H   H645      1.0  0.56243  0.53294  0.66434  1.0000
  H   H646      1.0  0.51870  0.58275  0.44242  1.0000
  S   S176      1.0  0.68213  0.56654  0.41599  1.0000
  C   C410      1.0  0.43074  0.55396  0.56123  1.0000
  H   H647      1.0  0.58164  0.64243  0.54719  1.0000
  C   C411      1.0  0.47232  0.58765  0.42633  1.0000
  C   C412      1.0  0.47530  0.55523  0.44092  1.0000
  H   H648      1.0  0.63989  0.55027  0.60712  1.0000
  H   H649      1.0  0.38662  0.56533  0.56465  1.0000
  C   C413      1.0  0.55328  0.75105  0.47788  1.0000
  C   C414      1.0  0.42567  0.57999  0.58914  1.0000
  H   H650      1.0  0.67928  0.60287  0.38980  1.0000
  H   H651      1.0  0.49591  0.58142  0.48145  1.0000
  H   H652      1.0  0.48475  0.54860  0.45255  1.0000
  H   H653      1.0  0.64405  0.60125  0.44563  1.0000
  H   H654      1.0  0.61822  0.61683  0.56488  1.0000
  C   C415      1.0  0.40084  0.54075  0.59242  1.0000
  C   C416      1.0  0.63715  0.53523  0.59698  1.0000
  H   H655      1.0  0.65241  0.58496  0.42517  1.0000
  S   S177      1.0  0.44158  0.55957  0.65041  1.0000
  H   H656      1.0  0.43564  0.59420  0.57621  1.0000
  H   H657      1.0  0.58520  0.75941  0.44189  1.0000
  H   H658      1.0  0.51688  0.60739  0.43338  1.0000
  S   S178      1.0  0.66773  0.57131  0.48623  1.0000
  C   C417      1.0  0.66493  0.63954  0.41955  1.0000
  H   H659      1.0  0.58327  0.52473  0.60143  1.0000
  H   H660      1.0  0.63366  0.63668  0.54060  1.0000
  H   H661      1.0  0.46900  0.58044  0.47730  1.0000
  H   H662      1.0  0.61404  0.67800  0.56066  1.0000
  H   H663      1.0  0.63041  0.67229  0.53721  1.0000
  C   C418      1.0  0.67263  0.63895  0.50542  1.0000
  H   H664      1.0  0.41379  0.58411  0.60008  1.0000
  H   H665      1.0  0.55876  0.72044  0.44962  1.0000
  C   C419      1.0  0.66429  0.53896  0.40689  1.0000
  C   C420      1.0  0.55239  0.53759  0.61637  1.0000
  H   H666      1.0  0.59928  0.63747  0.52477  1.0000
  S   S179      1.0  0.52543  0.60771  0.35778  1.0000
  C   C421      1.0  0.65948  0.66716  0.50035  1.0000
  C   C422      1.0  0.64943  0.59989  0.42572  1.0000
  H   H667      1.0  0.47888  0.60594  0.42766  1.0000
  C   C423      1.0  0.62701  0.63490  0.56057  1.0000
  Fe  Fe88      1.0  0.44232  0.52726  0.65751  1.0000
  H   H668      1.0  0.63939  0.67770  0.57019  1.0000
  H   H669      1.0  0.58372  0.61694  0.54862  1.0000
  H   H670      1.0  0.51613  0.74105  0.45099  1.0000
  C   C424      1.0  0.50843  0.58901  0.43177  1.0000
  H   H671      1.0  0.45462  0.58006  0.43262  1.0000
  H   H672      1.0  0.65070  0.63731  0.40707  1.0000
  H   H673      1.0  0.47247  0.58337  0.40560  1.0000
  H   H674      1.0  0.66071  0.64236  0.43956  1.0000
  H   H675      1.0  0.54192  0.53288  0.59874  1.0000
  H   H676      1.0  0.44129  0.55064  0.57532  1.0000
  H   H677      1.0  0.54401  0.54347  0.63096  1.0000
  H   H678      1.0  0.43752  0.57899  0.60324  1.0000
  N   N43       1.0  0.41413  0.55903  0.57453  1.0000
  C   C425      1.0  0.67586  0.61751  0.39148  1.0000
  H   H679      1.0  0.53798  0.73989  0.48862  1.0000
  H   H680      1.0  0.52974  0.71245  0.45338  1.0000
  C   C426      1.0  0.66432  0.52108  0.42036  1.0000
  H   H681      1.0  0.67519  0.52405  0.43664  1.0000
  C   C427      1.0  0.56938  0.52573  0.64972  1.0000
  C   C428      1.0  0.67556  0.66077  0.50898  1.0000
  N   N44       1.0  0.55040  0.74764  0.44973  1.0000
  H   H682      1.0  0.55758  0.76848  0.48339  1.0000
  C   C429      1.0  0.54519  0.72444  0.44347  1.0000
  C   C430      1.0  0.68796  0.62355  0.43578  1.0000
  H   H683      1.0  0.56942  0.76107  0.41508  1.0000
  S   S180      1.0  0.49215  0.58405  0.67229  1.0000
  H   H684      1.0  0.69069  0.67300  0.51774  1.0000
  H   H685      1.0  0.47826  0.56016  0.76337  1.0000
  H   H686      1.0  0.45459  0.64929  0.99694  1.0000
  Fe  Fe89      1.0  0.45769  0.56975  0.68916  1.0000
  H   H687      1.0  0.48553  0.59488  0.78571  1.0000
  S   S181      1.0  0.44943  0.59156  0.71602  1.0000
  H   H688      1.0  0.36732  0.70223  0.88336  1.0000
  H   H689      1.0  0.37948  0.67766  0.86024  1.0000
  S   S182      1.0  0.39622  0.63464  0.89427  1.0000
  Fe  Fe90      1.0  0.41873  0.59841  0.85755  1.0000
  S   S183      1.0  0.44095  0.63406  0.86799  1.0000
  S   S184      1.0  0.42638  0.57369  0.83528  1.0000
  Fe  Fe91      1.0  0.42306  0.62576  0.90644  1.0000
  S   S185      1.0  0.44089  0.63985  0.94407  1.0000
  Fe  Fe92      1.0  0.41233  0.64000  0.85534  1.0000
  S   S186      1.0  0.41290  0.66666  0.82953  1.0000
  S   S187      1.0  0.40350  0.58954  0.89727  1.0000
  S   S188      1.0  0.39174  0.60531  0.84180  1.0000
  H   H690      1.0  0.43810  0.71633  0.99617  1.0000
  H   H691      1.0  0.47906  0.57347  0.73322  1.0000
  C   C431      1.0  0.42443  0.69225  0.84539  1.0000
  C   C432      1.0  0.43756  0.69561  0.86728  1.0000
  C   C433      1.0  0.44531  0.71572  0.88083  1.0000
  C   C434      1.0  0.43886  0.73187  0.87342  1.0000
  C   C435      1.0  0.42593  0.72850  0.85136  1.0000
  C   C436      1.0  0.41922  0.70895  0.83697  1.0000
  H   H692      1.0  0.44194  0.68284  0.87355  1.0000
  H   H693      1.0  0.45610  0.71869  0.89716  1.0000
  H   H694      1.0  0.42114  0.74091  0.84528  1.0000
  H   H695      1.0  0.40944  0.70650  0.81972  1.0000
  C   C437      1.0  0.42752  0.62703  0.97314  1.0000
  C   C438      1.0  0.40628  0.60909  0.97312  1.0000
  H   H696      1.0  0.41746  0.71485  0.95622  1.0000
  H   H697      1.0  0.39793  0.60251  0.95504  1.0000
  C   C439      1.0  0.52071  0.58641  0.77624  1.0000
  H   H698      1.0  0.36223  0.69241  0.81324  1.0000
  C   C440      1.0  0.43812  0.63546  0.99678  1.0000
  H   H699      1.0  0.52831  0.57641  0.76728  1.0000
  H   H700      1.0  0.51005  0.62011  0.77827  1.0000
  S   S189      1.0  0.51850  0.54818  0.69646  1.0000
  C   C441      1.0  0.44139  0.58542  0.74868  1.0000
  C   C442      1.0  0.43958  0.60171  0.76401  1.0000
  C   C443      1.0  0.43472  0.59816  0.79049  1.0000
  C   C444      1.0  0.43182  0.57833  0.80192  1.0000
  C   C445      1.0  0.43329  0.56186  0.78656  1.0000
  C   C446      1.0  0.43784  0.56529  0.75997  1.0000
  H   H701      1.0  0.44222  0.61730  0.75542  1.0000
  H   H702      1.0  0.43357  0.61096  0.80211  1.0000
  H   H703      1.0  0.43086  0.54638  0.79526  1.0000
  H   H704      1.0  0.43872  0.55243  0.74825  1.0000
  H   H705      1.0  0.37787  0.71100  0.83861  1.0000
  N   N45       1.0  0.43949  0.69997  0.96101  1.0000
  C   C447      1.0  0.36228  0.66764  0.85310  1.0000
  Fe  Fe93      1.0  0.48899  0.54988  0.67861  1.0000
  C   C448      1.0  0.45619  0.69648  0.94568  1.0000
  C   C449      1.0  0.42167  0.67823  0.96919  1.0000
  H   H706      1.0  0.49632  0.55995  0.73792  1.0000
  H   H707      1.0  0.40831  0.68002  0.98002  1.0000
  C   C450      1.0  0.52141  0.60408  0.73559  1.0000
  H   H708      1.0  0.38153  0.56589  0.80994  1.0000
  C   C451      1.0  0.37142  0.54764  0.80767  1.0000
  H   H709      1.0  0.53541  0.61984  0.74224  1.0000
  C   C452      1.0  0.49719  0.60439  0.76991  1.0000
  H   H710      1.0  0.51173  0.60851  0.72138  1.0000
  H   H711      1.0  0.51040  0.57677  0.79289  1.0000
  H   H712      1.0  0.52852  0.59432  0.72504  1.0000
  Fe  Fe94      1.0  0.37809  0.59915  0.88190  1.0000
  H   H713      1.0  0.44293  0.72802  0.93838  1.0000
  C   C453      1.0  0.48944  0.57027  0.74757  1.0000
  S   S190      1.0  0.44615  0.75553  0.89268  1.0000
  H   H714      1.0  0.48748  0.60894  0.75588  1.0000
  H   H715      1.0  0.45778  0.70522  0.99630  1.0000
  C   C454      1.0  0.42989  0.71163  0.94519  1.0000
  S   S191      1.0  0.45554  0.53633  0.69788  1.0000
  C   C455      1.0  0.36085  0.69904  0.83248  1.0000
  C   C456      1.0  0.39583  0.59948  0.99656  1.0000
  N   N46       1.0  0.50721  0.59132  0.75737  1.0000
  H   H716      1.0  0.37950  0.58544  0.99634  1.0000
  H   H717      1.0  0.42826  0.66940  0.98193  1.0000
  H   H718      1.0  0.53440  0.60191  0.78400  1.0000
  H   H719      1.0  0.44864  0.68621  0.92820  1.0000
  H   H720      1.0  0.41399  0.66713  0.95233  1.0000
  H   H721      1.0  0.38345  0.54057  0.80622  1.0000
  H   H722      1.0  0.42148  0.70180  0.92777  1.0000
  H   H723      1.0  0.54987  0.53271  0.71148  1.0000
  H   H724      1.0  0.46996  0.71248  0.93914  1.0000
  H   H725      1.0  0.46361  0.68751  0.95699  1.0000
  H   H726      1.0  0.36368  0.66092  0.83390  1.0000
  C   C457      1.0  0.51652  0.52134  0.69739  1.0000
  H   H727      1.0  0.46369  0.73007  0.97847  1.0000
  H   H728      1.0  0.36253  0.54473  0.78898  1.0000
  H   H729      1.0  0.37877  0.56023  0.85695  1.0000
  C   C458      1.0  0.45023  0.71349  0.98401  1.0000
  C   C459      1.0  0.36857  0.54220  0.85378  1.0000
  H   H730      1.0  0.38032  0.53476  0.85340  1.0000
  S   S192      1.0  0.39717  0.76976  0.89841  1.0000
  Fe  Fe95      1.0  0.41518  0.78780  0.08054  1.0000
  S   S193      1.0  0.43164  0.79266  0.11927  1.0000
  C   C460      1.0  0.53839  0.99529  0.29743  1.0000
  C   C461      1.0  0.47889  0.95840  0.20329  1.0000
  C   C462      1.0  0.51820  0.97660  0.30249  1.0000
  Fe  Fe96      1.0  0.41306  0.81211  0.12962  1.0000
  S   S194      1.0  0.43205  0.84420  0.15198  1.0000
  H   H731      1.0  0.47896  0.97492  0.20257  1.0000
  S   S195      1.0  0.39914  0.80977  0.08945  1.0000
  S   S196      1.0  0.45057  0.90864  0.29389  1.0000
  S   S197      1.0  0.48398  0.88785  0.31361  1.0000
  H   H732      1.0  0.37679  0.80827  0.02437  1.0000
  H   H733      1.0  0.52185  0.97237  0.21415  1.0000
  Fe  Fe97      1.0  0.44869  0.87493  0.29980  1.0000
  S   S198      1.0  0.42782  0.84543  0.27444  1.0000
  C   C463      1.0  0.42053  0.81453  0.01582  1.0000
  C   C464      1.0  0.43011  0.84490  0.18596  1.0000
  C   C465      1.0  0.41388  0.82711  0.19962  1.0000
  C   C466      1.0  0.41328  0.82768  0.22671  1.0000
  C   C467      1.0  0.42885  0.84604  0.24040  1.0000
  C   C468      1.0  0.44494  0.86400  0.22680  1.0000
  C   C469      1.0  0.44553  0.86343  0.19964  1.0000
  H   H734      1.0  0.40175  0.81291  0.18932  1.0000
  H   H735      1.0  0.40069  0.81380  0.23711  1.0000
  H   H736      1.0  0.45709  0.87812  0.23722  1.0000
  H   H737      1.0  0.45816  0.87722  0.18917  1.0000
  H   H738      1.0  0.45379  0.82144  0.20606  1.0000
  H   H739      1.0  0.49753  0.93124  0.21209  1.0000
  H   H740      1.0  0.44536  0.77418  0.16256  1.0000
  H   H741      1.0  0.41940  0.82144  0.03429  1.0000
  C   C470      1.0  0.37743  0.83128  0.31075  1.0000
  S   S199      1.0  0.51609  0.94998  0.29719  1.0000
  Fe  Fe98      1.0  0.48463  0.92141  0.31123  1.0000
  S   S200      1.0  0.43101  0.78539  0.04291  1.0000
  H   H742      1.0  0.48656  0.00282  0.31629  1.0000
  H   H743      1.0  0.51900  0.97041  0.24846  1.0000
  N   N47       1.0  0.48810  0.95531  0.22788  1.0000
  H   H744      1.0  0.47017  0.77963  0.18002  1.0000
  H   H745      1.0  0.48040  0.95348  0.26820  1.0000
  N   N48       1.0  0.37070  0.84915  0.31420  1.0000
  H   H746      1.0  0.55279  0.99326  0.29161  1.0000
  H   H747      1.0  0.49451  0.93038  0.24653  1.0000
  H   H748      1.0  0.48410  0.96505  0.31437  1.0000
  Fe  Fe99      1.0  0.37066  0.77845  0.10393  1.0000
  H   H749      1.0  0.38169  0.88296  0.30203  1.0000
  C   C471      1.0  0.49969  0.97936  0.31010  1.0000
  H   H750      1.0  0.41768  0.78802  0.21710  1.0000
  C   C472      1.0  0.38607  0.86900  0.29966  1.0000
  N   N49       1.0  0.44669  0.78728  0.20070  1.0000
  C   C473      1.0  0.51130  0.97269  0.23054  1.0000
  H   H751      1.0  0.44996  0.81238  0.17314  1.0000
  H   H752      1.0  0.47566  0.97387  0.25105  1.0000
  H   H753      1.0  0.47516  0.81746  0.18954  1.0000
  C   C474      1.0  0.50108  0.00073  0.31121  1.0000
  S   S201      1.0  0.38288  0.78275  0.14471  1.0000
  H   H754      1.0  0.47029  0.91964  0.22646  1.0000
  H   H755      1.0  0.47387  0.79231  0.22568  1.0000
  C   C475      1.0  0.45553  0.78600  0.22632  1.0000
  C   C476      1.0  0.47461  0.95696  0.24956  1.0000
  H   H756      1.0  0.45181  0.79608  0.24086  1.0000
  H   H757      1.0  0.48870  0.95731  0.18649  1.0000
  H   H758      1.0  0.45680  0.94479  0.24763  1.0000
  H   H759      1.0  0.37761  0.82699  0.29002  1.0000
  C   C477      1.0  0.45687  0.81064  0.19199  1.0000
  C   C478      1.0  0.42647  0.79721  0.01469  1.0000
  C   C479      1.0  0.48757  0.93317  0.22819  1.0000
  H   H760      1.0  0.51230  0.98959  0.23155  1.0000
  H   H761      1.0  0.46142  0.94550  0.20061  1.0000
  C   C480      1.0  0.42234  0.77874  0.20251  1.0000
  H   H762      1.0  0.36612  0.81593  0.32123  1.0000
  H   H763      1.0  0.39452  0.83635  0.31809  1.0000
  C   C481      1.0  0.45196  0.77371  0.18203  1.0000
  H   H764      1.0  0.40339  0.87515  0.30656  1.0000
  H   H765      1.0  0.41521  0.78018  0.18372  1.0000
  H   H766      1.0  0.38617  0.86540  0.27871  1.0000
  Fe  Fe100     1.0  0.43897  0.90555  0.33508  1.0000
  H   H767      1.0  0.38056  0.77361  0.02274  1.0000
  C   C482      1.0  0.35856  0.79806  0.02657  1.0000
  C   C483      1.0  0.53998  0.01670  0.29944  1.0000
  H   H768      1.0  0.55197  0.95123  0.33482  1.0000
  C   C484      1.0  0.52120  0.01944  0.30581  1.0000
  Fe  Fe101     1.0  0.59819  0.87606  0.49737  1.0000
  S   S202      1.0  0.56718  0.87713  0.48299  1.0000
  S   S203      1.0  0.59627  0.84387  0.51509  1.0000
  Fe  Fe102     1.0  0.62678  0.92694  0.48894  1.0000
  S   S204      1.0  0.59810  0.93110  0.47340  1.0000
  S   S205      1.0  0.66259  0.95421  0.49276  1.0000
  Fe  Fe103     1.0  0.57835  0.90869  0.50579  1.0000
  S   S206      1.0  0.55623  0.92117  0.52561  1.0000
  Fe  Fe104     1.0  0.58920  0.89942  0.45188  1.0000
  S   S207      1.0  0.57938  0.89704  0.40995  1.0000
  S   S208      1.0  0.60767  0.90632  0.52299  1.0000
  S   S209      1.0  0.61968  0.89654  0.46463  1.0000
  Fe  Fe105     1.0  0.48189  0.89678  0.64291  1.0000
  S   S210      1.0  0.49381  0.87511  0.62107  1.0000
  Fe  Fe106     1.0  0.45511  0.92282  0.64136  1.0000
  S   S211      1.0  0.43620  0.93552  0.61603  1.0000
  S   S212      1.0  0.49022  0.93135  0.63053  1.0000
  H   H769      1.0  0.64774  0.99007  0.49164  1.0000
  C   C485      1.0  0.54319  0.94090  0.35182  1.0000
  C   C486      1.0  0.38208  0.88657  0.42594  1.0000
  S   S213      1.0  0.47946  0.87718  0.39083  1.0000
  C   C487      1.0  0.37305  0.89784  0.41126  1.0000
  C   C488      1.0  0.38214  0.90636  0.38687  1.0000
  C   C489      1.0  0.40037  0.90382  0.37730  1.0000
  C   C490      1.0  0.40956  0.89291  0.39224  1.0000
  H   H770      1.0  0.40998  0.87493  0.47897  1.0000
  H   H771      1.0  0.42375  0.89106  0.38523  1.0000
  C   C491      1.0  0.41061  0.91697  0.60255  1.0000
  C   C492      1.0  0.40146  0.89416  0.60713  1.0000
  C   C493      1.0  0.38036  0.87988  0.59746  1.0000
  C   C494      1.0  0.37812  0.91100  0.57716  1.0000
  C   C495      1.0  0.39901  0.92531  0.58730  1.0000
  H   H772      1.0  0.41067  0.88756  0.61808  1.0000
  H   H773      1.0  0.37691  0.86240  0.50739  1.0000
  H   H774      1.0  0.40606  0.94296  0.58362  1.0000
  C   C496      1.0  0.60085  0.82101  0.50453  1.0000
  C   C497      1.0  0.59466  0.80256  0.52095  1.0000
  C   C498      1.0  0.59870  0.78442  0.51410  1.0000
  S   S214      1.0  0.44594  0.88734  0.65060  1.0000
  C   C499      1.0  0.61565  0.80309  0.47442  1.0000
  C   C500      1.0  0.61117  0.82103  0.48102  1.0000
  H   H775      1.0  0.58673  0.80232  0.53923  1.0000
  H   H776      1.0  0.61602  0.83500  0.46809  1.0000
  C   C501      1.0  0.53731  0.90622  0.55010  1.0000
  C   C502      1.0  0.53775  0.88790  0.56209  1.0000
  C   C503      1.0  0.52381  0.87793  0.58343  1.0000
  C   C504      1.0  0.50945  0.88624  0.59276  1.0000
  C   C505      1.0  0.50849  0.90400  0.58010  1.0000
  C   C506      1.0  0.52245  0.91402  0.55895  1.0000
  H   H777      1.0  0.54916  0.88178  0.55533  1.0000
  H   H778      1.0  0.52449  0.86406  0.59305  1.0000
  H   H779      1.0  0.49701  0.91005  0.58659  1.0000
  H   H780      1.0  0.52194  0.92807  0.54958  1.0000
  C   C507      1.0  0.55148  0.89109  0.40468  1.0000
  C   C508      1.0  0.53707  0.88814  0.42540  1.0000
  C   C509      1.0  0.51490  0.88345  0.42087  1.0000
  C   C510      1.0  0.50711  0.88220  0.39563  1.0000
  C   C511      1.0  0.52154  0.88537  0.37484  1.0000
  C   C512      1.0  0.54364  0.88961  0.37939  1.0000
  H   H781      1.0  0.54297  0.88947  0.44495  1.0000
  H   H782      1.0  0.50382  0.88107  0.43702  1.0000
  H   H783      1.0  0.55471  0.89173  0.36331  1.0000
  C   C513      1.0  0.40034  0.88418  0.41636  1.0000
  H   H784      1.0  0.51346  0.92964  0.39011  1.0000
  C   C514      1.0  0.42476  0.88545  0.54200  1.0000
  H   H785      1.0  0.41812  0.89009  0.55944  1.0000
  C   C515      1.0  0.60937  0.78459  0.49081  1.0000
  H   H786      1.0  0.62398  0.80352  0.45639  1.0000
  C   C516      1.0  0.40940  0.90376  0.51452  1.0000
  C   C517      1.0  0.42030  0.87713  0.49644  1.0000
  H   H787      1.0  0.42582  0.86985  0.54647  1.0000
  N   N50       1.0  0.41063  0.88278  0.51928  1.0000
  H   H788      1.0  0.44201  0.89873  0.53893  1.0000
  N   N51       1.0  0.54410  0.95478  0.37431  1.0000
  C   C518      1.0  0.53101  0.94038  0.39578  1.0000
  C   C519      1.0  0.38803  0.86481  0.52413  1.0000
  H   H789      1.0  0.40741  0.87548  0.42759  1.0000
  H   H790      1.0  0.42150  0.86139  0.49935  1.0000
  N   N52       1.0  0.56195  0.94749  0.62697  1.0000
  C   C520      1.0  0.37595  0.00700  0.50535  1.0000
  H   H791      1.0  0.51559  0.88420  0.35532  1.0000
  H   H792      1.0  0.56875  0.97846  0.39942  1.0000
  C   C521      1.0  0.66800  0.91010  0.51808  1.0000
  C   C522      1.0  0.57224  0.93859  0.60791  1.0000
  H   H793      1.0  0.37496  0.91479  0.37536  1.0000
  H   H794      1.0  0.43729  0.89040  0.49205  1.0000
  S   S215      1.0  0.47320  0.92173  0.35172  1.0000
  H   H795      1.0  0.43616  0.01209  0.42400  1.0000
  H   H796      1.0  0.52574  0.93009  0.34587  1.0000
  H   H797      1.0  0.59151  0.97834  0.63157  1.0000
  H   H798      1.0  0.38015  0.86854  0.54111  1.0000
  H   H799      1.0  0.38824  0.84870  0.52783  1.0000
  H   H800      1.0  0.57202  0.97136  0.65778  1.0000
  H   H801      1.0  0.54194  0.96483  0.62709  1.0000
  C   C523      1.0  0.57936  0.96429  0.64330  1.0000
  H   H802      1.0  0.42616  0.91778  0.51114  1.0000
  H   H803      1.0  0.39914  0.90242  0.49724  1.0000
  H   H804      1.0  0.40179  0.90829  0.53119  1.0000
  H   H805      1.0  0.38836  0.86052  0.34993  1.0000
  H   H806      1.0  0.65212  0.88976  0.56396  1.0000
  H   H807      1.0  0.58370  0.95175  0.59463  1.0000
  C   C524      1.0  0.66560  0.99756  0.49377  1.0000
  H   H808      1.0  0.53808  0.92917  0.40216  1.0000
  C   C525      1.0  0.54988  0.95788  0.61330  1.0000
  H   H809      1.0  0.56116  0.97164  0.60059  1.0000
  H   H810      1.0  0.58177  0.93090  0.61745  1.0000
  S   S216      1.0  0.37091  0.87466  0.45602  1.0000
  H   H811      1.0  0.53649  0.94565  0.60099  1.0000
  C   C526      1.0  0.54627  0.92919  0.64336  1.0000
  H   H812      1.0  0.53848  0.93529  0.65830  1.0000
  H   H813      1.0  0.51737  0.96082  0.36035  1.0000
  H   H814      1.0  0.55099  0.92989  0.35615  1.0000
  H   H815      1.0  0.55462  0.92055  0.65348  1.0000
  H   H816      1.0  0.36909  0.91763  0.56582  1.0000
  H   H817      1.0  0.58866  0.95699  0.65412  1.0000
  C   C527      1.0  0.56744  0.96776  0.38248  1.0000
  H   H818      1.0  0.37316  0.86226  0.60136  1.0000
  S   S217      1.0  0.41074  0.91312  0.34607  1.0000
  H   H819      1.0  0.37045  0.97297  0.51149  1.0000
  H   H820      1.0  0.54449  0.98135  0.35118  1.0000
  C   C528      1.0  0.36860  0.88830  0.58258  1.0000
  Fe  Fe107     1.0  0.47043  0.88744  0.35330  1.0000
  H   H821      1.0  0.55942  0.92554  0.59574  1.0000
  H   H822      1.0  0.65063  0.85498  0.50795  1.0000
  H   H823      1.0  0.57489  0.95666  0.38813  1.0000
  H   H824      1.0  0.53077  0.95024  0.41290  1.0000
  C   C529      1.0  0.53481  0.97007  0.36714  1.0000
  H   H825      1.0  0.38834  0.00526  0.41670  1.0000
  H   H826      1.0  0.39734  0.99274  0.44159  1.0000
  H   H827      1.0  0.65288  0.91072  0.51063  1.0000
  H   H828      1.0  0.53491  0.98063  0.38370  1.0000
  H   H829      1.0  0.63949  0.87240  0.49524  1.0000
  H   H830      1.0  0.40778  0.90644  0.65976  1.0000
  S   S218      1.0  0.43514  0.87120  0.34011  1.0000
  H   H831      1.0  0.53256  0.91651  0.63180  1.0000
  C   C530      1.0  0.36358  0.98344  0.50391  1.0000
  H   H832      1.0  0.39006  0.86547  0.65309  1.0000
  H   H833      1.0  0.38302  0.00867  0.44993  1.0000
  H   H834      1.0  0.57784  0.97875  0.36671  1.0000
  H   H835      1.0  0.35997  0.84024  0.35357  1.0000
  H   H836      1.0  0.39214  0.01441  0.51428  1.0000
  Fe  Fe108     1.0  0.49802  0.94036  0.67207  1.0000
  C   C531      1.0  0.39548  0.00780  0.43642  1.0000
  H   H837      1.0  0.57601  0.78050  0.44137  1.0000
  H   H838      1.0  0.64116  0.86185  0.55142  1.0000
  C   C532      1.0  0.64618  0.87947  0.54622  1.0000
  N   N53       1.0  0.66320  0.88727  0.52558  1.0000
  H   H839      1.0  0.36673  0.86841  0.34517  1.0000
  C   C533      1.0  0.65487  0.87247  0.50294  1.0000
  H   H840      1.0  0.63080  0.88028  0.54005  1.0000
  H   H841      1.0  0.36799  0.88636  0.64776  1.0000
  C   C534      1.0  0.36366  0.88332  0.66860  1.0000
  C   C535      1.0  0.37139  0.85474  0.34189  1.0000
  H   H842      1.0  0.42713  0.01553  0.47067  1.0000
  H   H843      1.0  0.66726  0.87777  0.48697  1.0000
  H   H844      1.0  0.35894  0.89971  0.41854  1.0000
  H   H845      1.0  0.67399  0.92183  0.53465  1.0000
  H   H846      1.0  0.68055  0.87003  0.54093  1.0000
  C   C536      1.0  0.67631  0.98385  0.49484  1.0000
  H   H847      1.0  0.68075  0.91670  0.50252  1.0000
  H   H848      1.0  0.69050  0.89816  0.55205  1.0000
  C   C537      1.0  0.68371  0.88705  0.53504  1.0000
  H   H849      1.0  0.59389  0.77047  0.52707  1.0000
  H   H850      1.0  0.41158  0.83641  0.99393  1.0000
  Fe  Fe109     1.0  0.42982  0.77655  0.88025  1.0000
  H   H851      1.0  0.41624  0.90335  0.69150  1.0000
  H   H852      1.0  0.39997  0.91789  0.68690  1.0000
  Fe  Fe110     1.0  0.45692  0.89965  0.69104  1.0000
  S   S219      1.0  0.43263  0.88022  0.72291  1.0000
  H   H853      1.0  0.38909  0.87789  0.72270  1.0000
  C   C538      1.0  0.41625  0.82307  0.99297  1.0000
  C   C539      1.0  0.55244  0.01545  0.67860  1.0000
  Fe  Fe111     1.0  0.43316  0.81700  0.85009  1.0000
  S   S220      1.0  0.40057  0.81336  0.86587  1.0000
  S   S221      1.0  0.45787  0.84531  0.82548  1.0000
  Fe  Fe112     1.0  0.41225  0.80663  0.90398  1.0000
  S   S222      1.0  0.40990  0.82349  0.94082  1.0000
  C   C540      1.0  0.53201  0.99651  0.68163  1.0000
  S   S223      1.0  0.44567  0.81293  0.88892  1.0000
  H   H854      1.0  0.56727  0.01365  0.67437  1.0000
  C   C541      1.0  0.41759  0.81412  0.96893  1.0000
  C   C542      1.0  0.42382  0.79701  0.96779  1.0000
  C   C543      1.0  0.42840  0.78870  0.99060  1.0000
  C   C544      1.0  0.40231  0.90341  0.68024  1.0000
  N   N54       1.0  0.38184  0.88233  0.68344  1.0000
  Fe  Fe113     1.0  0.38853  0.77683  0.85896  1.0000
  H   H855      1.0  0.37300  0.89278  0.71908  1.0000
  S   S224      1.0  0.42025  0.78100  0.84011  1.0000
  H   H856      1.0  0.47717  0.86073  0.87464  1.0000
  C   C545      1.0  0.44005  0.87001  0.75076  1.0000
  C   C546      1.0  0.42315  0.85501  0.76689  1.0000
  C   C547      1.0  0.42834  0.84692  0.78955  1.0000
  C   C548      1.0  0.45052  0.85403  0.79645  1.0000
  C   C549      1.0  0.46742  0.86911  0.78040  1.0000
  C   C550      1.0  0.46223  0.87695  0.75754  1.0000
  H   H857      1.0  0.40594  0.84954  0.76180  1.0000
  H   H858      1.0  0.41519  0.83531  0.80174  1.0000
  H   H859      1.0  0.48462  0.87467  0.78558  1.0000
  H   H860      1.0  0.47538  0.88851  0.74532  1.0000
  N   N55       1.0  0.46488  0.88306  0.88893  1.0000
  C   C551      1.0  0.44135  0.86709  0.88492  1.0000
  C   C552      1.0  0.47825  0.87090  0.89203  1.0000
  C   C553      1.0  0.46675  0.89619  0.91245  1.0000
  C   C554      1.0  0.47311  0.89795  0.86635  1.0000
  H   H861      1.0  0.43475  0.85508  0.90115  1.0000
  H   H862      1.0  0.43924  0.85732  0.86697  1.0000
  H   H863      1.0  0.43062  0.87556  0.88312  1.0000
  H   H864      1.0  0.49613  0.88241  0.89497  1.0000
  H   H865      1.0  0.47243  0.85940  0.90882  1.0000
  H   H866      1.0  0.46036  0.88522  0.92968  1.0000
  H   H867      1.0  0.45695  0.90567  0.91073  1.0000
  H   H868      1.0  0.48431  0.90827  0.91630  1.0000
  H   H869      1.0  0.49082  0.91025  0.86863  1.0000
  H   H870      1.0  0.46323  0.90718  0.86317  1.0000
  H   H871      1.0  0.47195  0.88841  0.84834  1.0000
  C   C555      1.0  0.37572  0.87890  0.71107  1.0000
  H   H872      1.0  0.42502  0.79007  0.94935  1.0000
  S   S225      1.0  0.53108  0.97009  0.67926  1.0000
  H   H873      1.0  0.49714  0.98445  0.68964  1.0000
  S   S226      1.0  0.46353  0.93481  0.68222  1.0000
  C   C556      1.0  0.51293  0.99897  0.68716  1.0000
  H   H874      1.0  0.37418  0.78913  0.98219  1.0000
  H   H875      1.0  0.43316  0.77542  0.98959  1.0000
  S   S227      1.0  0.49224  0.90614  0.68409  1.0000
  H   H876      1.0  0.36031  0.86318  0.71426  1.0000
  H   H877      1.0  0.39961  0.86270  0.68436  1.0000
  H   H878      1.0  0.36011  0.89701  0.67553  1.0000
  H   H879      1.0  0.37074  0.84746  0.67653  1.0000
  C   C557      1.0  0.38569  0.86368  0.67391  1.0000
  H   H880      1.0  0.70533  0.26116  0.12736  1.0000
  Fe  Fe114     1.0  0.71419  0.12281  0.45490  1.0000
  S   S228      1.0  0.74349  0.11981  0.47135  1.0000
  H   H881      1.0  0.70267  0.15278  0.54689  1.0000
  N   N56       1.0  0.72552  0.17221  0.57623  1.0000
  S   S229      1.0  0.72078  0.11726  0.52791  1.0000
  H   H882      1.0  0.82530  0.26828  0.40070  1.0000
  Fe  Fe115     1.0  0.74445  0.14453  0.50146  1.0000
  S   S230      1.0  0.77236  0.17612  0.51965  1.0000
  Fe  Fe116     1.0  0.71741  0.09293  0.49613  1.0000
  S   S231      1.0  0.87061  0.24965  0.48714  1.0000
  S   S232      1.0  0.71672  0.14909  0.48293  1.0000
  C   C558      1.0  0.71076  0.04146  0.39827  1.0000
  C   C559      1.0  0.71790  0.07887  0.40925  1.0000
  C   C560      1.0  0.79923  0.19682  0.50937  1.0000
  C   C561      1.0  0.81020  0.19415  0.48761  1.0000
  C   C562      1.0  0.83187  0.21049  0.48115  1.0000
  C   C563      1.0  0.84290  0.22994  0.49603  1.0000
  C   C564      1.0  0.83172  0.23289  0.51740  1.0000
  C   C565      1.0  0.81018  0.21639  0.52410  1.0000
  H   H883      1.0  0.80221  0.17924  0.47611  1.0000
  H   H884      1.0  0.84028  0.20785  0.46466  1.0000
  H   H885      1.0  0.83987  0.24763  0.52917  1.0000
  H   H886      1.0  0.80205  0.21874  0.54102  1.0000
  H   H887      1.0  0.70272  0.18365  0.59138  1.0000
  H   H888      1.0  0.75207  0.19686  0.59844  1.0000
  H   H889      1.0  0.83702  0.26824  0.47054  1.0000
  H   H890      1.0  0.87433  0.26988  0.43491  1.0000
  H   H891      1.0  0.72971  0.17142  0.53520  1.0000
  C   C566      1.0  0.70137  0.03088  0.49881  1.0000
  H   H892      1.0  0.71786  0.13782  0.58023  1.0000
  H   H893      1.0  0.70776  0.02485  0.40562  1.0000
  S   S233      1.0  0.71903  0.06006  0.50126  1.0000
  H   H894      1.0  0.74066  0.20783  0.57432  1.0000
  H   H895      1.0  0.84683  0.24772  0.43724  1.0000
  H   H896      1.0  0.71936  0.09072  0.42497  1.0000
  C   C567      1.0  0.71678  0.16950  0.54972  1.0000
  H   H897      1.0  0.73612  0.07213  0.45114  1.0000
  C   C568      1.0  0.70805  0.17050  0.59473  1.0000
  C   C569      1.0  0.85713  0.26378  0.42733  1.0000
  C   C570      1.0  0.74503  0.19416  0.57866  1.0000
  H   H898      1.0  0.71070  0.18189  0.54516  1.0000
  H   H899      1.0  0.73361  0.08649  0.39791  1.0000
  S   S234      1.0  0.71014  0.12780  0.41267  1.0000
  H   H900      1.0  0.74806  0.06468  0.42423  1.0000
  H   H901      1.0  0.70425  0.07772  0.39641  1.0000
  H   H902      1.0  0.74518  0.15526  0.56776  1.0000
  Fe  Fe117     1.0  0.69334  0.12067  0.50719  1.0000
  H   H903      1.0  0.81437  0.25525  0.43122  1.0000
  H   H904      1.0  0.73918  0.15628  0.60141  1.0000
  H   H905      1.0  0.85760  0.26035  0.40641  1.0000
  C   C571      1.0  0.73223  0.15463  0.58167  1.0000
  N   N57       1.0  0.71361  0.05697  0.41973  1.0000
  C   C572      1.0  0.73260  0.05940  0.43582  1.0000
  H   H906      1.0  0.75850  0.19576  0.56496  1.0000
  H   H907      1.0  0.72954  0.02422  0.50219  1.0000
  H   H908      1.0  0.71381  0.17194  0.61502  1.0000
  H   H909      1.0  0.72575  0.04774  0.38566  1.0000
  H   H910      1.0  0.72924  0.04359  0.44580  1.0000
  H   H911      1.0  0.69512  0.05882  0.45271  1.0000
  C   C573      1.0  0.69317  0.04812  0.43561  1.0000
  H   H912      1.0  0.69634  0.03905  0.38600  1.0000
  H   H913      1.0  0.69293  0.15427  0.59293  1.0000
  S   S235      1.0  0.71155  0.25057  0.89076  1.0000
  H   H914      1.0  0.70054  0.23696  0.83350  1.0000
  H   H915      1.0  0.71944  0.23884  0.80816  1.0000
  H   H916      1.0  0.72668  0.19933  0.82503  1.0000
  C   C574      1.0  0.71322  0.19668  0.81108  1.0000
  H   H917      1.0  0.70394  0.17851  0.80730  1.0000
  H   H918      1.0  0.70073  0.19691  0.86061  1.0000
  H   H919      1.0  0.72120  0.20486  0.79264  1.0000
  C   C575      1.0  0.71126  0.22965  0.82603  1.0000
  H   H920      1.0  0.72437  0.23316  0.84079  1.0000
  N   N58       1.0  0.69832  0.20556  0.82118  1.0000
  Fe  Fe118     1.0  0.89843  0.44050  0.30637  1.0000
  S   S236      1.0  0.93267  0.44223  0.30518  1.0000
  S   S237      1.0  0.86857  0.42883  0.27969  1.0000
  C   C576      1.0  0.69725  0.34064  0.16602  1.0000
  H   H921      1.0  0.86378  0.43388  0.10309  1.0000
  H   H922      1.0  0.86530  0.46901  0.30079  1.0000
  H   H923      1.0  0.84758  0.42391  0.07425  1.0000
  Fe  Fe119     1.0  0.80440  0.39986  0.08902  1.0000
  S   S238      1.0  0.82422  0.38257  0.10196  1.0000
  S   S239      1.0  0.80705  0.41641  0.05041  1.0000
  Fe  Fe120     1.0  0.78068  0.39310  0.14039  1.0000
  S   S240      1.0  0.79843  0.37543  0.15794  1.0000
  S   S241      1.0  0.75412  0.39553  0.16423  1.0000
  Fe  Fe121     1.0  0.82887  0.40149  0.13913  1.0000
  S   S242      1.0  0.86277  0.41556  0.15778  1.0000
  Fe  Fe122     1.0  0.79232  0.35800  0.11994  1.0000
  S   S243      1.0  0.78096  0.32138  0.11776  1.0000
  S   S244      1.0  0.81171  0.42109  0.12477  1.0000
  S   S245      1.0  0.77191  0.37345  0.10375  1.0000
  H   H924      1.0  0.83249  0.41498  0.24445  1.0000
  C   C577      1.0  0.73984  0.40760  0.14758  1.0000
  C   C578      1.0  0.72099  0.40762  0.15887  1.0000
  H   H925      1.0  0.80533  0.31994  0.20126  1.0000
  C   C579      1.0  0.71574  0.42578  0.12109  1.0000
  C   C580      1.0  0.73481  0.42604  0.10990  1.0000
  C   C581      1.0  0.74671  0.41669  0.12301  1.0000
  H   H926      1.0  0.99187  0.45202  0.31644  1.0000
  H   H927      1.0  0.82669  0.35463  0.14272  1.0000
  H   H928      1.0  0.74036  0.43339  0.09110  1.0000
  H   H929      1.0  0.76133  0.41677  0.11424  1.0000
  H   H930      1.0  0.83596  0.45397  0.07937  1.0000
  C   C582      1.0  0.73884  0.28734  0.12323  1.0000
  C   C583      1.0  0.75506  0.30742  0.13318  1.0000
  C   C584      1.0  0.75051  0.31635  0.15548  1.0000
  C   C585      1.0  0.81433  0.38553  0.02198  1.0000
  C   C586      1.0  0.86873  0.46019  0.04584  1.0000
  H   H931      1.0  0.76282  0.33178  0.16334  1.0000
  Fe  Fe123     1.0  0.94369  0.47476  0.32618  1.0000
  C   C587      1.0  0.81005  0.40395  0.02163  1.0000
  H   H932      1.0  0.85311  0.46407  0.10739  1.0000
  C   C588      1.0  0.86412  0.43583  0.08172  1.0000
  H   H933      1.0  0.81546  0.37834  0.04018  1.0000
  H   H934      1.0  0.85189  0.44895  0.03830  1.0000
  H   H935      1.0  0.87641  0.43063  0.07380  1.0000
  H   H936      1.0  0.69991  0.39682  0.03728  1.0000
  C   C589      1.0  0.86773  0.42535  0.24579  1.0000
  C   C590      1.0  0.88667  0.42948  0.23112  1.0000
  C   C591      1.0  0.88501  0.42652  0.20412  1.0000
  C   C592      1.0  0.86447  0.41946  0.19165  1.0000
  C   C593      1.0  0.84559  0.41531  0.20637  1.0000
  C   C594      1.0  0.84722  0.41821  0.23328  1.0000
  H   H937      1.0  0.90255  0.43499  0.24054  1.0000
  H   H938      1.0  0.89972  0.42976  0.19289  1.0000
  H   H939      1.0  0.82970  0.41003  0.19705  1.0000
  S   S246      1.0  0.97490  0.50694  0.32082  1.0000
  H   H940      1.0  0.70935  0.34147  0.10223  1.0000
  H   H941      1.0  0.90476  0.46977  0.07498  1.0000
  H   H942      1.0  0.85387  0.35623  0.14374  1.0000
  C   C595      1.0  0.84499  0.32659  0.18230  1.0000
  H   H943      1.0  0.85661  0.48233  0.08070  1.0000
  S   S247      1.0  0.91033  0.47447  0.32387  1.0000
  H   H944      1.0  0.71505  0.44217  0.01164  1.0000
  C   C596      1.0  0.71364  0.28529  0.15790  1.0000
  H   H945      1.0  0.89655  0.49153  0.07848  1.0000
  H   H946      1.0  0.83001  0.33050  0.13552  1.0000
  C   C597      1.0  0.00166  0.49300  0.29445  1.0000
  N   N59       1.0  0.84122  0.45846  0.33156  1.0000
  C   C598      1.0  0.84730  0.46387  0.30413  1.0000
  C   C599      1.0  0.89198  0.47399  0.08354  1.0000
  H   H947      1.0  0.86312  0.33663  0.17869  1.0000
  H   H948      1.0  0.74226  0.28038  0.10594  1.0000
  H   H949      1.0  0.70503  0.33016  0.17270  1.0000
  H   H950      1.0  0.87273  0.47729  0.03942  1.0000
  C   C600      1.0  0.84078  0.35952  0.19181  1.0000
  C   C601      1.0  0.83605  0.34540  0.14825  1.0000
  H   H951      1.0  0.83860  0.35559  0.21277  1.0000
  H   H952      1.0  0.80180  0.31008  0.16842  1.0000
  C   C602      1.0  0.81726  0.45156  0.33514  1.0000
  N   N60       1.0  0.69195  0.33728  0.13824  1.0000
  H   H953      1.0  0.84278  0.32165  0.20298  1.0000
  N   N61       1.0  0.83261  0.33919  0.17580  1.0000
  H   H954      1.0  0.71572  0.40072  0.17793  1.0000
  N   N62       1.0  0.86950  0.45880  0.07425  1.0000
  H   H955      1.0  0.72686  0.31176  0.18576  1.0000
  C   C603      1.0  0.73005  0.30506  0.16813  1.0000
  H   H956      1.0  0.83806  0.44922  0.29145  1.0000
  C   C604      1.0  0.85313  0.46511  0.08596  1.0000
  C   C605      1.0  0.80865  0.32525  0.18075  1.0000
  H   H957      1.0  0.72431  0.36187  0.12640  1.0000
  H   H958      1.0  0.72161  0.33431  0.12903  1.0000
  H   H959      1.0  0.83692  0.42498  0.32743  1.0000
  H   H960      1.0  0.85872  0.37064  0.18823  1.0000
  C   C606      1.0  0.99935  0.50438  0.31590  1.0000
  H   H961      1.0  0.79885  0.33432  0.17626  1.0000
  H   H962      1.0  0.88064  0.45524  0.03631  1.0000
  C   C607      1.0  0.98820  0.45033  0.33747  1.0000
  H   H963      1.0  0.98781  0.48460  0.28149  1.0000
  H   H964      1.0  0.83921  0.31116  0.17054  1.0000
  H   H965      1.0  0.89305  0.47305  0.10492  1.0000
  H   H966      1.0  0.83178  0.36942  0.18750  1.0000
  C   C608      1.0  0.70883  0.41646  0.14552  1.0000
  H   H967      1.0  0.80704  0.43666  0.32326  1.0000
  C   C609      1.0  0.01737  0.51535  0.33251  1.0000
  S   S248      1.0  0.70052  0.43685  0.10426  1.0000
  H   H968      1.0  0.69443  0.41653  0.15446  1.0000
  H   H969      1.0  0.86402  0.44493  0.33679  1.0000
  H   H970      1.0  0.81292  0.46498  0.32945  1.0000
  H   H971      1.0  0.69197  0.36887  0.13314  1.0000
  C   C610      1.0  0.71269  0.34402  0.12325  1.0000
  C   C611      1.0  0.69621  0.40957  0.04674  1.0000
  H   H972      1.0  0.70904  0.35824  0.17029  1.0000
  H   H973      1.0  0.84382  0.47759  0.29743  1.0000
  H   H974      1.0  0.69612  0.44882  0.05015  1.0000
  C   C612      1.0  0.71796  0.27648  0.13532  1.0000
  H   H975      1.0  0.71221  0.42315  0.05363  1.0000
  H   H976      1.0  0.00065  0.42031  0.31949  1.0000
  C   C613      1.0  0.02212  0.49301  0.28933  1.0000
  H   H977      1.0  0.02396  0.48444  0.27252  1.0000
  C   C614      1.0  0.69887  0.42811  0.00615  1.0000
  H   H978      1.0  0.86484  0.28965  0.46841  1.0000
  S   S249      1.0  0.93799  0.46012  0.36587  1.0000
  S   S250      1.0  0.88460  0.46385  0.39378  1.0000
  C   C615      1.0  0.82564  0.27127  0.42185  1.0000
  H   H979      1.0  0.87241  0.48365  0.34551  1.0000
  Fe  Fe124     1.0  0.90317  0.33168  0.48259  1.0000
  S   S251      1.0  0.91332  0.30729  0.46533  1.0000
  S   S252      1.0  0.88675  0.34844  0.45968  1.0000
  Fe  Fe125     1.0  0.91651  0.32490  0.53620  1.0000
  S   S253      1.0  0.92687  0.29905  0.52286  1.0000
  S   S254      1.0  0.92210  0.33765  0.57720  1.0000
  Fe  Fe126     1.0  0.94376  0.32319  0.49052  1.0000
  S   S255      1.0  0.97874  0.33709  0.47305  1.0000
  Fe  Fe127     1.0  0.89511  0.28543  0.49917  1.0000
  S   S256      1.0  0.93458  0.34932  0.50497  1.0000
  S   S257      1.0  0.88388  0.30963  0.51542  1.0000
  H   H980      1.0  0.85698  0.31397  0.42260  1.0000
  S   S258      1.0  0.94820  0.47162  0.63965  1.0000
  C   C616      1.0  0.02369  0.36490  0.47476  1.0000
  Fe  Fe128     1.0  0.91581  0.44129  0.63416  1.0000
  S   S259      1.0  0.90937  0.42417  0.59537  1.0000
  C   C617      1.0  0.91776  0.36121  0.58253  1.0000
  C   C618      1.0  0.91096  0.37045  0.56245  1.0000
  C   C619      1.0  0.90843  0.38973  0.56671  1.0000
  C   C620      1.0  0.91268  0.39992  0.59104  1.0000
  C   C621      1.0  0.91959  0.39077  0.61115  1.0000
  C   C622      1.0  0.92211  0.37143  0.60688  1.0000
  H   H981      1.0  0.90751  0.36267  0.54364  1.0000
  H   H982      1.0  0.90304  0.39667  0.55108  1.0000
  H   H983      1.0  0.92286  0.39850  0.62997  1.0000
  H   H984      1.0  0.92738  0.36434  0.62248  1.0000
  H   H985      1.0  0.70522  0.49543  0.57987  1.0000
  C   C623      1.0  0.00561  0.34754  0.48717  1.0000
  H   H986      1.0  0.97808  0.42785  0.38214  1.0000
  H   H987      1.0  0.99598  0.32483  0.51907  1.0000
  H   H988      1.0  0.98490  0.37486  0.51505  1.0000
  C   C624      1.0  0.92178  0.38729  0.38711  1.0000
  C   C625      1.0  0.92932  0.37332  0.39900  1.0000
  C   C626      1.0  0.91900  0.36164  0.42160  1.0000
  C   C627      1.0  0.90086  0.36365  0.43216  1.0000
  C   C628      1.0  0.89333  0.37758  0.42025  1.0000
  C   C629      1.0  0.90389  0.38954  0.39796  1.0000
  H   H989      1.0  0.94317  0.37151  0.39075  1.0000
  H   H990      1.0  0.92496  0.35096  0.43068  1.0000
  H   H991      1.0  0.87935  0.37923  0.42836  1.0000
  H   H992      1.0  0.89802  0.40034  0.38909  1.0000
  H   H993      1.0  0.69663  0.50845  0.53863  1.0000
  H   H994      1.0  0.87457  0.48382  0.43761  1.0000
  N   N63       1.0  0.88902  0.45969  0.54616  1.0000
  C   C630      1.0  0.89972  0.47241  0.52262  1.0000
  C   C631      1.0  0.88443  0.43626  0.54280  1.0000
  H   H995      1.0  0.99038  0.34520  0.55516  1.0000
  H   H996      1.0  0.85601  0.45318  0.53482  1.0000
  H   H997      1.0  0.01170  0.37893  0.52565  1.0000
  H   H998      1.0  0.86381  0.29913  0.39804  1.0000
  C   C632      1.0  0.99795  0.38324  0.52991  1.0000
  H   H999      1.0  0.90003  0.43471  0.53981  1.0000
  H   H1000     1.0  0.87618  0.42623  0.56022  1.0000
  H   H1001     1.0  0.87345  0.42845  0.52599  1.0000
  H   H1002     1.0  0.90856  0.48718  0.57089  1.0000
  C   C633      1.0  0.86793  0.46083  0.55090  1.0000
  C   C634      1.0  0.97271  0.38472  0.56218  1.0000
  H   H1003     1.0  0.88895  0.46555  0.50541  1.0000
  C   C635      1.0  0.89116  0.51922  0.43134  1.0000
  H   H1004     1.0  0.02024  0.37993  0.57106  1.0000
  H   H1005     1.0  0.99926  0.45563  0.38745  1.0000
  H   H1006     1.0  0.98008  0.40309  0.56078  1.0000
  H   H1007     1.0  0.00476  0.46190  0.63665  1.0000
  H   H1008     1.0  0.00468  0.40144  0.52708  1.0000
  H   H1009     1.0  0.88021  0.30840  0.42676  1.0000
  H   H1010     1.0  0.96492  0.34419  0.54374  1.0000
  H   H1011     1.0  0.97042  0.34626  0.57753  1.0000
  H   H1012     1.0  0.02060  0.45264  0.61631  1.0000
  C   C636      1.0  0.89850  0.51046  0.61130  1.0000
  Fe  Fe129     1.0  0.90374  0.45718  0.36193  1.0000
  H   H1013     1.0  0.01620  0.40435  0.57397  1.0000
  H   H1014     1.0  0.00580  0.43264  0.38978  1.0000
  H   H1015     1.0  0.87070  0.47831  0.55270  1.0000
  H   H1016     1.0  0.89609  0.46069  0.58665  1.0000
  C   C637      1.0  0.01723  0.46698  0.62066  1.0000
  H   H1017     1.0  0.84213  0.43570  0.36004  1.0000
  C   C638      1.0  0.90680  0.50900  0.38548  1.0000
  H   H1018     1.0  0.02093  0.37169  0.45705  1.0000
  H   H1019     1.0  0.96570  0.37986  0.58195  1.0000
  C   C639      1.0  0.00758  0.38591  0.57498  1.0000
  H   H1020     1.0  0.86773  0.50291  0.59191  1.0000
  H   H1021     1.0  0.85978  0.45209  0.56903  1.0000
  H   H1022     1.0  0.73444  0.51069  0.57310  1.0000
  C   C640      1.0  0.97831  0.35199  0.55828  1.0000
  H   H1023     1.0  0.00936  0.47019  0.60343  1.0000
  C   C641      1.0  0.99600  0.43933  0.37885  1.0000
  C   C642      1.0  0.00957  0.33866  0.50979  1.0000
  S   S260      1.0  0.89503  0.45831  0.64492  1.0000
  H   H1024     1.0  0.89047  0.50077  0.62823  1.0000
  H   H1025     1.0  0.72330  0.51518  0.60291  1.0000
  C   C643      1.0  0.89308  0.49186  0.40195  1.0000
  C   C644      1.0  0.88520  0.49702  0.42482  1.0000
  N   N64       1.0  0.98913  0.37647  0.55631  1.0000
  C   C645      1.0  0.86293  0.30124  0.41922  1.0000
  C   C646      1.0  0.88567  0.51180  0.59081  1.0000
  H   H1026     1.0  0.91965  0.46778  0.56608  1.0000
  H   H1027     1.0  0.91578  0.47207  0.51859  1.0000
  H   H1028     1.0  0.01968  0.50070  0.64891  1.0000
  Fe  Fe130     1.0  0.92748  0.48791  0.65297  1.0000
  N   N65       1.0  0.00162  0.44144  0.35107  1.0000
  C   C647      1.0  0.85425  0.47818  0.34767  1.0000
  C   C648      1.0  0.90398  0.46931  0.56838  1.0000
  H   H1029     1.0  0.00148  0.38107  0.59509  1.0000
  H   H1030     1.0  0.90318  0.49014  0.52455  1.0000
  H   H1031     1.0  0.95843  0.37766  0.54864  1.0000
  C   C649      1.0  0.71996  0.51192  0.58193  1.0000
  H   H1032     1.0  0.91308  0.50522  0.36790  1.0000
  H   H1033     1.0  0.81859  0.28310  0.42537  1.0000
  H   H1034     1.0  0.00648  0.41208  0.35036  1.0000
  Fe  Fe131     1.0  0.92462  0.42747  0.34518  1.0000
  H   H1035     1.0  0.81220  0.44728  0.35566  1.0000
  S   S261      1.0  0.93479  0.40157  0.35861  1.0000
  H   H1036     1.0  0.84245  0.29663  0.46458  1.0000
  C   C650      1.0  0.84803  0.28379  0.46011  1.0000
  H   H1037     1.0  0.85034  0.47457  0.36855  1.0000
  H   H1038     1.0  0.99129  0.46687  0.34513  1.0000
  S   S262      1.0  0.88978  0.42304  0.34471  1.0000
  N   N66       1.0  0.84843  0.28002  0.43209  1.0000
  H   H1039     1.0  0.85108  0.49243  0.34245  1.0000
  H   H1040     1.0  0.97879  0.40749  0.34283  1.0000
  H   H1041     1.0  0.97014  0.43928  0.33967  1.0000
  C   C651      1.0  0.99671  0.41937  0.34045  1.0000
  C   C652      1.0  0.84613  0.44014  0.33934  1.0000
  H   H1042     1.0  0.75712  0.28351  0.88636  1.0000
  Fe  Fe132     1.0  0.78445  0.37218  0.86051  1.0000
  S   S263      1.0  0.77904  0.38265  0.89980  1.0000
  S   S264      1.0  0.75462  0.34594  0.84063  1.0000
  Fe  Fe133     1.0  0.83185  0.40902  0.85624  1.0000
  S   S265      1.0  0.83031  0.42236  0.89576  1.0000
  S   S266      1.0  0.86343  0.42903  0.83313  1.0000
  Fe  Fe134     1.0  0.81320  0.38680  0.90831  1.0000
  S   S267      1.0  0.81906  0.37344  0.94597  1.0000
  Fe  Fe135     1.0  0.79639  0.41708  0.88402  1.0000
  S   S268      1.0  0.78350  0.44157  0.89351  1.0000
  S   S269      1.0  0.81752  0.37347  0.86979  1.0000
  S   S270      1.0  0.79905  0.40645  0.84379  1.0000
  C   C653      1.0  0.99657  0.50563  0.69132  1.0000
  H   H1043     1.0  0.92443  0.39402  0.78200  1.0000
  S   S271      1.0  0.86610  0.43131  0.71051  1.0000
  H   H1044     1.0  0.92613  0.44816  0.76645  1.0000
  S   S272      1.0  0.97514  0.46082  0.70143  1.0000
  N   N67       1.0  0.75410  0.32291  0.94800  1.0000
  S   S273      1.0  0.92794  0.47951  0.69491  1.0000
  C   C654      1.0  0.81587  0.38561  0.97489  1.0000
  C   C655      1.0  0.81134  0.40387  0.97456  1.0000
  H   H1045     1.0  0.84884  0.46424  0.79407  1.0000
  H   H1046     1.0  0.81008  0.41098  0.95635  1.0000
  H   H1047     1.0  0.72317  0.32283  0.93794  1.0000
  C   C656      1.0  0.86367  0.42983  0.79906  1.0000
  C   C657      1.0  0.84542  0.41532  0.78462  1.0000
  C   C658      1.0  0.84632  0.41622  0.75750  1.0000
  C   C659      1.0  0.86541  0.43159  0.74459  1.0000
  C   C660      1.0  0.88346  0.44651  0.75903  1.0000
  C   C661      1.0  0.88264  0.44552  0.78618  1.0000
  H   H1048     1.0  0.83071  0.40319  0.79430  1.0000
  H   H1049     1.0  0.83223  0.40471  0.74644  1.0000
  H   H1050     1.0  0.89799  0.45878  0.74924  1.0000
  H   H1051     1.0  0.89672  0.45699  0.79726  1.0000
  H   H1052     1.0  0.89612  0.38804  0.74743  1.0000
  C   C662      1.0  0.72039  0.30567  0.85192  1.0000
  C   C663      1.0  0.74325  0.31929  0.85410  1.0000
  C   C664      1.0  0.75653  0.31143  0.86679  1.0000
  H   H1053     1.0  0.70756  0.34545  0.83159  1.0000
  H   H1054     1.0  0.71018  0.31145  0.84153  1.0000
  H   H1055     1.0  0.77427  0.32176  0.86806  1.0000
  C   C665      1.0  0.71535  0.42058  0.85749  1.0000
  C   C666      1.0  0.71970  0.42985  0.88224  1.0000
  C   C667      1.0  0.74083  0.43668  0.89317  1.0000
  C   C668      1.0  0.75721  0.43338  0.87979  1.0000
  C   C669      1.0  0.75257  0.42368  0.85530  1.0000
  C   C670      1.0  0.73193  0.41789  0.84392  1.0000
  H   H1056     1.0  0.74731  0.34450  0.97332  1.0000
  H   H1057     1.0  0.74436  0.44422  0.91211  1.0000
  H   H1058     1.0  0.76494  0.42095  0.84482  1.0000
  H   H1059     1.0  0.72864  0.41089  0.82469  1.0000
  C   C671      1.0  0.76142  0.34359  0.96315  1.0000
  C   C672      1.0  0.99841  0.48707  0.70049  1.0000
  C   C673      1.0  0.74684  0.28987  0.87712  1.0000
  H   H1060     1.0  0.86141  0.50253  0.81011  1.0000
  C   C674      1.0  0.77348  0.32276  0.93472  1.0000
  H   H1061     1.0  0.76951  0.35852  0.95063  1.0000
  C   C675      1.0  0.93437  0.44223  0.75188  1.0000
  H   H1062     1.0  0.95264  0.45151  0.75497  1.0000
  H   H1063     1.0  0.93105  0.44709  0.73252  1.0000
  H   H1064     1.0  0.74491  0.33529  0.91427  1.0000
  C   C676      1.0  0.84413  0.49759  0.81694  1.0000
  Fe  Fe136     1.0  0.89716  0.44812  0.68578  1.0000
  H   H1065     1.0  0.78685  0.32489  0.94859  1.0000
  H   H1066     1.0  0.77387  0.34497  0.97795  1.0000
  N   N68       1.0  0.83285  0.47390  0.82419  1.0000
  C   C677      1.0  0.81007  0.46806  0.83325  1.0000
  C   C678      1.0  0.70683  0.35517  0.84864  1.0000
  H   H1067     1.0  0.83725  0.45208  0.85098  1.0000
  C   C679      1.0  0.84534  0.46980  0.84510  1.0000
  H   H1068     1.0  0.71320  0.37267  0.84233  1.0000
  H   H1069     1.0  0.80114  0.45033  0.83890  1.0000
  H   H1070     1.0  0.73080  0.30573  0.91791  1.0000
  C   C680      1.0  0.83191  0.46013  0.80154  1.0000
  H   H1071     1.0  0.69496  0.35913  0.89729  1.0000
  H   H1072     1.0  0.71865  0.35468  0.86320  1.0000
  H   H1073     1.0  0.70696  0.43209  0.89273  1.0000
  H   H1074     1.0  0.94816  0.42077  0.78505  1.0000
  C   C681      1.0  0.90243  0.40636  0.74775  1.0000
  H   H1075     1.0  0.86256  0.47372  0.83894  1.0000
  H   H1076     1.0  0.73823  0.28765  0.95454  1.0000
  H   H1077     1.0  0.93343  0.39302  0.73561  1.0000
  H   H1078     1.0  0.93638  0.41538  0.71481  1.0000
  H   H1079     1.0  0.92108  0.41714  0.79458  1.0000
  H   H1080     1.0  0.89246  0.41011  0.76238  1.0000
  H   H1081     1.0  0.80002  0.47089  0.81810  1.0000
  H   H1082     1.0  0.82229  0.46242  0.78547  1.0000
  H   H1083     1.0  0.84631  0.47975  0.86262  1.0000
  C   C682      1.0  0.01924  0.48924  0.70784  1.0000
  H   H1084     1.0  0.84507  0.50842  0.83361  1.0000
  H   H1085     1.0  0.83515  0.50122  0.80114  1.0000
  Fe  Fe137     1.0  0.94588  0.46057  0.68062  1.0000
  C   C683      1.0  0.81735  0.37648  0.99866  1.0000
  C   C684      1.0  0.93882  0.41119  0.73488  1.0000
  H   H1086     1.0  0.89868  0.41136  0.72864  1.0000
  H   H1087     1.0  0.81008  0.47783  0.85063  1.0000
  H   H1088     1.0  0.78094  0.33656  0.92051  1.0000
  H   H1089     1.0  0.95704  0.41993  0.73851  1.0000
  C   C685      1.0  0.93022  0.41221  0.77998  1.0000
  C   C686      1.0  0.71060  0.28463  0.86329  1.0000
  N   N69       1.0  0.92644  0.41799  0.75361  1.0000
  C   C687      1.0  0.80862  0.41310  0.99786  1.0000
  H   H1090     1.0  0.82080  0.36232  0.99904  1.0000
  H   H1091     1.0  0.02072  0.47503  0.71528  1.0000
  H   H1092     1.0  0.82393  0.44216  0.80643  1.0000
  H   H1093     1.0  0.76887  0.30696  0.92417  1.0000
  C   C688      1.0  0.73753  0.32168  0.92871  1.0000
  H   H1094     1.0  0.80529  0.42733  0.99743  1.0000
  C   C689      1.0  0.72380  0.27666  0.87585  1.0000
  H   H1095     1.0  0.75614  0.30388  0.98012  1.0000
  C   C690      1.0  0.74402  0.30356  0.96543  1.0000
  H   H1096     1.0  0.98054  0.50417  0.68577  1.0000
  H   H1097     1.0  0.72939  0.30315  0.97588  1.0000
  H   H1098     1.0  0.70243  0.41574  0.99548  1.0000
  H   H1099     1.0  0.69283  0.27458  0.86220  1.0000
  S   S274      1.0  0.91520  0.42844  0.67412  1.0000
  H   H1100     1.0  0.01056  0.57267  0.29857  1.0000
  H   H1101     1.0  0.02305  0.55978  0.33593  1.0000
  Fe  Fe138     1.0  0.88588  0.59312  0.49671  1.0000
  S   S275      1.0  0.87551  0.55813  0.48386  1.0000
  S   S276      1.0  0.86234  0.60888  0.49079  1.0000
  Fe  Fe139     1.0  0.93438  0.60078  0.50840  1.0000
  S   S277      1.0  0.92668  0.56610  0.49602  1.0000
  S   S278      1.0  0.96837  0.62135  0.52713  1.0000
  Fe  Fe140     1.0  0.90828  0.57185  0.46331  1.0000
  S   S279      1.0  0.91123  0.56416  0.42156  1.0000
  Fe  Fe141     1.0  0.89480  0.55579  0.51788  1.0000
  H   H1102     1.0  0.85691  0.59005  0.37920  1.0000
  S   S280      1.0  0.91814  0.60735  0.47397  1.0000
  S   S281      1.0  0.90308  0.58995  0.53256  1.0000
  N   N70       1.0  0.94767  0.60130  0.60178  1.0000
  C   C691      1.0  0.71169  0.52450  0.54182  1.0000
  H   H1103     1.0  0.97540  0.62291  0.62492  1.0000
  C   C692      1.0  0.96136  0.59406  0.58569  1.0000
  S   S282      1.0  0.72165  0.60158  0.47296  1.0000
  C   C693      1.0  0.83436  0.57152  0.43837  1.0000
  Fe  Fe142     1.0  0.72835  0.57838  0.49897  1.0000
  S   S283      1.0  0.75753  0.57155  0.51119  1.0000
  S   S284      1.0  0.69408  0.63208  0.51477  1.0000
  H   H1104     1.0  0.91444  0.58743  0.61726  1.0000
  N   N71       1.0  0.71612  0.52955  0.56955  1.0000
  C   C694      1.0  0.90457  0.53631  0.41464  1.0000
  H   H1105     1.0  0.83977  0.56678  0.45659  1.0000
  C   C695      1.0  0.95843  0.60889  0.62711  1.0000
  H   H1106     1.0  0.83044  0.58544  0.44330  1.0000
  H   H1107     1.0  0.97777  0.60817  0.58092  1.0000
  C   C696      1.0  0.85638  0.55917  0.41212  1.0000
  N   N72       1.0  0.85176  0.57810  0.41821  1.0000
  H   H1108     1.0  0.93551  0.62579  0.60037  1.0000
  H   H1109     1.0  0.88601  0.60213  0.41326  1.0000
  C   C697      1.0  0.83311  0.59800  0.49632  1.0000
  C   C698      1.0  0.82199  0.61004  0.48757  1.0000
  C   C699      1.0  0.79887  0.60208  0.49137  1.0000
  C   C700      1.0  0.78653  0.58202  0.50432  1.0000
  C   C701      1.0  0.79764  0.56992  0.51291  1.0000
  C   C702      1.0  0.82069  0.57772  0.50877  1.0000
  H   H1110     1.0  0.83136  0.62576  0.47793  1.0000
  H   H1111     1.0  0.79070  0.61168  0.48476  1.0000
  H   H1112     1.0  0.78836  0.55441  0.52297  1.0000
  H   H1113     1.0  0.82889  0.56822  0.51563  1.0000
  Fe  Fe143     1.0  0.69676  0.60069  0.50297  1.0000
  C   C703      1.0  0.01410  0.64434  0.52710  1.0000
  H   H1114     1.0  0.94864  0.61462  0.63973  1.0000
  H   H1115     1.0  0.69946  0.53457  0.60267  1.0000
  H   H1116     1.0  0.86976  0.56370  0.39733  1.0000
  H   H1117     1.0  0.84059  0.59924  0.39880  1.0000
  H   H1118     1.0  0.01922  0.66460  0.45659  1.0000
  H   H1119     1.0  0.95309  0.58696  0.56700  1.0000
  S   S285      1.0  0.70110  0.54803  0.48086  1.0000
  H   H1120     1.0  0.01278  0.63906  0.54696  1.0000
  H   H1121     1.0  0.73376  0.56477  0.56318  1.0000
  C   C704      1.0  0.87227  0.59690  0.42764  1.0000
  H   H1122     1.0  0.96008  0.59526  0.63745  1.0000
  H   H1123     1.0  0.94985  0.54324  0.58702  1.0000
  H   H1124     1.0  0.87819  0.59235  0.44549  1.0000
  H   H1125     1.0  0.92268  0.54432  0.37871  1.0000
  H   H1126     1.0  0.81866  0.55720  0.43220  1.0000
  Fe  Fe144     1.0  0.69265  0.57092  0.45773  1.0000
  C   C705      1.0  0.99675  0.64485  0.48667  1.0000
  C   C706      1.0  0.99468  0.63774  0.51231  1.0000
  C   C707      1.0  0.91909  0.53624  0.56779  1.0000
  H   H1127     1.0  0.98201  0.64012  0.47510  1.0000
  H   H1128     1.0  0.92710  0.54592  0.55086  1.0000
  H   H1129     1.0  0.86951  0.61155  0.43255  1.0000
  H   H1130     1.0  0.75092  0.55098  0.56339  1.0000
  C   C708      1.0  0.73603  0.55114  0.57260  1.0000
  H   H1131     1.0  0.92626  0.56839  0.61553  1.0000
  H   H1132     1.0  0.82859  0.57116  0.38716  1.0000
  H   H1133     1.0  0.84135  0.54465  0.40486  1.0000
  H   H1134     1.0  0.91687  0.57613  0.58673  1.0000
  C   C709      1.0  0.84412  0.58492  0.39476  1.0000
  H   H1135     1.0  0.73989  0.55564  0.59325  1.0000
  C   C710      1.0  0.93193  0.53480  0.58825  1.0000
  S   S286      1.0  0.70585  0.58016  0.53047  1.0000
  H   H1136     1.0  0.86222  0.55365  0.42942  1.0000
  C   C711      1.0  0.94563  0.61975  0.58882  1.0000
  C   C712      1.0  0.92535  0.58252  0.60551  1.0000
  H   H1137     1.0  0.96219  0.63405  0.58520  1.0000
  H   H1138     1.0  0.96452  0.58122  0.59562  1.0000
  H   H1139     1.0  0.93759  0.61454  0.56967  1.0000
  C   C713      1.0  0.91225  0.53114  0.39164  1.0000
  H   H1140     1.0  0.70870  0.53746  0.53204  1.0000
  C   C714      1.0  0.69678  0.53062  0.58175  1.0000
  H   H1141     1.0  0.01247  0.60139  0.44209  1.0000
  C   C715      1.0  0.01791  0.65880  0.47624  1.0000
  S   S287      1.0  0.93792  0.52201  0.63635  1.0000
  S   S288      1.0  0.87944  0.52566  0.54351  1.0000
  H   H1142     1.0  0.69324  0.54355  0.57256  1.0000
  H   H1143     1.0  0.70334  0.63881  0.43088  1.0000
  H   H1144     1.0  0.72602  0.52386  0.53176  1.0000
  H   H1145     1.0  0.01863  0.57944  0.45246  1.0000
  C   C716      1.0  0.89592  0.52481  0.56913  1.0000
  C   C717      1.0  0.92165  0.52215  0.61015  1.0000
  H   H1146     1.0  0.01544  0.52368  0.34948  1.0000
  H   H1147     1.0  0.88516  0.52307  0.44911  1.0000
  H   H1148     1.0  0.69207  0.60937  0.43492  1.0000
  H   H1149     1.0  0.69114  0.63232  0.38515  1.0000
  C   C718      1.0  0.01561  0.52612  0.68887  1.0000
  H   H1150     1.0  0.01414  0.54034  0.68142  1.0000
  C   C719      1.0  0.71172  0.01702  0.49974  1.0000
  H   H1151     1.0  0.70796  0.98370  0.49859  1.0000
  C   C720      1.0  0.69941  0.99391  0.49771  1.0000
  H   H1152     1.0  0.69686  0.89278  0.51988  1.0000
