data_image0
_chemical_formula_structural       FeS2FeS2FeSFeS3FeS2FeS2FeSFeS3FeS2FeS2FeSFeS3FeS2FeS2FeSFeS3FeS2FeS2FeSFeS3FeS2FeS2FeSFeS3FeS2FeS2FeSFeS3FeS2FeS2FeSFeS3FeS2FeS2FeSFeS3FeS2FeS2FeSFeS3FeS2FeS2FeSFeS3FeS2FeS2FeSFeS3FeS2FeS2FeSFeS3FeS2FeS2FeSFeS3FeS2FeS2FeSFeS3FeS2FeS2FeSFeS3C6H4C6H4C6H4C6H4C6H4C6H4C6H4C6H4C6H4C6H4C6H4C6H4C6H4C6H4C6H4C6H4C6H4C6H4C6H4C6H4C6H4C6H4C6H4C6H4C6H4C6H4C6H4C6H4C6H4C6H4C6H4C6H4NC4H12NC4H12NC4H12NC4H12NC4H12NC4H12NC4H12NC4H12NC4H12NC4H12NC4H12NC4H12NC4H12NC4H12NC4H12NC4H12NC4H12NC4H12NC4H12NC4H12NC4H12NC4H12NC4H12NC4H12NC4H12NC4H12NC4H12NC4H12NC4H12NC4H12NC4H12NC4H12
_chemical_formula_sum              "Fe64 S128 C320 H512 N32"
_cell_length_a       43.77396088434508
_cell_length_b       46.42161388823007
_cell_length_c       29.493791935058113
_cell_angle_alpha    87.72569040806398
_cell_angle_beta     110.62715242461033
_cell_angle_gamma    89.53488568169321

_space_group_name_H-M_alt    "P 1"
_space_group_IT_number       1

loop_
  _space_group_symop_operation_xyz
  'x, y, z'

loop_
  _atom_site_type_symbol
  _atom_site_label
  _atom_site_symmetry_multiplicity
  _atom_site_fract_x
  _atom_site_fract_y
  _atom_site_fract_z
  _atom_site_occupancy
  Fe  Fe1       1.0  0.41849479379719445  0.34914016681683757  0.36202176165947864  1.0000
  S   S1        1.0  0.4348863193107473  0.38850900905396674  0.40519853306040754  1.0000
  S   S2        1.0  0.43540287634499864  0.33771160387071175  0.3003064064277767  1.0000
  Fe  Fe2       1.0  0.36743178553196637  0.3348177653970035  0.4084139204232121  1.0000
  S   S3        1.0  0.3795542125819376  0.3729524468697731  0.4559037614012781  1.0000
  S   S4        1.0  0.33333396506768975  0.29880344160263905  0.41223175758800695  1.0000
  Fe  Fe3       1.0  0.38167908983565557  0.39783670913770114  0.3898713476697911  1.0000
  S   S5        1.0  0.3581774774065496  0.4413131595552675  0.3583860962642255  1.0000
  Fe  Fe4       1.0  0.4319081039268272  0.3610452884582806  0.4679427576612088  1.0000
  S   S6        1.0  0.4740527766526923  0.3573395799574837  0.5393182671568402  1.0000
  S   S7        1.0  0.36515869550498814  0.3605064113564542  0.3413480713733404  1.0000
  S   S8        1.0  0.419828817349948  0.3208307992875155  0.4260278534639589  1.0000
  Fe  Fe5       1.0  0.46168530480349546  0.324138095120535  0.776909954394973  1.0000
  S   S9        1.0  0.47801105307497815  0.2842785464944805  0.7504919976810193  1.0000
  S   S10       1.0  0.4309364415656592  0.3570858918861854  0.7216812419502109  1.0000
  Fe  Fe6       1.0  0.4938286693740676  0.3050249860611739  0.8833808314509785  1.0000
  S   S11       1.0  0.5126933150968809  0.2636890139291883  0.8650878598456747  1.0000
  S   S12       1.0  0.5017693376552587  0.31908406068272593  0.9593804305721723  1.0000
  Fe  Fe7       1.0  0.5258097707369911  0.29117786112028066  0.8102003271321983  1.0000
  S   S13       1.0  0.5749558892462845  0.28578838425645275  0.8017100661378501  1.0000
  Fe  Fe8       1.0  0.46289703635886686  0.26124701777936854  0.8071352666371319  1.0000
  S   S14       1.0  0.4348882222150713  0.21984661411147025  0.7934170051550976  1.0000
  S   S15       1.0  0.5104724034756284  0.33280517434212525  0.8326905915458954  1.0000
  S   S16       1.0  0.4429744605910468  0.30065693246051695  0.8293686355003649  1.0000
  Fe  Fe9       1.0  0.18790365626693456  0.15908803775687616  0.6172349836779305  1.0000
  S   S17       1.0  0.20196032060088384  0.19922211934426914  0.6586249002888244  1.0000
  S   S18       1.0  0.1448038913788255  0.16321439015594497  0.5476926267886781  1.0000
  Fe  Fe10      1.0  0.2394023813364207  0.12184000101360012  0.6921651123017615  1.0000
  S   S19       1.0  0.2585742056944152  0.15917708915828108  0.7399884639873239  1.0000
  S   S20       1.0  0.26058927810764054  0.07739310268874362  0.7218363410456586  1.0000
  Fe  Fe11      1.0  0.20584849591893184  0.17117236904216301  0.723778745026047  1.0000
  S   S21       1.0  0.18983476199529725  0.18364432348681614  0.7854765296224286  1.0000
  Fe  Fe12      1.0  0.2534412413754882  0.1845871405289919  0.6712936326762604  1.0000
  S   S22       1.0  0.284850982044604  0.22118755747997554  0.6614583793492762  1.0000
  S   S23       1.0  0.1870050804217467  0.132000651257951  0.6813522779474829  1.0000
  S   S24       1.0  0.23910359510032886  0.1463607235071141  0.6244043374585302  1.0000
  Fe  Fe13      1.0  0.15315309132191093  0.2632069673296631  0.275173269090937  1.0000
  S   S25       1.0  0.1694602110712147  0.2225493462890061  0.2516679912374549  1.0000
  S   S26       1.0  0.18360324679938014  0.30254261964992235  0.2754810977228296  1.0000
  Fe  Fe14      1.0  0.09177648959437705  0.23460169607456707  0.2834044063488894  1.0000
  S   S27       1.0  0.10384970147726534  0.19232576869092494  0.2584045558695562  1.0000
  S   S28       1.0  0.047482341950809914  0.24089075332629553  0.3055592029305237  1.0000
  Fe  Fe15      1.0  0.15445994669421712  0.20056997768666285  0.3091031673535417  1.0000
  S   S29       1.0  0.1854938083146891  0.1670428324917331  0.3628890715063015  1.0000
  Fe  Fe16      1.0  0.117026331768582  0.2191881727250574  0.20307241491636327  1.0000
  S   S30       1.0  0.11002164815994528  0.2073575336950942  0.12618745267881956  1.0000
  S   S31       1.0  0.1422411871793036  0.24169280077439725  0.33700401639147226  1.0000
  S   S32       1.0  0.10103952641880137  0.26109868788307217  0.22393670543981284  1.0000
  Fe  Fe17      1.0  0.9420995641493185  0.13377098872583953  0.39640636295902376  1.0000
  S   S33       1.0  0.9504201903680547  0.1217425025325719  0.47437515813154285  1.0000
  S   S34       1.0  0.9825345125514813  0.13077814287714173  0.36564233209164776  1.0000
  Fe  Fe18      1.0  0.8684367221445947  0.14198891130859118  0.37032719053709023  1.0000
  S   S35       1.0  0.870659720519045  0.12938685896593477  0.4457584999259284  1.0000
  S   S36       1.0  0.8248774105254971  0.16033047240794296  0.30761183314370916  1.0000
  Fe  Fe19      1.0  0.9143654697688465  0.15736824151937537  0.46926332920326297  1.0000
  S   S37       1.0  0.9156104182226713  0.19247380581195087  0.5199403555129503  1.0000
  Fe  Fe20      1.0  0.9061895191322509  0.09438578109323537  0.4442678463610695  1.0000
  S   S38       1.0  0.9113144735412464  0.0506732887931493  0.48360737844562973  1.0000
  S   S39       1.0  0.9102765150674579  0.17211777470028136  0.39409544974377264  1.0000
  S   S40       1.0  0.9000210066788094  0.10419108712432532  0.3663348845091368  1.0000
  Fe  Fe21      1.0  0.0028354242710475486  0.2579271710803701  0.8614842942876056  1.0000
  S   S41       1.0  0.007265647073277259  0.2955968396821947  0.8139062482931558  1.0000
  S   S42       1.0  0.006902516727547825  0.2692599378801371  0.9376023930911173  1.0000
  Fe  Fe22      1.0  0.9835918236374435  0.2178636133371884  0.7773514384488075  1.0000
  S   S43       1.0  0.9861507217894998  0.25285847158994385  0.7245214208891669  1.0000
  S   S44       1.0  0.9723559988532362  0.17365129920503788  0.7472613908870602  1.0000
  Fe  Fe23      1.0  0.03288997395859483  0.2640357297065517  0.7826282766249111  1.0000
  S   S45       1.0  0.07509775537305956  0.27502504987042636  0.7576480872902395  1.0000
  Fe  Fe24      1.0  0.9601122142647551  0.2805947921480806  0.7606337228203407  1.0000
  S   S46       1.0  0.9200271386131804  0.31222152176923257  0.7154546732621309  1.0000
  S   S47       1.0  0.03207862806496786  0.227375056815807  0.8341589711213196  1.0000
  S   S48       1.0  0.9539506508594247  0.24466949502765986  0.8094403434733154  1.0000
  Fe  Fe25      1.0  0.6844714359041266  0.3899304746771167  0.7140875457209206  1.0000
  S   S49       1.0  0.6722968712230383  0.405033961984355  0.6366500806123225  1.0000
  S   S50       1.0  0.6418968273412886  0.394000223403862  0.740514332882517  1.0000
  Fe  Fe26      1.0  0.7545517856436073  0.3730178701090198  0.7238133343585026  1.0000
  S   S51       1.0  0.7471829926401129  0.38691751272654695  0.6467124650356982  1.0000
  S   S52       1.0  0.7990005741516174  0.3476628434114913  0.7743601932963697  1.0000
  Fe  Fe27      1.0  0.7212148171197984  0.4257950066596042  0.6614598852518455  1.0000
  S   S53       1.0  0.7197592489224641  0.46996309450055346  0.6250701095978101  1.0000
  Fe  Fe28      1.0  0.6989126298189957  0.36547714091282746  0.6288945077158007  1.0000
  S   S54       1.0  0.6751635311668464  0.3330601680085564  0.573175288501424  1.0000
  S   S55       1.0  0.7319596588871861  0.4135512853369984  0.7402967610687264  1.0000
  S   S56       1.0  0.7077784346373417  0.34874092481299507  0.7047915747845326  1.0000
  Fe  Fe29      1.0  0.6271903117142699  0.2728509775969869  0.21865460140243947  1.0000
  S   S57       1.0  0.6164389976735263  0.2317955370153641  0.25289806607095416  1.0000
  S   S58       1.0  0.6219461264319189  0.27025288612267  0.13961028522071803  1.0000
  Fe  Fe30      1.0  0.6516843309446205  0.30182538450499485  0.31580930343818675  1.0000
  S   S59       1.0  0.6418237761684062  0.2629164967732399  0.3551708845058526  1.0000
  S   S60       1.0  0.6780397817953966  0.3387399989347631  0.3599406571142036  1.0000
  Fe  Fe31      1.0  0.6648529036537794  0.2378445643512412  0.3118456860725921  1.0000
  S   S61       1.0  0.703656231372145  0.20581126906528976  0.3582170276010784  1.0000
  Fe  Fe32      1.0  0.5946606068583365  0.26153070818221125  0.292505141417898  1.0000
  S   S62       1.0  0.5480877029181711  0.24954693918279502  0.30540671233084676  1.0000
  S   S63       1.0  0.6771575139053867  0.27679074720452435  0.27529393029191795  1.0000
  S   S64       1.0  0.6027836103829449  0.3024618505191929  0.2551391977123013  1.0000
  Fe  Fe33      1.0  0.22937792220435457  0.9184489144617642  0.6441882120560364  1.0000
  S   S65       1.0  0.23540882317292194  0.9107363636667645  0.7224672138534052  1.0000
  S   S66       1.0  0.22979778272014245  0.9621665389756483  0.6070231227527365  1.0000
  Fe  Fe34      1.0  0.22334935584243537  0.8541659326620302  0.6248093972708244  1.0000
  S   S67       1.0  0.22788216143329074  0.8417525751150555  0.7013397404666923  1.0000
  S   S68       1.0  0.2210055482317579  0.8170383107490786  0.576783909896153  1.0000
  Fe  Fe35      1.0  0.1942895282742101  0.8797115389297177  0.694742188245428  1.0000
  S   S69       1.0  0.1496875868640597  0.8836991035624875  0.7166128994911489  1.0000
  Fe  Fe36      1.0  0.2684578453570839  0.8734909375700144  0.7213735216818186  1.0000
  S   S70       1.0  0.31601702729457065  0.8619243270435736  0.7824811574984839  1.0000
  S   S71       1.0  0.1863049521213765  0.8896139467336224  0.6160158457269246  1.0000
  S   S72       1.0  0.26584727351808474  0.8836498299847869  0.6452683744072741  1.0000
  Fe  Fe37      1.0  0.13570797966431186  0.7963279108723768  0.3158305776198345  1.0000
  S   S73       1.0  0.12553271125172902  0.7621920636737366  0.36383902251602995  1.0000
  S   S74       1.0  0.1572524343887418  0.8375771748924019  0.3498240328291085  1.0000
  Fe  Fe38      1.0  0.1124954641174335  0.7594963940004369  0.22757255267956972  1.0000
  S   S75       1.0  0.10094904822428347  0.7223941362720538  0.26997085835295287  1.0000
  S   S76       1.0  0.10977108486518247  0.7518900195739477  0.1508579419049596  1.0000
  Fe  Fe39      1.0  0.07896851935628856  0.7568023427848729  0.30175580513500827  1.0000
  S   S77       1.0  0.03247299907103529  0.7505769858577342  0.3176532638627707  1.0000
  Fe  Fe40      1.0  0.14881828781171624  0.7317127102884263  0.3278208382886319  1.0000
  S   S78       1.0  0.1876807268122454  0.7009163745446457  0.3777681051091725  1.0000
  S   S79       1.0  0.08718018039378742  0.7933108823230944  0.25536319860880924  1.0000
  S   S80       1.0  0.1620266759095397  0.7663739372936627  0.28365135832481797  1.0000
  Fe  Fe41      1.0  0.3953212624180367  0.59951998655313  0.43191638964264517  1.0000
  S   S81       1.0  0.37887635657221924  0.6078436885248094  0.3515011716247713  1.0000
  S   S82       1.0  0.39696764961746817  0.5565951540335184  0.4720674880261839  1.0000
  Fe  Fe42      1.0  0.4123720313784004  0.6623774140881791  0.4520738603403577  1.0000
  S   S83       1.0  0.39698823848426223  0.675785529607484  0.37309007256307825  1.0000
  S   S84       1.0  0.43839828216382093  0.6943526034052068  0.5070229274412047  1.0000
  Fe  Fe43      1.0  0.35406963254881163  0.6475332727004575  0.3651549796797322  1.0000
  S   S85       1.0  0.30362950421429485  0.6596955241866009  0.31200752855494385  1.0000
  Fe  Fe44      1.0  0.42315964586238886  0.6353174377439387  0.3668765278735154  1.0000
  S   S86       1.0  0.45912401224205424  0.6297993037548679  0.32844872826225324  1.0000
  S   S87       1.0  0.3674032487116036  0.6373704584965021  0.44506764210529454  1.0000
  S   S88       1.0  0.4415849009473435  0.623788549078502  0.4464757673800185  1.0000
  Fe  Fe45      1.0  0.49621989390038773  0.7439574639549389  0.8669588000048426  1.0000
  S   S89       1.0  0.5176836490180788  0.7814828602639566  0.8393935346156848  1.0000
  S   S90       1.0  0.4966640418211012  0.7449947264788723  0.9436961344276718  1.0000
  Fe  Fe46      1.0  0.4700723092345341  0.7184440047028411  0.7672633824917308  1.0000
  S   S91       1.0  0.48990172394381265  0.7540594057885861  0.7328459339620034  1.0000
  S   S92       1.0  0.4373061423331594  0.6854184351714238  0.7208007918086796  1.0000
  Fe  Fe47      1.0  0.534858759612236  0.7482094518352376  0.7995100620677005  1.0000
  S   S93       1.0  0.5874044322853371  0.750582593850785  0.8030919256607829  1.0000
  Fe  Fe48      1.0  0.47060192460189715  0.7833468948669385  0.7757643562775417  1.0000
  S   S94       1.0  0.44082736876571565  0.8226737805738387  0.7359959367216575  1.0000
  S   S95       1.0  0.5164440336453903  0.7103477189162123  0.8316629081355514  1.0000
  S   S96       1.0  0.4478431210542012  0.7481423675242834  0.8058955665877711  1.0000
  Fe  Fe49      1.0  0.8461485340218744  0.8331447114636653  0.3541198809883244  1.0000
  S   S97       1.0  0.8333181290300432  0.8573878064079206  0.40925001008233713  1.0000
  S   S98       1.0  0.8100738209960013  0.8067070062918045  0.2977693270584323  1.0000
  Fe  Fe50      1.0  0.9183449666382444  0.8500957786413761  0.395275618596545  1.0000
  S   S99       1.0  0.9108361372435002  0.8747588558203782  0.454896577749791  1.0000
  S   S100      1.0  0.9675105843984121  0.8549080858269857  0.386475088500656  1.0000
  Fe  Fe51      1.0  0.8797887984153456  0.8374638254939912  0.46169528307793833  1.0000
  S   S101      1.0  0.8781392374933189  0.8110283354038109  0.5266146990178555  1.0000
  Fe  Fe52      1.0  0.8652355056663089  0.8922602686858537  0.39644609833786554  1.0000
  S   S102      1.0  0.8491222416152697  0.9387237847909303  0.37333073557148283  1.0000
  S   S103      1.0  0.8913324705680065  0.8113169205787427  0.40713768335233796  1.0000
  S   S104      1.0  0.8741993194263568  0.8692983449929941  0.33657157817825745  1.0000
  Fe  Fe53      1.0  0.043146099592461074  0.7936607894399861  0.8236940238917339  1.0000
  S   S105      1.0  0.028793028863506986  0.8367400727245078  0.8422500181203693  1.0000
  S   S106      1.0  0.09248962211748771  0.7855220228186826  0.8175839342758526  1.0000
  Fe  Fe54      1.0  0.9782115039848162  0.767058902390802  0.8195754204491655  1.0000
  S   S107      1.0  0.9591431297292224  0.8083966661983837  0.8373970701923042  1.0000
  S   S108      1.0  0.9511771609777422  0.7252216898692428  0.809601132313559  1.0000
  Fe  Fe55      1.0  0.9802480226278305  0.828722151794308  0.7851042930832468  1.0000
  S   S109      1.0  0.955644205565769  0.8632756571111372  0.7281458368727374  1.0000
  Fe  Fe56      1.0  0.009657293064031292  0.8116623775645964  0.8927281425938507  1.0000
  S   S110      1.0  0.017457367740539187  0.8260395843793052  0.9681432911857502  1.0000
  S   S111      1.0  0.9959447241252473  0.7871010911993708  0.7629559574735281  1.0000
  S   S112      1.0  0.02739083683061394  0.7688245811575779  0.8783463475088576  1.0000
  Fe  Fe57      1.0  0.7586470570188585  0.628605002773607  0.7061024088611002  1.0000
  S   S113      1.0  0.7440047812911382  0.6527424684021356  0.7601566842933186  1.0000
  S   S114      1.0  0.778693791381042  0.5834963356430077  0.7332874695125663  1.0000
  Fe  Fe58      1.0  0.7427814985768038  0.6803858782532959  0.6337892385818076  1.0000
  S   S115      1.0  0.7260134870927298  0.707809851574332  0.681939561441712  1.0000
  S   S116      1.0  0.7460321802050024  0.7036526613459715  0.5667344580262713  1.0000
  Fe  Fe59      1.0  0.7707789985313818  0.6897644017985103  0.7414566464583305  1.0000
  S   S117      1.0  0.8029997834203452  0.7206716311261542  0.79410135477534  1.0000
  Fe  Fe60      1.0  0.700762894619804  0.6683461930116105  0.69596353763096  1.0000
  S   S118      1.0  0.648784897679105  0.663705585020128  0.6947755168733696  1.0000
  S   S119      1.0  0.7889824663670028  0.6646038011174182  0.6925993406914704  1.0000
  S   S120      1.0  0.7138378911063011  0.6420194103496474  0.642417349409274  1.0000
  Fe  Fe61      1.0  0.643483965365272  0.7525018716778561  0.28010029008061815  1.0000
  S   S121      1.0  0.6654811610215948  0.7122532222978998  0.26338887620232604  1.0000
  S   S122      1.0  0.6685639501354789  0.7938070934571035  0.30777918995799813  1.0000
  Fe  Fe62      1.0  0.5772802111595154  0.7255265809720036  0.26247180520676583  1.0000
  S   S123      1.0  0.5935148428471669  0.6831717657095568  0.243746556271439  1.0000
  S   S124      1.0  0.528759480426663  0.7363910271806432  0.26895616040249776  1.0000
  Fe  Fe63      1.0  0.639475990190652  0.6894414083669185  0.3072178517653459  1.0000
  S   S125      1.0  0.659392208525376  0.6547494275254604  0.3658341360287958  1.0000
  Fe  Fe64      1.0  0.617487170621326  0.7099474558880643  0.20109703971933454  1.0000
  S   S126      1.0  0.6143820888939886  0.6965353101819478  0.12664223578102227  1.0000
  S   S127      1.0  0.6213128298482298  0.7297101706550865  0.3288924718958759  1.0000
  S   S128      1.0  0.5974951280272901  0.7520578963800799  0.21479272375434388  1.0000
  C   C1        1.0  0.7223075076048218  0.6895945895862048  0.5111404373749918  1.0000
  C   C2        1.0  0.7117394560964421  0.6611573831053777  0.5086233121610665  1.0000
  C   C3        1.0  0.6932363937349806  0.6502991226009202  0.4636249302395371  1.0000
  C   C4        1.0  0.6847120063859158  0.6680115574785133  0.421200319753648  1.0000
  C   C5        1.0  0.6953364643903679  0.6964466424672272  0.4237408989941656  1.0000
  C   C6        1.0  0.7142762745501585  0.7071448715042956  0.4686037660584908  1.0000
  H   H1        1.0  0.7182849216758086  0.6473672979568348  0.5411986729998076  1.0000
  H   H2        1.0  0.6852936542735268  0.6282197390612152  0.46176359869665895  1.0000
  H   H3        1.0  0.6890863259828154  0.7101476951373309  0.39111084851682054  1.0000
  H   H4        1.0  0.722229459722622  0.7291929381954241  0.4704805521740707  1.0000
  C   C7        1.0  0.9102472093544401  0.7242736113012923  0.8066832254955826  1.0000
  C   C8        1.0  0.8952332777422164  0.74762828834703  0.8198386275952185  1.0000
  C   C9        1.0  0.8626162253324684  0.7459426570028844  0.8173756359127905  1.0000
  C   C10       1.0  0.8446018623646744  0.721204265261307  0.800690375380755  1.0000
  C   C11       1.0  0.859795934919747  0.697710597363685  0.788385487954249  1.0000
  C   C12       1.0  0.8925346272049328  0.6992100593797657  0.7915878145018448  1.0000
  H   H5        1.0  0.9084712865118192  0.7670891468678583  0.8314966430453027  1.0000
  H   H6        1.0  0.851017170900411  0.7641437573378448  0.8272043379756557  1.0000
  H   H7        1.0  0.8464223540215053  0.6782445881590223  0.7767707454609265  1.0000
  H   H8        1.0  0.9040971505515834  0.6808836922188912  0.7820219624893588  1.0000
  C   C13       1.0  0.9318649806626399  0.8492984251220964  0.6726763618793135  1.0000
  C   C14       1.0  0.9235153822025827  0.8202359917478815  0.6700781127687193  1.0000
  C   C15       1.0  0.9066350204509354  0.8087753094437202  0.6250186091426613  1.0000
  C   C16       1.0  0.8980097330157442  0.8263205407352601  0.5824908772252178  1.0000
  C   C17       1.0  0.9057815447111363  0.8555133785432807  0.5850756964842977  1.0000
  C   C18       1.0  0.9225717987978966  0.8670235036140221  0.6302275790638848  1.0000
  H   H9        1.0  0.930131151746833  0.8065770808470093  0.7027759180337437  1.0000
  H   H10       1.0  0.9009163200831376  0.786151127337529  0.6229428185916052  1.0000
  H   H11       1.0  0.8988072826854535  0.8692331046137202  0.5523689463888307  1.0000
  H   H12       1.0  0.928775505275916  0.8895772655318895  0.6321867090895034  1.0000
  C   C19       1.0  0.7698485970674053  0.8048232311514555  0.2976956374599844  1.0000
  C   C20       1.0  0.7492542025204537  0.7835443193955083  0.2715716230360664  1.0000
  C   C21       1.0  0.7179055536596106  0.7802354649107531  0.2738280613008862  1.0000
  C   C22       1.0  0.7069394257916094  0.7983545226138035  0.3019875321013094  1.0000
  C   C23       1.0  0.7271205504562818  0.8201816347317393  0.32687413879346583  1.0000
  C   C24       1.0  0.7584581856069914  0.8234048647105612  0.32471740367697416  1.0000
  H   H13       1.0  0.7577793013325185  0.7692606235202836  0.2501896430552679  1.0000
  H   H14       1.0  0.7023334434299503  0.7636617321147867  0.2537896089939917  1.0000
  H   H15       1.0  0.7186065739134231  0.8345699943991635  0.34809749600683687  1.0000
  H   H16       1.0  0.7736012254172007  0.8404641892382123  0.34359556326698215  1.0000
  C   C25       1.0  0.5310291520432563  0.7326448843031486  0.9928890079385295  1.0000
  C   C26       1.0  0.5373514571033197  0.7448549488157323  0.037884935787304175  1.0000
  C   C27       1.0  0.5633637118667246  0.7343888810166832  0.07883578547988364  1.0000
  C   C28       1.0  0.5831609220214163  0.7115182582234993  0.0751122858589589  1.0000
  C   C29       1.0  0.5771768126466694  0.6995676416939418  0.029878764220017028  1.0000
  C   C30       1.0  0.5511182362922141  0.7101005413317556  0.9887624317920736  1.0000
  H   H17       1.0  0.5218721658199663  0.7623710711126968  0.04111815073953069  1.0000
  H   H18       1.0  0.5678409803470595  0.7438707365675903  0.11330652402040739  1.0000
  H   H19       1.0  0.5923048606036198  0.6817041681237275  0.026888442789736747  1.0000
  H   H20       1.0  0.5460578426544851  0.7003246153144417  0.9542341610251203  1.0000
  C   C31       1.0  0.6039013849854524  0.726290421464963  0.7724713846338123  1.0000
  C   C32       1.0  0.5853783007194524  0.7042581729318662  0.7455738258684692  1.0000
  C   C33       1.0  0.5994323780905799  0.6852388668885624  0.7219374005560688  1.0000
  C   C34       1.0  0.6320275623947139  0.6881152072137408  0.7249064654295142  1.0000
  C   C35       1.0  0.650546376561021  0.7101006138511495  0.7518958204171283  1.0000
  C   C36       1.0  0.6365217421906453  0.7290734482278576  0.7756008018209865  1.0000
  H   H21       1.0  0.5602221906919316  0.7019511636557623  0.742830655738652  1.0000
  H   H22       1.0  0.5849216310093117  0.6683427189768824  0.7010489055119046  1.0000
  H   H23       1.0  0.6756595432222249  0.7125288585790593  0.754463163578891  1.0000
  H   H24       1.0  0.6510068340763564  0.7460749495709739  0.7962467621387782  1.0000
  C   C37       1.0  0.43712111064607156  0.6916983108902437  0.5658100558258984  1.0000
  C   C38       1.0  0.4099514825446803  0.6809652945253223  0.5749266736878014  1.0000
  C   C39       1.0  0.4101716779400811  0.6787194624373936  0.6227430075700187  1.0000
  C   C40       1.0  0.4373547919116331  0.6875755882518759  0.6612556974435029  1.0000
  C   C41       1.0  0.4644762573669938  0.6980449553185715  0.6519586842802172  1.0000
  C   C42       1.0  0.4642002641613638  0.700431726194281  0.604348132173099  1.0000
  H   H25       1.0  0.3888202360673049  0.6745079410589507  0.5451353678650479  1.0000
  H   H26       1.0  0.38920708417882005  0.6703875206446268  0.6298322234124764  1.0000
  H   H27       1.0  0.48603302215635885  0.7038371843506346  0.681518167104395  1.0000
  H   H28       1.0  0.485298844150677  0.7087046884714545  0.5974878560681305  1.0000
  C   C43       1.0  0.47763231951689683  0.6599603169080103  0.31202893321249187  1.0000
  C   C44       1.0  0.46741297756861977  0.6882082466745713  0.3152077625820401  1.0000
  C   C45       1.0  0.4830204110325093  0.7116639371665234  0.30162694373314664  1.0000
  C   C46       1.0  0.5093194674624532  0.7069387104506842  0.2859174375982742  1.0000
  C   C47       1.0  0.519773026991577  0.6786993009592002  0.2836224676863131  1.0000
  C   C48       1.0  0.5037227254696707  0.6553220740443264  0.29594209218430395  1.0000
  H   H29       1.0  0.44728114550386006  0.691979505747505  0.32756315334105607  1.0000
  H   H30       1.0  0.4747521856646266  0.7334563114702031  0.30354661164016994  1.0000
  H   H31       1.0  0.5399649851156177  0.6747234108623874  0.2718001175257388  1.0000
  H   H32       1.0  0.5117064834957396  0.633502517915069  0.2934342316512327  1.0000
  C   C49       1.0  0.08305788733064405  0.7722819034384243  0.1008320778434207  1.0000
  C   C50       1.0  0.08059086206954368  0.764895710328485  0.05403231379573874  1.0000
  C   C51       1.0  0.060189540324516545  0.7810061660774454  0.013173803356906908  1.0000
  C   C52       1.0  0.04225674011703995  0.8047733812690033  0.018784162833276552  1.0000
  C   C53       1.0  0.044539894572182215  0.8120826953347335  0.06554117410373479  1.0000
  C   C54       1.0  0.06480831293496166  0.795813730698232  0.1065288311827271  1.0000
  H   H33       1.0  0.09470604969743913  0.7466950521151553  0.04953259957221837  1.0000
  H   H34       1.0  0.05886961551328792  0.7752862629775209  0.9775624855956849  1.0000
  H   H35       1.0  0.030742352276957208  0.8304772120476139  0.0701781686205114  1.0000
  H   H36       1.0  0.06659604847137524  0.801677739629466  0.14249186168879116  1.0000
  C   C55       1.0  0.013119813149936599  0.7803145642966104  0.3327052184515269  1.0000
  C   C56       1.0  0.025432478067370257  0.8081234202918572  0.33395749921068707  1.0000
  C   C57       1.0  0.010883658438185506  0.8309533662268453  0.34975432915333016  1.0000
  C   C58       1.0  0.9837829622611645  0.8261974068480015  0.36385983616870643  1.0000
  C   C59       1.0  0.9710686195871238  0.7985540152611309  0.36158001020853947  1.0000
  C   C60       1.0  0.9857817722279416  0.7756932728928058  0.3462235142377744  1.0000
  H   H37       1.0  0.04640111429015881  0.8119165458492349  0.32338684480920243  1.0000
  H   H38       1.0  0.020705403084731344  0.852336688422146  0.35110667534180323  1.0000
  H   H39       1.0  0.9501733496874346  0.7946485540562681  0.37225579773588513  1.0000
  H   H40       1.0  0.9761168070917393  0.7542457358933105  0.34522670902715735  1.0000
  C   C61       1.0  0.21976800046066722  0.689641775256954  0.3590927347830537  1.0000
  C   C62       1.0  0.2484066835801002  0.6774515337698175  0.3936264723606494  1.0000
  C   C63       1.0  0.27465272505875443  0.6687682228085626  0.3799149940825608  1.0000
  C   C64       1.0  0.2720992909275079  0.6717138088601692  0.3313370253223339  1.0000
  C   C65       1.0  0.24335901000017804  0.6836687714362192  0.2967794587756163  1.0000
  C   C66       1.0  0.21737291020820473  0.6928606412707142  0.31063991376842487  1.0000
  H   H41       1.0  0.25030418460862125  0.6748256672156203  0.43115380360307043  1.0000
  H   H42       1.0  0.2966029737029017  0.6594782957727265  0.4068025601259259  1.0000
  H   H43       1.0  0.24113411247611669  0.6858233348734128  0.25905737377216165  1.0000
  H   H44       1.0  0.1952813930346401  0.7020143773262894  0.2836879477766826  1.0000
  C   C67       1.0  0.20634666188798154  0.8242130780186944  0.5138799587058688  1.0000
  C   C68       1.0  0.19618050086648034  0.8519388210850076  0.4934628789516667  1.0000
  C   C69       1.0  0.18208758907749392  0.8562705822181461  0.44276971060271647  1.0000
  C   C70       1.0  0.17756883038125565  0.8328089774784909  0.41274140250881847  1.0000
  C   C71       1.0  0.188421838589109  0.8053214037612959  0.4333357705633026  1.0000
  C   C72       1.0  0.20299521586509936  0.8010514962112497  0.48366838436539095  1.0000
  H   H45       1.0  0.19880856446480052  0.8699422924075167  0.5166763146955631  1.0000
  H   H46       1.0  0.17387602603930172  0.8776562149790099  0.4269529305583185  1.0000
  H   H47       1.0  0.18551055998128602  0.787277910126772  0.41043901825364343  1.0000
  H   H48       1.0  0.21072094118797174  0.779559899532688  0.4993700441418357  1.0000
  C   C73       1.0  0.35018078553225435  0.8504606630385989  0.7686119903769614  1.0000
  C   C74       1.0  0.3751820089904776  0.8339175498268722  0.8033614420760655  1.0000
  C   C75       1.0  0.40301463438025137  0.8250430549627078  0.7936836597079914  1.0000
  C   C76       1.0  0.40635120784497497  0.8332817462665992  0.7495654392489499  1.0000
  C   C77       1.0  0.38160154131763097  0.8501877678532088  0.7151079300893307  1.0000
  C   C78       1.0  0.3534338937685268  0.8584419966464357  0.7243122237831671  1.0000
  H   H49       1.0  0.3729892943974367  0.8278778173111996  0.8378877651782352  1.0000
  H   H50       1.0  0.42210784569192084  0.8122314232982065  0.8206700843339731  1.0000
  H   H51       1.0  0.38413011516801554  0.8567312557645143  0.6810018128176002  1.0000
  H   H52       1.0  0.33460093956977577  0.8714395027394237  0.6974909305748399  1.0000
  C   C79       1.0  0.10904268607989014  0.8130108564136116  0.7908231080449363  1.0000
  C   C80       1.0  0.09505488033135497  0.8407830959639774  0.7814586876706024  1.0000
  C   C81       1.0  0.1083724311193066  0.8623004299184069  0.7597072821900467  1.0000
  C   C82       1.0  0.13550485920498026  0.8562079103249756  0.7465701800593701  1.0000
  C   C83       1.0  0.14971900724024886  0.8284973400980077  0.756232210015782  1.0000
  C   C84       1.0  0.13658564808721263  0.8069923665519986  0.7785677339346487  1.0000
  H   H53       1.0  0.07390904710822496  0.8457602698985307  0.7907125001333424  1.0000
  H   H54       1.0  0.09749379511280656  0.883798556121623  0.7526643847460872  1.0000
  H   H55       1.0  0.17071335634057438  0.8236383019318494  0.7463451745906668  1.0000
  H   H56       1.0  0.1476219600002628  0.7855615881324497  0.7858628075191179  1.0000
  C   C85       1.0  0.7362602657496018  0.5011921378108989  0.6560547082750973  1.0000
  C   C86       1.0  0.7563235027940203  0.4998362480260368  0.7049578914375093  1.0000
  C   C87       1.0  0.7696000310945531  0.5252144666114523  0.7279261766808237  1.0000
  C   C88       1.0  0.7624804134886758  0.5521096535885347  0.7024420282145066  1.0000
  C   C89       1.0  0.7421124868938136  0.5534928343325444  0.6537084156938932  1.0000
  C   C90       1.0  0.7292107471646154  0.5280910142402149  0.6305921191321308  1.0000
  H   H57       1.0  0.7620398308118602  0.47920258341219374  0.7247706343611379  1.0000
  H   H58       1.0  0.7854561893363404  0.5239944690446371  0.7655978940307584  1.0000
  H   H59       1.0  0.7367362017445876  0.5740429434847321  0.633612498987306  1.0000
  H   H60       1.0  0.713889774415214  0.529214130509103  0.5926455876217978  1.0000
  C   C91       1.0  0.6747099970356489  0.33743824962444097  0.5134281463150002  1.0000
  C   C92       1.0  0.6533318027713849  0.32076566700637615  0.47795153993041867  1.0000
  C   C93       1.0  0.6532751100648027  0.32222928185868527  0.43041153544599076  1.0000
  C   C94       1.0  0.6754467910477899  0.33950773267777645  0.4182422936396367  1.0000
  C   C95       1.0  0.6965375705774968  0.35669528351719415  0.45352568107764885  1.0000
  C   C96       1.0  0.6959382020140539  0.3559204191001312  0.5010193104397395  1.0000
  H   H61       1.0  0.6364369786111997  0.30681593193917533  0.48703155413772076  1.0000
  H   H62       1.0  0.6355792086428921  0.3103072712098316  0.4030565693615736  1.0000
  H   H63       1.0  0.7132703225363966  0.37065101826549146  0.44409147246261144  1.0000
  H   H64       1.0  0.7120062414834657  0.3694213737849683  0.527905989858773  1.0000
  C   C97       1.0  0.8852629942661391  0.32051282958873545  0.7301115556369245  1.0000
  C   C98       1.0  0.8647609600623064  0.3438986278455077  0.7055144045060314  1.0000
  C   C99       1.0  0.8378848890712218  0.3521587753476363  0.7181259585335672  1.0000
  C   C100      1.0  0.8313617822024733  0.33708701289519233  0.7555549817465459  1.0000
  C   C101      1.0  0.8514644372284074  0.3133345094171197  0.7794859073239081  1.0000
  C   C102      1.0  0.8781550981508007  0.30489708860960646  0.7665435283329094  1.0000
  H   H65       1.0  0.8701599677327899  0.3561364237994293  0.677338236318864  1.0000
  H   H66       1.0  0.8228244868480614  0.37072532698111926  0.6998662182342648  1.0000
  H   H67       1.0  0.8463633785932176  0.3014276812640525  0.808217998698333  1.0000
  H   H68       1.0  0.8934399796791227  0.2865377602485316  0.7851015305718471  1.0000
  C   C103      1.0  0.8950037059767311  0.019597716983898762  0.4519180476642853  1.0000
  C   C104      1.0  0.9036234572398811  0.9922725310745528  0.4756195957080839  1.0000
  C   C105      1.0  0.8901505856195637  0.9671573610450177  0.4518595515981444  1.0000
  C   C106      1.0  0.867566339269488  0.9693368892315651  0.404471467533835  1.0000
  C   C107      1.0  0.8591487724728035  0.9966414653561664  0.38073151225928437  1.0000
  C   C108      1.0  0.8729799024175209  0.021684485093411563  0.4041913717965306  1.0000
  H   H69       1.0  0.9206144098700322  0.9905254152833604  0.5126114999465831  1.0000
  H   H70       1.0  0.8966849017083918  0.9462294398205939  0.470507190406951  1.0000
  H   H71       1.0  0.8415555417148236  0.9984702069267751  0.34413379026920543  1.0000
  H   H72       1.0  0.8660129595920354  0.04261886332333388  0.3857152320770411  1.0000
  C   C109      1.0  0.9534984429261578  0.17673532938066155  0.6839903994618237  1.0000
  C   C110      1.0  0.934141518612086  0.20106637824399712  0.6622471882017225  1.0000
  C   C111      1.0  0.9218826801241828  0.20515392942734498  0.6117007989491767  1.0000
  C   C112      1.0  0.9287487005877282  0.1848676320579618  0.5825694075181265  1.0000
  C   C113      1.0  0.9472939804793838  0.15999316345542713  0.6040401783069644  1.0000
  C   C114      1.0  0.9595070187649372  0.1558343702788723  0.6548748952459221  1.0000
  H   H73       1.0  0.928931332174007  0.21701312033715428  0.6844696658168284  1.0000
  H   H74       1.0  0.9076343946545391  0.2244668929026625  0.595205509987414  1.0000
  H   H75       1.0  0.9530891756434179  0.14456977077450991  0.5815799339834719  1.0000
  H   H76       1.0  0.9747244351892044  0.13710064271970798  0.6717875588732211  1.0000
  C   C115      1.0  0.7910607043384594  0.1730918384875921  0.3214194843807859  1.0000
  C   C116      1.0  0.7887683197945291  0.16697393202240363  0.36687592628471755  1.0000
  C   C117      1.0  0.7615711523126628  0.1768014674464609  0.3771132361475002  1.0000
  C   C118      1.0  0.7365129639526614  0.19315594014726875  0.34226115474866214  1.0000
  C   C119      1.0  0.7388479187403635  0.1996924646466488  0.2968652333852168  1.0000
  C   C120      1.0  0.7659778297185478  0.1894994027334689  0.2864006632780835  1.0000
  H   H77       1.0  0.8076411059686478  0.15421939312197433  0.393966170290752  1.0000
  H   H78       1.0  0.7599245167419982  0.17165495805421388  0.4122678112351136  1.0000
  H   H79       1.0  0.7196218829535991  0.21226988700207333  0.26969754825659853  1.0000
  H   H80       1.0  0.7674411436739377  0.1942435039281296  0.25103359243608725  1.0000
  C   C121      1.0  0.07998577506017451  0.22374046691908914  0.07426976975309073  1.0000
  C   C122      1.0  0.0578483918788848  0.24461842525896796  0.07791041048144842  1.0000
  C   C123      1.0  0.03552799136688689  0.25833940979724185  0.035686909354152085  1.0000
  C   C124      1.0  0.035009728123867045  0.2511640191727428  0.9895810959498444  1.0000
  C   C125      1.0  0.05701472126961331  0.23018841298174159  0.9859467466200101  1.0000
  C   C126      1.0  0.079405297787498  0.21654522736855383  0.02816734141871491  1.0000
  H   H81       1.0  0.05782248908987864  0.25011574509003565  0.1131911798729582  1.0000
  H   H82       1.0  0.018433347027327684  0.2744205684097861  0.03876752105017987  1.0000
  H   H83       1.0  0.05678003146315047  0.22443667751104002  0.9506442652770537  1.0000
  H   H84       1.0  0.09640925225344157  0.2003596803293154  0.02506332393721792  1.0000
  C   C127      1.0  0.02927677509260529  0.2102668422991918  0.3220836607764873  1.0000
  C   C128      1.0  0.006076192213713583  0.2137723016803002  0.34456180610829257  1.0000
  C   C129      1.0  0.9913486292878714  0.18963455700972134  0.35807477763808704  1.0000
  C   C130      1.0  0.9994093662604306  0.16189143071031797  0.3484004780213138  1.0000
  C   C131      1.0  0.02208241933500288  0.15846449400224935  0.32520965730277457  1.0000
  C   C132      1.0  0.03713899375848051  0.1824714032728029  0.3125168446415484  1.0000
  H   H85       1.0  0.9999330605688832  0.2352202656323157  0.3522323961456472  1.0000
  H   H86       1.0  0.9741867460928885  0.19251644843489515  0.3764866914288656  1.0000
  H   H87       1.0  0.028093577395764235  0.1371575097708364  0.31689688002280575  1.0000
  H   H88       1.0  0.054544094498844675  0.1794210673523268  0.29477669275084234  1.0000
  C   C133      1.0  0.2472111481054658  0.04643564767050497  0.6879441490990585  1.0000
  C   C134      1.0  0.2457205210739084  0.020216833962165514  0.7124092838275934  1.0000
  C   C135      1.0  0.23882671874513425  0.9944524975933874  0.6875069062138132  1.0000
  C   C136      1.0  0.23426596510991807  0.9945775016314516  0.6381432187094389  1.0000
  C   C137      1.0  0.23500478867497446  0.020907850384864535  0.6133956127156283  1.0000
  C   C138      1.0  0.24116041920421435  0.046811049030352936  0.6380784525610855  1.0000
  H   H89       1.0  0.2501403245617962  0.01983815617515984  0.750910656357443  1.0000
  H   H90       1.0  0.23760997118092292  0.9744621799037856  0.706734254667432  1.0000
  H   H91       1.0  0.23142775706077198  0.02119821076715689  0.575163697019769  1.0000
  H   H92       1.0  0.24254231735545342  0.06684904509970588  0.6189653020760514  1.0000
  C   C139      1.0  0.17247383086981488  0.1634730156921736  0.41252379309788784  1.0000
  C   C140      1.0  0.14415454532672167  0.17797938754267234  0.41174743422089405  1.0000
  C   C141      1.0  0.13592773536785552  0.17793506623680905  0.4535190656914925  1.0000
  C   C142      1.0  0.1556200773813992  0.162928418404201  0.4959257232783271  1.0000
  C   C143      1.0  0.1832433795411972  0.14746293060611393  0.49621673099950553  1.0000
  C   C144      1.0  0.19164907272873233  0.14770921237586543  0.4544827985973914  1.0000
  H   H93       1.0  0.12864893620472137  0.18947401459419355  0.3790693522438354  1.0000
  H   H94       1.0  0.11439908069619024  0.18982393032528452  0.45296356588014647  1.0000
  H   H95       1.0  0.19789180211495128  0.1349576429451754  0.5282723031981206  1.0000
  H   H96       1.0  0.2133318984286642  0.13612772792044686  0.45495868561881886  1.0000
  C   C145      1.0  0.15738917628657947  0.2086679073422079  0.7759804871920065  1.0000
  C   C146      1.0  0.13718039402108484  0.20543329409882974  0.803605103038851  1.0000
  C   C147      1.0  0.11189643248178659  0.225613127311696  0.7983434175640141  1.0000
  C   C148      1.0  0.10722865587875603  0.2496589876070346  0.76637263893752  1.0000
  C   C149      1.0  0.1279865727638439  0.2532805039653933  0.7395936890357399  1.0000
  C   C150      1.0  0.15261145468355414  0.23258767117412302  0.7436758131979448  1.0000
  H   H97       1.0  0.1410092790273063  0.18714798951240103  0.8290883803355162  1.0000
  H   H98       1.0  0.09633203551402174  0.22271695701516703  0.8195359830161439  1.0000
  H   H99       1.0  0.12462218144994051  0.2719398567673471  0.7149945306282446  1.0000
  H   H100      1.0  0.16831446977750023  0.23547573626943513  0.722674459909305  1.0000
  C   C151      1.0  0.5342838560052424  0.30447456209123164  0.00968269488099871  1.0000
  C   C152      1.0  0.5535507302861622  0.2813934435495448  0.005193366927145446  1.0000
  C   C153      1.0  0.5803713810863557  0.2711702972654231  0.04539679210046422  1.0000
  C   C154      1.0  0.5877614820180785  0.28358422384276943  0.09053597409563852  1.0000
  C   C155      1.0  0.5682868585595052  0.30647271749687544  0.09520648974380812  1.0000
  C   C156      1.0  0.5415718131445747  0.3168266767940606  0.054881521122711184  1.0000
  H   H101      1.0  0.5479323004824813  0.27153956840871096  0.9706966119410503  1.0000
  H   H102      1.0  0.5953595148562519  0.25342125715154945  0.04160921982808475  1.0000
  H   H103      1.0  0.5742433949521474  0.316612513415792  0.12958695340619597  1.0000
  H   H104      1.0  0.5268792210453674  0.33486610373692904  0.05845551945568873  1.0000
  C   C157      1.0  0.5921494495867193  0.31547679554944313  0.7808514708375905  1.0000
  C   C158      1.0  0.6233802629966667  0.3124150221439883  0.7780931074340836  1.0000
  C   C159      1.0  0.6386998597483642  0.33619216717366285  0.7648963062372768  1.0000
  C   C160      1.0  0.6229542713637112  0.36327498497885574  0.7547981715128637  1.0000
  C   C161      1.0  0.5915530343450347  0.36623777141116043  0.7569355955870929  1.0000
  C   C162      1.0  0.5760421987345103  0.3423842514291282  0.7693881782794761  1.0000
  H   H105      1.0  0.6359897699010485  0.2916564875930368  0.78690825110892  1.0000
  H   H106      1.0  0.6629671508737458  0.3336981575559274  0.7636363128929012  1.0000
  H   H107      1.0  0.5791596483164954  0.3871080748484822  0.7489790062529308  1.0000
  H   H108      1.0  0.5518599689630652  0.34498604067413746  0.770888665826814  1.0000
  C   C163      1.0  0.39300154729321596  0.22090198049527662  0.7576482671311401  1.0000
  C   C164      1.0  0.37726331426527776  0.24638251085818186  0.7333590654705259  1.0000
  C   C165      1.0  0.3440697472082066  0.24621318781423612  0.703718277122704  1.0000
  C   C166      1.0  0.3263607348874426  0.2207167937227051  0.6988759336566835  1.0000
  C   C167      1.0  0.34192509383043657  0.1954043292252403  0.7238170693308205  1.0000
  C   C168      1.0  0.375190370504631  0.19549108798500844  0.752869796963041  1.0000
  H   H109      1.0  0.3907767578544103  0.2661104663875957  0.7372149528814664  1.0000
  H   H110      1.0  0.33204030355359077  0.26593059594720964  0.6848556511692919  1.0000
  H   H111      1.0  0.32852143369481696  0.17561533900400342  0.7201801941331557  1.0000
  H   H112      1.0  0.387272349762573  0.1757185195253503  0.7715355011752539  1.0000
  C   C169      1.0  0.37170396502100456  0.4727941928249854  0.3905979308726514  1.0000
  C   C170      1.0  0.3676382280246882  0.49947494483262095  0.36477717217439926  1.0000
  C   C171      1.0  0.37652338615724773  0.525162477386745  0.3893863768310364  1.0000
  C   C172      1.0  0.38847101096814995  0.5244709410153614  0.440063512242456  1.0000
  C   C173      1.0  0.39266414245915887  0.4977952798536994  0.46593461220363025  1.0000
  C   C174      1.0  0.38469171664592683  0.47197946944642927  0.4412991077879896  1.0000
  H   H113      1.0  0.35791028876621034  0.5001688089855595  0.3255519830849816  1.0000
  H   H114      1.0  0.374017943712405  0.5454310848877911  0.3691366016055199  1.0000
  H   H115      1.0  0.40196457813785685  0.4970311176051033  0.5051565754067266  1.0000
  H   H116      1.0  0.3877777335237464  0.45152808991764914  0.4615051744766661  1.0000
  C   C175      1.0  0.46352149209481003  0.36078826429531174  0.5910011324803454  1.0000
  C   C176      1.0  0.48440129180469343  0.348825896426606  0.6355997439754366  1.0000
  C   C177      1.0  0.4750305871837228  0.3487484701013535  0.6764048775429445  1.0000
  C   C178      1.0  0.44477905216263464  0.36068458150732996  0.6727643899310116  1.0000
  C   C179      1.0  0.4245118697577708  0.3737674350337479  0.6287293601031881  1.0000
  C   C180      1.0  0.4338112766083712  0.3737009438425903  0.5878006598859096  1.0000
  H   H117      1.0  0.507337842386554  0.3387119858070475  0.6383239975004058  1.0000
  H   H118      1.0  0.4911295488353978  0.33920771549200823  0.7105664131382615  1.0000
  H   H119      1.0  0.4012676532991445  0.38335408672621574  0.6259595098161456  1.0000
  H   H120      1.0  0.41798544286278205  0.38363318499073584  0.5538658260327197  1.0000
  C   C181      1.0  0.2916882224436215  0.3003693185590601  0.374309187745323  1.0000
  C   C182      1.0  0.278017071775697  0.32455241667273177  0.34382441106632505  1.0000
  C   C183      1.0  0.2448715284928324  0.3249757842645143  0.31373740045396553  1.0000
  C   C184      1.0  0.22515631889553778  0.3012506036463473  0.313777333311779  1.0000
  C   C185      1.0  0.23890689886522976  0.276954410889059  0.3439720045380329  1.0000
  C   C186      1.0  0.2720294171334753  0.27656195175718223  0.3741692292445872  1.0000
  H   H121      1.0  0.2928493403018027  0.34309071514081096  0.34380645144575345  1.0000
  H   H122      1.0  0.23439139487918384  0.3439031609337355  0.2906867641188298  1.0000
  H   H123      1.0  0.22398439442182938  0.25849060417364994  0.3440269363121964  1.0000
  H   H124      1.0  0.28248277130992533  0.2576852483634202  0.39733502833175294  1.0000
  C   C187      1.0  0.4700727564195428  0.31549619605536217  0.3080545906309106  1.0000
  C   C188      1.0  0.48801792076438366  0.3204526980131204  0.2774228142940147  1.0000
  C   C189      1.0  0.5135271891180032  0.3014153495611507  0.2787112342706649  1.0000
  C   C190      1.0  0.5203763183036492  0.27652145341176776  0.3092277054326926  1.0000
  C   C191      1.0  0.5024981362025337  0.27159159963055246  0.34000451141937  1.0000
  C   C192      1.0  0.47791466892285706  0.29131318013080487  0.34022253683777554  1.0000
  H   H125      1.0  0.48208151836256824  0.33911040700353573  0.2524459183600821  1.0000
  H   H126      1.0  0.5271266012704103  0.3056359106571535  0.2549994495947343  1.0000
  H   H127      1.0  0.5076319584403028  0.25236096913422074  0.3636491018050448  1.0000
  H   H128      1.0  0.4643399165788875  0.28726671524511255  0.36406734604801777  1.0000
  N   N1        1.0  0.33298329256114456  0.95832780910979  0.7391663104088451  1.0000
  C   C193      1.0  0.3201930772361409  0.9830770083421002  0.7576649737028364  1.0000
  C   C194      1.0  0.30877461667214123  0.9504559299847056  0.6922774808725478  1.0000
  C   C195      1.0  0.33916459407872346  0.9334727231072407  0.7743830776453782  1.0000
  C   C196      1.0  0.36372628207324853  0.9662356980918428  0.7322331934997935  1.0000
  H   H129      1.0  0.338229488311484  0.990334526415205  0.7921523303177432  1.0000
  H   H130      1.0  0.29764365269885557  0.9773913184739249  0.7649560227997257  1.0000
  H   H131      1.0  0.3138281397259381  0.001885989465886695  0.7310392077916543  1.0000
  H   H132      1.0  0.31747875334282805  0.9318174660372874  0.6771454655597311  1.0000
  H   H133      1.0  0.2852906149913267  0.9443522129580543  0.6961573746534894  1.0000
  H   H134      1.0  0.3030914317904786  0.968733298691369  0.6647134377669683  1.0000
  H   H135      1.0  0.31625725738915816  0.9263770415923219  0.7794490989696514  1.0000
  H   H136      1.0  0.3567828859687757  0.9386506372337692  0.8106002339707729  1.0000
  H   H137      1.0  0.3493560988781954  0.9145357068156271  0.7620276995694673  1.0000
  H   H138      1.0  0.38266001852172943  0.9721323535725359  0.7669662032678578  1.0000
  H   H139      1.0  0.35981228042965224  0.9849977565377506  0.705902612358126  1.0000
  H   H140      1.0  0.37388046947537174  0.9479996723931668  0.7180595519477008  1.0000
  N   N2        1.0  0.7613916300966714  0.28303970623785296  0.40182913507222456  1.0000
  C   C197      1.0  0.7899353277239652  0.28513039082821007  0.44696683270458143  1.0000
  C   C198      1.0  0.7680171801645905  0.2606672857124922  0.37197879141342216  1.0000
  C   C199      1.0  0.7551211503129599  0.31114679757510605  0.37439374152602156  1.0000
  C   C200      1.0  0.7324436383710675  0.27517111107174247  0.41398950561288594  1.0000
  H   H141      1.0  0.812255417073811  0.2908638047216205  0.43903425747596775  1.0000
  H   H142      1.0  0.7952389898807071  0.2642458301361526  0.4684927050858444  1.0000
  H   H143      1.0  0.7857487152606007  0.3019576097412992  0.4701403617026729  1.0000
  H   H144      1.0  0.7466222447578337  0.25798601581703384  0.33817583145118363  1.0000
  H   H145      1.0  0.789307694416878  0.2659917967828069  0.36120333749204325  1.0000
  H   H146      1.0  0.7732487134696395  0.23925827840834324  0.3918709626836739  1.0000
  H   H147      1.0  0.7336533386878352  0.3103362099827945  0.34011325474057424  1.0000
  H   H148      1.0  0.7763897865840687  0.31792277742858893  0.36460386219328556  1.0000
  H   H149      1.0  0.7494993195111117  0.32847164666625933  0.39556852827064237  1.0000
  H   H150      1.0  0.7105452945324195  0.2737090947645681  0.38068961801587486  1.0000
  H   H151      1.0  0.7264339162975054  0.2915648162089204  0.43629918081011043  1.0000
  H   H152      1.0  0.7357969407006814  0.25371314204045753  0.4335953365159444  1.0000
  N   N3        1.0  0.15625336709590543  0.2871707560901238  0.12138928810057037  1.0000
  C   C201      1.0  0.12789891464738257  0.2910185883463036  0.13678537127902166  1.0000
  C   C202      1.0  0.1449220415401944  0.2776311306907362  0.07099780960123228  1.0000
  C   C203      1.0  0.17893811350950473  0.26510106264953953  0.15375599903245576  1.0000
  C   C204      1.0  0.17314232290821518  0.31484631928743134  0.12436058425845269  1.0000
  H   H153      1.0  0.13547204275508085  0.2986838644059749  0.17441483407474168  1.0000
  H   H154      1.0  0.11519745505293844  0.2703443758076794  0.13617545583395932  1.0000
  H   H155      1.0  0.1096777369992743  0.3068870038313846  0.1125469360526468  1.0000
  H   H156      1.0  0.13274110699060082  0.2564422695466951  0.06822585805689632  1.0000
  H   H157      1.0  0.12684197994848678  0.2932222362980079  0.045676846331261026  1.0000
  H   H158      1.0  0.16554635657392036  0.2749430696119006  0.05769243082071192  1.0000
  H   H159      1.0  0.187555626162347  0.27138492866018266  0.19224262159499217  1.0000
  H   H160      1.0  0.20074661957421158  0.26163321003189205  0.14348438160834837  1.0000
  H   H161      1.0  0.16689685016893852  0.24391250539894227  0.15225318798493936  1.0000
  H   H162      1.0  0.19473451471438485  0.31284182767403007  0.11304428363538264  1.0000
  H   H163      1.0  0.18188616387688872  0.3223693646180084  0.1622237309129638  1.0000
  H   H164      1.0  0.15658210979234277  0.33203325800152145  0.1006959639368999  1.0000
  N   N4        1.0  0.9308998079330821  0.9397822874676615  0.32569257143607294  1.0000
  C   C205      1.0  0.9357031785449741  0.9321249132000069  0.37690396670871795  1.0000
  C   C206      1.0  0.9516646655506099  0.9643570149215538  0.3235355187253999  1.0000
  C   C207      1.0  0.896249538445542  0.9479583977610774  0.29923222325249355  1.0000
  C   C208      1.0  0.9400055136982681  0.9147472909638795  0.3032328877396187  1.0000
  H   H165      1.0  0.919450817120125  0.9144664419101329  0.37974075567567894  1.0000
  H   H166      1.0  0.9299649745422955  0.9507342718174244  0.3954382542177182  1.0000
  H   H167      1.0  0.9612087377871333  0.9245356625622794  0.39759015495110833  1.0000
  H   H168      1.0  0.9452885576133676  0.9835889194201536  0.3401627124835472  1.0000
  H   H169      1.0  0.9779539236811335  0.958907229596424  0.343395708360049  1.0000
  H   H170      1.0  0.9487253868891312  0.9707160663203543  0.28541302098942445  1.0000
  H   H171      1.0  0.891630779009798  0.9540747558530266  0.2605164406913197  1.0000
  H   H172      1.0  0.8883764384030595  0.9664620191440936  0.31576402486204097  1.0000
  H   H173      1.0  0.8798448227429734  0.9298864996419871  0.30007104762269665  1.0000
  H   H174      1.0  0.9365893061962308  0.9196022593627756  0.2644998272784133  1.0000
  H   H175      1.0  0.9249913542089092  0.8957229344097264  0.30466817601087337  1.0000
  H   H176      1.0  0.9659531794576658  0.9078158215983986  0.3224934630156604  1.0000
  N   N5        1.0  0.0817902317343786  0.1026996586938124  0.44518045171242615  1.0000
  C   C209      1.0  0.11765494933913123  0.09943169545245086  0.4601300890960105  1.0000
  C   C210      1.0  0.07044778516584116  0.08625571435353704  0.4799643669121122  1.0000
  C   C211      1.0  0.06631115568786528  0.09167923377614735  0.39617498703894416  1.0000
  C   C212      1.0  0.07271171766076945  0.13349402108064837  0.44446222546574915  1.0000
  H   H177      1.0  0.1254038128649939  0.07655226636018421  0.46006497052460743  1.0000
  H   H178      1.0  0.1301052800010254  0.10689686091135935  0.497485735786379  1.0000
  H   H179      1.0  0.1271228778999085  0.11229373395008979  0.43540811945203367  1.0000
  H   H180      1.0  0.0771461770989279  0.06294056455221532  0.4819208412895658  1.0000
  H   H181      1.0  0.08152227466234896  0.09435883133634318  0.5171838680440599  1.0000
  H   H182      1.0  0.04339729463277009  0.08814679451907526  0.46941900565054245  1.0000
  H   H183      1.0  0.07442843135285004  0.10373182112747552  0.3691587181131843  1.0000
  H   H184      1.0  0.039222760880688545  0.0939924400453992  0.38363504490784694  1.0000
  H   H185      1.0  0.07250773551885281  0.06846798136491188  0.39533862911265893  1.0000
  H   H186      1.0  0.08523795662268507  0.14295529841941154  0.48017619792979216  1.0000
  H   H187      1.0  0.04605153171323417  0.13660566721934123  0.4359651438877331  1.0000
  H   H188      1.0  0.07916479324365633  0.1464062229825107  0.41664809913375367  1.0000
  N   N6        1.0  0.6831373361154389  0.5697856485862696  0.7438330894228629  1.0000
  C   C213      1.0  0.6549203865779827  0.5779721886214456  0.7574401599698087  1.0000
  C   C214      1.0  0.7133705169110761  0.5699863576176899  0.7870106395406349  1.0000
  C   C215      1.0  0.6856197542886507  0.5907997153308986  0.7064768949067448  1.0000
  C   C216      1.0  0.6786939671517329  0.54063412703291  0.7243093316356048  1.0000
  H   H189      1.0  0.6317589237473293  0.5781998043765489  0.7255773309624504  1.0000
  H   H190      1.0  0.6575894110610143  0.6000786686026186  0.771720566551222  1.0000
  H   H191      1.0  0.6522440678535146  0.5627472758284864  0.7858287015652349  1.0000
  H   H192      1.0  0.7350108614167304  0.5631144760597495  0.778290297711587  1.0000
  H   H193      1.0  0.718323300946978  0.5919713756548038  0.8013704688581076  1.0000
  H   H194      1.0  0.7120519960838486  0.5550446416214009  0.8166435298290667  1.0000
  H   H195      1.0  0.7067548668120113  0.5856189019128573  0.6955508171303584  1.0000
  H   H196      1.0  0.6890606645326497  0.6129446470222029  0.7201150780561381  1.0000
  H   H197      1.0  0.6633002698661977  0.5914576744137621  0.673283182997755  1.0000
  H   H198      1.0  0.6995434085994573  0.5340726118036164  0.7133237572935376  1.0000
  H   H199      1.0  0.6561939955163978  0.5396607737756632  0.6915849244870896  1.0000
  H   H200      1.0  0.6770487732288808  0.5240790409036195  0.7516406430528014  1.0000
  N   N7        1.0  0.5790362538374961  0.820957073677833  0.31584830197020247  1.0000
  C   C217      1.0  0.5934876399616328  0.7968653982237811  0.35151099900336913  1.0000
  C   C218      1.0  0.5753413485990743  0.811937200847765  0.26674643870125286  1.0000
  C   C219      1.0  0.6007499996928993  0.8459394092456936  0.32782699129323156  1.0000
  C   C220      1.0  0.54661460753772  0.8289117482431554  0.317214069312651  1.0000
  H   H201      1.0  0.6182323429054338  0.790653182943049  0.35195559464293685  1.0000
  H   H202      1.0  0.5780644583291755  0.7774093996075834  0.34291348270638927  1.0000
  H   H203      1.0  0.5962265283912557  0.8027098648378557  0.38893799075429875  1.0000
  H   H204      1.0  0.5641050757282308  0.8294119881173417  0.23871546569969812  1.0000
  H   H205      1.0  0.5994429313074059  0.8062306407086849  0.26428392860379896  1.0000
  H   H206      1.0  0.5596490813322647  0.7927206941179576  0.2568452543361226  1.0000
  H   H207      1.0  0.6253971881784791  0.8403911865151613  0.3269153601252864  1.0000
  H   H208      1.0  0.6043092360755072  0.8532820913923015  0.36476977532052773  1.0000
  H   H209      1.0  0.5907432072773412  0.8645148004344206  0.3015241698649614  1.0000
  H   H210      1.0  0.5484026767231748  0.8357249281875766  0.35381372947479406  1.0000
  H   H211      1.0  0.5298258998821983  0.8103280723195206  0.30816873556848096  1.0000
  H   H212      1.0  0.5349097374238195  0.8470031852115651  0.29066434361650306  1.0000
  N   N8        1.0  0.8870265920585546  0.089100087045513  0.5899481392784675  1.0000
  C   C221      1.0  0.8637864748821383  0.07424777138425183  0.5488618138339626  1.0000
  C   C222      1.0  0.8869404430154461  0.07555091719274876  0.636114907565659  1.0000
  C   C223      1.0  0.8772626863485908  0.11990288367661946  0.5869739202129818  1.0000
  C   C224      1.0  0.920205490082536  0.08662165255262691  0.5879341531998684  1.0000
  H   H213      1.0  0.8632228465599152  0.08389885265588919  0.5134378371619633  1.0000
  H   H214      1.0  0.8384832304344758  0.07539536963300067  0.5492161823960803  1.0000
  H   H215      1.0  0.8707878012962813  0.051050883844954174  0.5494605355507393  1.0000
  H   H216      1.0  0.9043106556018877  0.08619999924945151  0.667917076516155  1.0000
  H   H217      1.0  0.8622834340023832  0.07701614115382871  0.6389382927841468  1.0000
  H   H218      1.0  0.8942552973408602  0.05229415758688062  0.6394617715099397  1.0000
  H   H219      1.0  0.878459417319593  0.1311550299421196  0.5535668354681904  1.0000
  H   H220      1.0  0.8935437225529468  0.13150864308568355  0.6184714130202141  1.0000
  H   H221      1.0  0.8518645303091239  0.12260843149004208  0.5864448812486539  1.0000
  H   H222      1.0  0.9213104997861891  0.09706979751225335  0.5539173329477832  1.0000
  H   H223      1.0  0.9279846296108132  0.06364330559408093  0.5885841639482213  1.0000
  H   H224      1.0  0.9385576044946727  0.09690974155865852  0.6190250433253692  1.0000
  N   N9        1.0  0.7982062928968643  0.7551505468966172  0.43570306932755276  1.0000
  C   C225      1.0  0.8084414408084986  0.7336381549236303  0.4768613539996744  1.0000
  C   C226      1.0  0.8256941379381187  0.7604597726588456  0.4185718577399925  1.0000
  C   C227      1.0  0.7884336422798898  0.7824782746877155  0.45145579914192396  1.0000
  C   C228      1.0  0.7702756573532994  0.7441068761801246  0.395838637608135  1.0000
  H   H225      1.0  0.788246606049263  0.729133352513031  0.4907384433277849  1.0000
  H   H226      1.0  0.8297159938710283  0.7411940193369028  0.5073435106273603  1.0000
  H   H227      1.0  0.8157748814290404  0.712735326696636  0.46595137786223323  1.0000
  H   H228      1.0  0.8188284099633901  0.7767897952307429  0.3877880998890804  1.0000
  H   H229      1.0  0.8472579186963121  0.7688100767437385  0.44774332939012923  1.0000
  H   H230      1.0  0.8335894407107773  0.7405129587458875  0.4056446996343143  1.0000
  H   H231      1.0  0.7807507966772668  0.7991579614231945  0.4211502902019379  1.0000
  H   H232      1.0  0.8090551293322507  0.791547744229326  0.4812766323811745  1.0000
  H   H233      1.0  0.7675740647924114  0.7794589212780012  0.46429183270560004  1.0000
  H   H234      1.0  0.7619894049424601  0.7598287582002233  0.3643570932360661  1.0000
  H   H235      1.0  0.7489616565568997  0.739962349093099  0.4072145775892391  1.0000
  H   H236      1.0  0.7767679108455804  0.7236214378724649  0.3826465858522218  1.0000
  N   N10       1.0  0.49831664085134514  0.6784310000886657  0.1127577143030811  1.0000
  C   C229      1.0  0.48753795182026105  0.7052892471295483  0.08232600033553422  1.0000
  C   C230      1.0  0.4779813817803341  0.6543774077315635  0.08840010613607215  1.0000
  C   C231      1.0  0.49494983341211035  0.6821303293737139  0.16034757693528107  1.0000
  C   C232      1.0  0.5328747465255862  0.6719377731751778  0.11998768888950603  1.0000
  H   H237      1.0  0.5022414967226672  0.7239167618109257  0.09987977547987342  1.0000
  H   H238      1.0  0.461483724250027  0.7107759340880071  0.07572521320596329  1.0000
  H   H239      1.0  0.4901165531359557  0.7034277041053485  0.04625074443936284  1.0000
  H   H240      1.0  0.4855731784346533  0.6337380350873886  0.11032873861279399  1.0000
  H   H241      1.0  0.4517373403014462  0.6585005126646821  0.08253945038367318  1.0000
  H   H242      1.0  0.4799571925810812  0.651125924571583  0.05229149610576213  1.0000
  H   H243      1.0  0.5102236489438186  0.700001216128827  0.17987442776946308  1.0000
  H   H244      1.0  0.5026779061992402  0.662198887209519  0.18415900018063433  1.0000
  H   H245      1.0  0.46926186202011144  0.6873171906100181  0.15654764779666702  1.0000
  H   H246      1.0  0.5420090748551449  0.6518280050856041  0.14281925692278064  1.0000
  H   H247      1.0  0.5489268875292487  0.689614854901368  0.13837994783769667  1.0000
  H   H248      1.0  0.5365207756254474  0.669224199913803  0.08486147998811416  1.0000
  N   N11       1.0  0.9465386983387485  0.34155181277052543  0.8841681826819753  1.0000
  C   C233      1.0  0.9354740193382127  0.31156186566701105  0.8843288777024348  1.0000
  C   C234      1.0  0.9824233259484784  0.34196585417005343  0.9079779326729325  1.0000
  C   C235      1.0  0.9310062892877385  0.359403891906036  0.910799874651981  1.0000
  C   C236      1.0  0.9372353637564186  0.3532202548074608  0.8336136143875951  1.0000
  H   H249      1.0  0.9458296671649319  0.2977062692886036  0.8630694564104389  1.0000
  H   H250      1.0  0.9084351102902996  0.31045970583372556  0.8684944830128684  1.0000
  H   H251      1.0  0.9434273166288232  0.3015768500943767  0.921763932922522  1.0000
  H   H252      1.0  0.9947942777705536  0.32862470257170673  0.8887246683511443  1.0000
  H   H253      1.0  0.9917898524102003  0.3642036612962536  0.9087830871190523  1.0000
  H   H254      1.0  0.9903645259578673  0.33280711761746945  0.9459514865534606  1.0000
  H   H255      1.0  0.9388166251276631  0.38219047948926427  0.9114417643961186  1.0000
  H   H256      1.0  0.9374133999994617  0.3510798032349939  0.9490270415707047  1.0000
  H   H257      1.0  0.9038668514313075  0.3595403119260755  0.8935803917759315  1.0000
  H   H258      1.0  0.9475008839179577  0.33963108607876  0.8118385361903442  1.0000
  H   H259      1.0  0.9461575049890104  0.37545764909976836  0.8319119735755949  1.0000
  H   H260      1.0  0.91023923314034  0.35414434167259023  0.8150537561868009  1.0000
  N   N12       1.0  0.5175320424739803  0.24596878372613049  0.1499052775505806  1.0000
  C   C237      1.0  0.5111621584651916  0.24688895946907619  0.09716925549946484  1.0000
  C   C238      1.0  0.5329535598382275  0.2178922287182036  0.1719648761767763  1.0000
  C   C239      1.0  0.4866073959249329  0.24997314690987  0.1587707223526705  1.0000
  C   C240      1.0  0.5397201979033314  0.2692966451029047  0.17223373115069862  1.0000
  H   H261      1.0  0.5000974707033224  0.2680281134966411  0.07952181661107675  1.0000
  H   H262      1.0  0.4943435939324183  0.2296721442991834  0.07882649948251623  1.0000
  H   H263      1.0  0.5342037524308947  0.24392487326179663  0.08965468198526362  1.0000
  H   H264      1.0  0.5386498754588752  0.21681554264038286  0.2120013190177268  1.0000
  H   H265      1.0  0.516817241907789  0.19966200652380287  0.1565182398672224  1.0000
  H   H266      1.0  0.5563894503159293  0.2142336486340236  0.16588161775499669  1.0000
  H   H267      1.0  0.490982991521329  0.2495367083821025  0.19847161351250822  1.0000
  H   H268      1.0  0.4691574312682623  0.2327115073241713  0.1426176285773703  1.0000
  H   H269      1.0  0.47458677864522225  0.27113324243917775  0.14305400951403813  1.0000
  H   H270      1.0  0.5636919587315707  0.2665332247708072  0.16762862595256328  1.0000
  H   H271      1.0  0.5445318130548327  0.26947646506329753  0.2117629091739989  1.0000
  H   H272      1.0  0.5293547000872069  0.29088886405791436  0.1561508196975067  1.0000
  N   N13       1.0  0.2608673599577481  0.7749244193132233  0.3816996226219208  1.0000
  C   C241      1.0  0.24729569113857475  0.7577606282711864  0.41310476323450407  1.0000
  C   C242      1.0  0.29563751760653667  0.780408879807641  0.40872051074161136  1.0000
  C   C243      1.0  0.24253290140509298  0.8027059534825775  0.366835546405865  1.0000
  C   C244      1.0  0.25803050237292124  0.7587235564641661  0.33827987553277455  1.0000
  H   H273      1.0  0.2210499458831789  0.7533708526327406  0.3937798086714934  1.0000
  H   H274      1.0  0.2490978499044224  0.7691451291397409  0.44640706933977287  1.0000
  H   H275      1.0  0.26011540930012783  0.7364476504373727  0.4244934000569805  1.0000
  H   H276      1.0  0.31011762372936547  0.7598482831772981  0.4205291498507565  1.0000
  H   H277      1.0  0.3066837020485218  0.7932509275133424  0.385998811735502  1.0000
  H   H278      1.0  0.29866284643397467  0.7925884078253859  0.4417520786537258  1.0000
  H   H279      1.0  0.21608836508036772  0.7994301280645751  0.3468897544695081  1.0000
  H   H280      1.0  0.25174582375855614  0.8161896677657063  0.3425984697705674  1.0000
  H   H281      1.0  0.24416780347507253  0.8155181995574176  0.3987295436779818  1.0000
  H   H282      1.0  0.2717270779990865  0.737695212123845  0.34825979758247916  1.0000
  H   H283      1.0  0.2676301075239497  0.7710581449459047  0.31327246625480676  1.0000
  H   H284      1.0  0.23216896608460377  0.753755781105856  0.3174663744957286  1.0000
  N   N14       1.0  0.5818511759912711  0.35364008604718256  0.5964746210248866  1.0000
  C   C245      1.0  0.6114476545942426  0.3409199253391002  0.6341760377479474  1.0000
  C   C246      1.0  0.5594828038021478  0.33040163492337593  0.5737310137366064  1.0000
  C   C247      1.0  0.5910607156934987  0.36961676100028124  0.5590215583086997  1.0000
  C   C248      1.0  0.5654087812583679  0.3735746316988988  0.6189434347138817  1.0000
  H   H285      1.0  0.6249899100734034  0.3262957138121138  0.6184644530581918  1.0000
  H   H286      1.0  0.6052591593078469  0.32825616145119696  0.6624801643725453  1.0000
  H   H287      1.0  0.6285241402210153  0.35792099803572053  0.6527984009554102  1.0000
  H   H288      1.0  0.5373482561170084  0.3392034598197582  0.544026352586537  1.0000
  H   H289      1.0  0.5714843145079643  0.3145540947233103  0.5576533129968954  1.0000
  H   H290      1.0  0.5509855323547604  0.3185607317232866  0.6004856240444094  1.0000
  H   H291      1.0  0.569186924569411  0.3790595042030414  0.5295691808877304  1.0000
  H   H292      1.0  0.6042136426490755  0.35535235121415476  0.542065006449206  1.0000
  H   H293      1.0  0.6074693148374409  0.38764133202290835  0.5746401828150404  1.0000
  H   H294      1.0  0.5424127433862479  0.3830045338078564  0.5917976467241179  1.0000
  H   H295      1.0  0.581501799058959  0.391632741240702  0.6358420871319214  1.0000
  H   H296      1.0  0.5588667431077837  0.3623541537063042  0.648188844634536  1.0000
  N   N15       1.0  0.8247605512902456  0.7533667602058078  0.6523300825823448  1.0000
  C   C249      1.0  0.8169311867762346  0.7657957010790017  0.6025136211397585  1.0000
  C   C250      1.0  0.8521141262336089  0.7690236176916289  0.6860831437051365  1.0000
  C   C251      1.0  0.8341771738450843  0.7225742388340988  0.6540280659193836  1.0000
  C   C252      1.0  0.7957928436221926  0.7560026506361693  0.6667816150588449  1.0000
  H   H297      1.0  0.796459018948005  0.7542251469924686  0.5762730928759756  1.0000
  H   H298      1.0  0.8384455866780914  0.7645295336992983  0.590775277804475  1.0000
  H   H299      1.0  0.809449952658979  0.788962997066277  0.5999484410687118  1.0000
  H   H300      1.0  0.8578462861169323  0.7606946063678116  0.7240192627186118  1.0000
  H   H301      1.0  0.8748178712255531  0.7665255734887426  0.6776769776219458  1.0000
  H   H302      1.0  0.846344767490117  0.792505072956842  0.6848862997273362  1.0000
  H   H303      1.0  0.8399228746564612  0.7125215153046203  0.6910381181179981  1.0000
  H   H304      1.0  0.8561554466006354  0.7196351773563927  0.6438960498400568  1.0000
  H   H305      1.0  0.8140848546988827  0.7100492569788512  0.6290223176879104  1.0000
  H   H306      1.0  0.7746212810616192  0.7444636493846913  0.6420723886356675  1.0000
  H   H307      1.0  0.7881041141776138  0.7789133288763039  0.6665723117340285  1.0000
  H   H308      1.0  0.8007413092592017  0.7465339639471593  0.7040070870000671  1.0000
  N   N16       1.0  0.23356575980348404  0.23097373372199853  0.5076478356217174  1.0000
  C   C253      1.0  0.25340298333637923  0.20393188209130853  0.5203179083750249  1.0000
  C   C254      1.0  0.25507422820382325  0.2557463035071116  0.5241298868526981  1.0000
  C   C255      1.0  0.20916873310301512  0.23027970813259846  0.5318453969987836  1.0000
  C   C256      1.0  0.21668445889139523  0.23391783653579912  0.45447972352664023  1.0000
  H   H309      1.0  0.27194538994947953  0.2035186929773501  0.5024775395264877  1.0000
  H   H310      1.0  0.23791911597960963  0.18481115998472813  0.5086856453563057  1.0000
  H   H311      1.0  0.2664611990029633  0.20102464280895332  0.560227046957717  1.0000
  H   H312      1.0  0.24084251006840804  0.27649830725180735  0.5155220899563655  1.0000
  H   H313      1.0  0.2683283539597722  0.2540364526570607  0.5641186405686344  1.0000
  H   H314      1.0  0.2736077808178695  0.2570407769162487  0.5062423919128249  1.0000
  H   H315      1.0  0.1935416864921471  0.25022430925291805  0.5229436515448418  1.0000
  H   H316      1.0  0.22112819027621872  0.22807459046870135  0.5720300110221472  1.0000
  H   H317      1.0  0.19266133103136923  0.21174123327111186  0.5204917277458784  1.0000
  H   H318      1.0  0.2016267726684226  0.25418400667836744  0.4434652296290416  1.0000
  H   H319      1.0  0.2000166875586425  0.215742052392916  0.44086902747650963  1.0000
  H   H320      1.0  0.23427127373501613  0.23405675169445972  0.4348934075675198  1.0000
  N   N17       1.0  0.7693749592744346  0.2942685626556067  0.6265644285767112  1.0000
  C   C257      1.0  0.8023540775781701  0.28072713834122354  0.6474665652351264  1.0000
  C   C258      1.0  0.755798827290556  0.2977486323196849  0.6653947504145024  1.0000
  C   C259      1.0  0.7476921450645924  0.2759076078166731  0.5893250073038969  1.0000
  C   C260      1.0  0.7714991221303877  0.3228520879700854  0.6041199634405685  1.0000
  H   H321      1.0  0.813685908035041  0.2781726016607708  0.619459256220382  1.0000
  H   H322      1.0  0.8017208671081707  0.2590596699884847  0.6646216738313759  1.0000
  H   H323      1.0  0.819040307363067  0.29403541487525825  0.6760521807428532  1.0000
  H   H324      1.0  0.7706919851482429  0.3124701892681312  0.6931366874616467  1.0000
  H   H325      1.0  0.7305207704599915  0.3070187948736987  0.6505895076948136  1.0000
  H   H326      1.0  0.7548375762219424  0.27681015136112486  0.6844580114217237  1.0000
  H   H327      1.0  0.7449987333366724  0.254327032360218  0.6051416908415613  1.0000
  H   H328      1.0  0.7571803104458883  0.2726297723754687  0.559508875489376  1.0000
  H   H329      1.0  0.7227040378266459  0.2858760302577447  0.572679328780878  1.0000
  H   H330      1.0  0.7811514333233405  0.32117605603315347  0.5741273639464335  1.0000
  H   H331      1.0  0.7878526288601682  0.33722562615950774  0.6310740663828595  1.0000
  H   H332      1.0  0.7470891660077508  0.3338378045982425  0.5889056392202758  1.0000
  N   N18       1.0  0.3585342486254369  0.7580555149357399  0.6812478999426317  1.0000
  C   C261      1.0  0.35344720575700794  0.7734907645036672  0.720987020777405  1.0000
  C   C262      1.0  0.32919516235785784  0.7619974096245277  0.6369365329053237  1.0000
  C   C263      1.0  0.3643650184706958  0.7270330016054596  0.6953805551215251  1.0000
  C   C264      1.0  0.3871571120084913  0.7697085010467493  0.6717540304125078  1.0000
  H   H333      1.0  0.3325683683436904  0.7648138096009212  0.7300314295273593  1.0000
  H   H334      1.0  0.3480880752123644  0.7968296906220524  0.7110690970550403  1.0000
  H   H335      1.0  0.3754934518910638  0.7717843381691744  0.7546282558096805  1.0000
  H   H336      1.0  0.332084781799971  0.7504566332837409  0.6062804267097028  1.0000
  H   H337      1.0  0.3070365677132323  0.7537465733701244  0.6429484337935696  1.0000
  H   H338      1.0  0.32428115682938513  0.7852464227402636  0.6253485198248756  1.0000
  H   H339      1.0  0.3430915781940587  0.7172506513391862  0.7019099259278561  1.0000
  H   H340      1.0  0.3859850263505906  0.7234636863060557  0.7293087560393051  1.0000
  H   H341      1.0  0.36937649691214636  0.7147837142781865  0.666964952500865  1.0000
  H   H342      1.0  0.40976561156818  0.7669707545994501  0.704322532546548  1.0000
  H   H343      1.0  0.3839977919011643  0.7932227465482244  0.661766584092263  1.0000
  H   H344      1.0  0.39183318108178017  0.7585576207653266  0.6420260104260482  1.0000
  N   N19       1.0  0.35628666679427523  0.2814768695311859  0.2720963455783358  1.0000
  C   C265      1.0  0.3584435139903017  0.30551114722996237  0.2389677452576264  1.0000
  C   C266      1.0  0.32891850330761374  0.2871806331031449  0.2891292416218956  1.0000
  C   C267      1.0  0.38714071649192977  0.2789469912322436  0.3141278144431513  1.0000
  C   C268      1.0  0.3508402926633408  0.2542607552073372  0.24636457714601334  1.0000
  H   H345      1.0  0.3795098135388874  0.30232073774459817  0.22664986891311603  1.0000
  H   H346      1.0  0.36244050154647023  0.3264078122155391  0.257296688022863  1.0000
  H   H347      1.0  0.3358099689180387  0.3080537433185756  0.2064430357778113  1.0000
  H   H348      1.0  0.3323228483601115  0.3075006634232161  0.3088757201578767  1.0000
  H   H349      1.0  0.3051238288464519  0.289298928010685  0.2585856323857264  1.0000
  H   H350      1.0  0.3268553594378567  0.2697072088713913  0.31483727548923224  1.0000
  H   H351      1.0  0.38625463089018675  0.2618167114981229  0.34109597635070554  1.0000
  H   H352      1.0  0.39243064999355104  0.29949205396736106  0.333062423301515  1.0000
  H   H353      1.0  0.4083200475272401  0.2741692573070275  0.30281541384779026  1.0000
  H   H354      1.0  0.34933078812847324  0.23573606058738897  0.27062199044540153  1.0000
  H   H355      1.0  0.37112983982480974  0.2493639738830857  0.2331347379818769  1.0000
  H   H356      1.0  0.32769441277164113  0.2553573998511255  0.21445916292765785  1.0000
  N   N20       1.0  0.021997768824067343  0.8336552103755405  0.646876551036966  1.0000
  C   C269      1.0  0.9915162052099965  0.8174085024987761  0.6280958172938129  1.0000
  C   C270      1.0  0.019084907122493888  0.8543408355596784  0.6820584333761136  1.0000
  C   C271      1.0  0.02764128883172856  0.8496108118714195  0.6062612780326105  1.0000
  C   C272      1.0  0.04970475650973816  0.8133502762913849  0.6710689366640972  1.0000
  H   H357      1.0  0.9702685028488215  0.8320142811347279  0.6086527446902587  1.0000
  H   H358      1.0  0.9859858068314373  0.8058330603636409  0.6579781961798645  1.0000
  H   H359      1.0  0.9929150044668748  0.8011510617377153  0.6021435191630148  1.0000
  H   H360      1.0  0.0411918341429387  0.8676546036888545  0.6958754075697685  1.0000
  H   H361      1.0  0.9977171625113544  0.869386046922324  0.6655599292991807  1.0000
  H   H362      1.0  0.01571091301705274  0.8431016909684658  0.7139592251378722  1.0000
  H   H363      1.0  0.05058268898326346  0.8620457783932566  0.6192755433912884  1.0000
  H   H364      1.0  0.007235403461018919  0.8652878597974685  0.5875518278629152  1.0000
  H   H365      1.0  0.029654545078262373  0.8347420009356387  0.5787280475899513  1.0000
  H   H366      1.0  0.07331300095934079  0.8247370545338643  0.6836736367559421  1.0000
  H   H367      1.0  0.051786387122038535  0.7966190029179874  0.6463005048166466  1.0000
  H   H368      1.0  0.04705812345020277  0.8019678538198473  0.7034579099102917  1.0000
  N   N21       1.0  0.8953900447517591  0.1857832518437308  0.24440163318624772  1.0000
  C   C273      1.0  0.8934540761359695  0.2074645473449722  0.27873641592869275  1.0000
  C   C274      1.0  0.9219824415791873  0.19310791146869655  0.2262428212112316  1.0000
  C   C275      1.0  0.8639139817211637  0.1854854461840397  0.20347863869120053  1.0000
  C   C276      1.0  0.9021645106798926  0.1569757704080616  0.2694109709744895  1.0000
  H   H369      1.0  0.8739108050411764  0.20230131446766508  0.29369695727250344  1.0000
  H   H370      1.0  0.8879564387125749  0.22943163027855937  0.26096294507721435  1.0000
  H   H371      1.0  0.916901932699432  0.20844019094252822  0.30992528739508385  1.0000
  H   H372      1.0  0.9241360786435184  0.17724248953951058  0.20013888781556133  1.0000
  H   H373      1.0  0.917949786688122  0.21486532144855952  0.20758057552596854  1.0000
  H   H374      1.0  0.9460894253841844  0.19317859567278944  0.25642701094786163  1.0000
  H   H375      1.0  0.8434784224122527  0.18006232217199056  0.21647419164004364  1.0000
  H   H376      1.0  0.8643371633404303  0.16914411253630618  0.17708010805690227  1.0000
  H   H377      1.0  0.8579034621479066  0.20685793950004153  0.1836048646012908  1.0000
  H   H378      1.0  0.8822439409065945  0.1504400502111733  0.2826322804926239  1.0000
  H   H379      1.0  0.9251810232366195  0.1566521156398598  0.3013290261689212  1.0000
  H   H380      1.0  0.9047135574760498  0.14010283806539767  0.24514728002647188  1.0000
  N   N22       1.0  0.09835929346252292  0.8026078333449784  0.4721975068949484  1.0000
  C   C277      1.0  0.08894069585496144  0.8180058809985489  0.5083750051705039  1.0000
  C   C278      1.0  0.07290054378708782  0.7818406751082684  0.44826329398479936  1.0000
  C   C279      1.0  0.12975209540073712  0.7869314002329396  0.49675479758004876  1.0000
  C   C280      1.0  0.10188291856590262  0.823747483945474  0.4355950143476563  1.0000
  H   H381      1.0  0.10777107487882558  0.8337988835979633  0.5271607944083879  1.0000
  H   H382      1.0  0.08610328473259114  0.8027332040677075  0.5365805698512051  1.0000
  H   H383      1.0  0.06537254571824763  0.8301830758178868  0.49090011757461705  1.0000
  H   H384      1.0  0.07801915819893578  0.7712050340455276  0.4183693755312798  1.0000
  H   H385      1.0  0.07096143790776974  0.7644830611343977  0.47412545059124317  1.0000
  H   H386      1.0  0.048441716874778974  0.7926221594325054  0.4321974425946746  1.0000
  H   H387      1.0  0.13826649789343154  0.7759788899450427  0.4702946895677827  1.0000
  H   H388      1.0  0.12784004531078924  0.7701648375648644  0.5235658129413916  1.0000
  H   H389      1.0  0.1491635772649869  0.8018165754685298  0.5168523482592  1.0000
  H   H390      1.0  0.12102767208603346  0.8396433808840849  0.45245157079902387  1.0000
  H   H391      1.0  0.07864921501316839  0.8359598715686425  0.41628875996365  1.0000
  H   H392      1.0  0.10901054861302573  0.8130834574088015  0.40755168693365246  1.0000
  N   N23       1.0  0.45574868017267983  0.5981242828123968  0.5988613173312691  1.0000
  C   C281      1.0  0.4745345504468086  0.6186648395066653  0.6348152689451853  1.0000
  C   C282      1.0  0.4481710393816272  0.5725091623219997  0.6240316234997011  1.0000
  C   C283      1.0  0.4751043366239511  0.5890996308147929  0.569461676922682  1.0000
  C   C284      1.0  0.4249838644211073  0.6122947661706413  0.5668220067807891  1.0000
  H   H393      1.0  0.4802868285747  0.6383444153325635  0.6167106538745474  1.0000
  H   H394      1.0  0.49805084087516066  0.6088832604795967  0.6596399241522156  1.0000
  H   H395      1.0  0.46058298103070383  0.6260462703422615  0.6575452625030961  1.0000
  H   H396      1.0  0.43327496551688105  0.5785278101144276  0.6461507756603863  1.0000
  H   H397      1.0  0.43405142221337517  0.5566548436675529  0.5975509246477605  1.0000
  H   H398      1.0  0.4708061365862739  0.5612507071905737  0.6487263074609823  1.0000
  H   H399      1.0  0.4817940849184889  0.6080055292362158  0.550755714036224  1.0000
  H   H400      1.0  0.46113118679465026  0.5742993142297379  0.5409051233284189  1.0000
  H   H401      1.0  0.49813036378689995  0.5776092403661738  0.5922025433036135  1.0000
  H   H402      1.0  0.42977797326566647  0.6308003142714722  0.5453075381118839  1.0000
  H   H403      1.0  0.41030889082492444  0.6203851303254744  0.5879059152892783  1.0000
  H   H404      1.0  0.40944207544958205  0.5972040333104075  0.5406457713175341  1.0000
  N   N24       1.0  0.581932694719883  0.6559968182915069  0.4305326800205872  1.0000
  C   C285      1.0  0.6056009468180399  0.6795351569267307  0.4434583627324286  1.0000
  C   C286      1.0  0.5893199818622831  0.6348563917215824  0.47201548606774013  1.0000
  C   C287      1.0  0.5844182037934906  0.6415007817452067  0.3881749489735513  1.0000
  C   C288      1.0  0.5484873317933656  0.6680425565959712  0.4185347540485988  1.0000
  H   H405      1.0  0.6310713358727091  0.6710899951595717  0.4533378500104404  1.0000
  H   H406      1.0  0.6042522612238952  0.6911995337033248  0.47497439078444875  1.0000
  H   H407      1.0  0.6012624256795717  0.6955250982650366  0.41255911520868854  1.0000
  H   H408      1.0  0.5878302128747521  0.6450579311794377  0.5047468186771377  1.0000
  H   H409      1.0  0.5719020368221083  0.6167795865496609  0.4633781974169286  1.0000
  H   H410      1.0  0.614428614628414  0.6253624507128496  0.4819545288081766  1.0000
  H   H411      1.0  0.5808258095955308  0.6570708154664916  0.35695124388849814  1.0000
  H   H412      1.0  0.565877656364366  0.6244875426817966  0.375864466753177  1.0000
  H   H413      1.0  0.6089414017766156  0.6310615517536605  0.39671793841216674  1.0000
  H   H414      1.0  0.5455112780479031  0.6786876408993812  0.4499312171890055  1.0000
  H   H415      1.0  0.529852468113053  0.6509524944743417  0.40761616455804933  1.0000
  H   H416      1.0  0.542335915976581  0.6844435972518654  0.3879273445889878  1.0000
  N   N25       1.0  0.3998786987363387  0.2810909494695596  0.6074664581867222  1.0000
  C   C289      1.0  0.4047789286613397  0.25208457330051876  0.6319119723895498  1.0000
  C   C290      1.0  0.43062998599061775  0.2903273425099068  0.6018559088451957  1.0000
  C   C291      1.0  0.3901616880317179  0.30174997820634253  0.6370831735543242  1.0000
  C   C292      1.0  0.37400461623647235  0.2803301101830306  0.5590415217196338  1.0000
  H   H417      1.0  0.4237732965044029  0.25210769408980394  0.6689436038734394  1.0000
  H   H418      1.0  0.41274680828583676  0.23597189139554928  0.6111709842011854  1.0000
  H   H419      1.0  0.3819502378706637  0.24425221079175052  0.6362439256362568  1.0000
  H   H420      1.0  0.4274306352833383  0.31174390927071793  0.5822455811615804  1.0000
  H   H421      1.0  0.4504776243227126  0.2922304002959318  0.6376614893845146  1.0000
  H   H422      1.0  0.4392819697564804  0.27491921339315173  0.5808019504251353  1.0000
  H   H423      1.0  0.3671544828310962  0.29548347707830735  0.6423940976362393  1.0000
  H   H424      1.0  0.38637617817739717  0.3239312998369587  0.6199744525365356  1.0000
  H   H425      1.0  0.4092578137895225  0.3030577769862681  0.6737503310927505  1.0000
  H   H426      1.0  0.3806139838870303  0.2651388418976532  0.5355038013016403  1.0000
  H   H427      1.0  0.3698012141707891  0.3019553192570203  0.5396647534262743  1.0000
  H   H428      1.0  0.350377752226598  0.273520297216117  0.5617152589092256  1.0000
  N   N26       1.0  0.041593554831103476  0.20432654216093254  0.653288042029289  1.0000
  C   C293      1.0  0.045628412582320595  0.1995340476032184  0.7049638780125159  1.0000
  C   C294      1.0  0.039652622034513925  0.176199249984925  0.6307841304351692  1.0000
  C   C295      1.0  0.06977392253156908  0.2201331633701893  0.649353539458517  1.0000
  C   C296      1.0  0.011341727836642763  0.22151450825175306  0.6281140892681074  1.0000
  H   H429      1.0  0.068653861741507  0.1872927829969794  0.7255516334623162  1.0000
  H   H430      1.0  0.025051562199134503  0.18726105733457646  0.7094165697118496  1.0000
  H   H431      1.0  0.04641415014979559  0.22029671370936335  0.7228037114684777  1.0000
  H   H432      1.0  0.0187657791075377  0.16367843020779357  0.6335170217496406  1.0000
  H   H433      1.0  0.03625796330908359  0.17896509543274366  0.5916257545067968  1.0000
  H   H434      1.0  0.06230915448661924  0.16288691438075106  0.6488792033088484  1.0000
  H   H435      1.0  0.0932582294343154  0.20846394007191832  0.6697715356177822  1.0000
  H   H436      1.0  0.07104371787205636  0.2419254518900278  0.6643239158147316  1.0000
  H   H437      1.0  0.0681367952730066  0.223224881652152  0.6109567828089829  1.0000
  H   H438      1.0  0.006669982928004583  0.22464685787182045  0.5886126598278606  1.0000
  H   H439      1.0  0.012533311867281653  0.24324669812957472  0.6433157596695173  1.0000
  H   H440      1.0  0.9897819073511807  0.21086826773048614  0.6321130870711755  1.0000
  N   N27       1.0  0.6098778568054759  0.3288897345203284  0.9396111721034568  1.0000
  C   C297      1.0  0.6068356965467057  0.34599290551536044  0.8948119049524359  1.0000
  C   C298      1.0  0.6004044976820122  0.2988892096112044  0.927420925568412  1.0000
  C   C299      1.0  0.5882333532159297  0.34159200777878324  0.9627124590063663  1.0000
  C   C300      1.0  0.6440650923485816  0.32901638294311675  0.9734623028783775  1.0000
  H   H441      1.0  0.6137104591218006  0.36880185455490894  0.9022934848474031  1.0000
  H   H442      1.0  0.5813575408028676  0.34615898023194774  0.8684340865355206  1.0000
  H   H443      1.0  0.6227336317233628  0.3369252897457335  0.876286841754969  1.0000
  H   H444      1.0  0.6030861568850654  0.28511076240056216  0.9603818029327545  1.0000
  H   H445      1.0  0.5745395041314334  0.2979430256133159  0.9026717485194691  1.0000
  H   H446      1.0  0.6155196077196439  0.28889587132455813  0.9084664001587834  1.0000
  H   H447      1.0  0.5909524211008527  0.32994240360574706  0.99768682035561  1.0000
  H   H448      1.0  0.5620280232713293  0.34062086661105334  0.9391052236438631  1.0000
  H   H449      1.0  0.5937012386233255  0.3646067502352152  0.9705528246613545  1.0000
  H   H450      1.0  0.6520405658472584  0.35133268250239447  0.9834156555385999  1.0000
  H   H451      1.0  0.6609928305013805  0.31950871758829863  0.9570905001075509  1.0000
  H   H452      1.0  0.6471673045725538  0.3162399750907057  0.007675116563318651  1.0000
  N   N28       1.0  0.28532560628604564  0.5718892352372419  0.3375391355026005  1.0000
  C   C301      1.0  0.30768192419882684  0.5844005186401625  0.3820446730384043  1.0000
  C   C302      1.0  0.29919122312037555  0.5749524989422774  0.2986056676653235  1.0000
  C   C303      1.0  0.25337884866876903  0.5873627239712252  0.32205385989189317  1.0000
  C   C304      1.0  0.28113237661376284  0.5409800115070947  0.34749315070764736  1.0000
  H   H453      1.0  0.31121176733289757  0.607713995037243  0.37571068932480495  1.0000
  H   H454      1.0  0.33213493506298813  0.573414142839607  0.394774931455505  1.0000
  H   H455      1.0  0.298082370503967  0.582437642660822  0.41227057513722654  1.0000
  H   H456      1.0  0.2827472240597239  0.566101495489099  0.2642539493986281  1.0000
  H   H457      1.0  0.303135621862704  0.5980284475082428  0.29067547029575913  1.0000
  H   H458      1.0  0.32317407240924206  0.5633532182961787  0.3087612752516159  1.0000
  H   H459      1.0  0.23570867019232788  0.5784224215944845  0.28874040959327363  1.0000
  H   H460      1.0  0.2558513641697596  0.6107076263722008  0.31379895571843475  1.0000
  H   H461      1.0  0.24237701158032463  0.5860206032073396  0.35081177487498316  1.0000
  H   H462      1.0  0.26468723065277155  0.5306779128156183  0.31459453167892293  1.0000
  H   H463      1.0  0.2706064210693761  0.5378608803940281  0.37657966140122473  1.0000
  H   H464      1.0  0.3049412605189182  0.5288204150878042  0.35973226267030417  1.0000
  N   N29       1.0  0.28263899865099235  0.2375795812998921  0.8105478048405654  1.0000
  C   C305      1.0  0.31344148804916905  0.22316560634240584  0.812821095795833  1.0000
  C   C306      1.0  0.26548742495561617  0.2188214931247626  0.8350668962322725  1.0000
  C   C307      1.0  0.2615834376261647  0.24314653242487794  0.7593156237242105  1.0000
  C   C308      1.0  0.28998746606605413  0.2652431446531418  0.8348561428882353  1.0000
  H   H465      1.0  0.3271679713319126  0.23681773224582076  0.7949974088231889  1.0000
  H   H466      1.0  0.3087741280278541  0.2024293133653434  0.7940745941810808  1.0000
  H   H467      1.0  0.32984394740173106  0.21824263630529211  0.850894400715265  1.0000
  H   H468      1.0  0.2415953364632211  0.22856951911404183  0.8327674727198748  1.0000
  H   H469      1.0  0.26001882628343  0.1975574597016048  0.8181587468110858  1.0000
  H   H470      1.0  0.2802757162413158  0.21449629746762358  0.8740443326990506  1.0000
  H   H471      1.0  0.2379189487377431  0.2536982223822465  0.7560446464796761  1.0000
  H   H472      1.0  0.25578026459599307  0.22275646551792277  0.7399284747951392  1.0000
  H   H473      1.0  0.27373160847735917  0.2571144557452215  0.7394619217399486  1.0000
  H   H474      1.0  0.30281854434744826  0.27991988697069486  0.8170288052765857  1.0000
  H   H475      1.0  0.3059790573110258  0.2618840431855694  0.8735702426854165  1.0000
  H   H476      1.0  0.26723971643234956  0.2766337853732943  0.8338232619366476  1.0000
  N   N30       1.0  0.9729206801447141  0.7302619027422899  0.9664128593854876  1.0000
  C   C309      1.0  0.9996160420985327  0.715365531387714  0.956188496824488  1.0000
  C   C310      1.0  0.9434185993585795  0.7125077588726992  0.9508779692510019  1.0000
  C   C311      1.0  0.9655688807494516  0.7583984366459241  0.9392742614797476  1.0000
  C   C312      1.0  0.983087677750591  0.7348998066779838  0.018961669303414475  1.0000
  H   H477      1.0  0.022284737266013748  0.728139159648543  0.9676288886736268  1.0000
  H   H478      1.0  0.9928368561100489  0.7118837675792404  0.9166563595468511  1.0000
  H   H479      1.0  0.00565654091124457  0.6938868638339671  0.9756975451843416  1.0000
  H   H480      1.0  0.9225361081480793  0.723342460694518  0.9570997505914615  1.0000
  H   H481      1.0  0.9354465703926724  0.7084675832422941  0.911399878357755  1.0000
  H   H482      1.0  0.9478657961054293  0.6911469061569084  0.9708594326978569  1.0000
  H   H483      1.0  0.9583126969532192  0.7556536354446955  0.8996425183369513  1.0000
  H   H484      1.0  0.9871691693197295  0.772403541498248  0.9501964768157297  1.0000
  H   H485      1.0  0.9453599579941782  0.7703073162924517  0.9455868330310443  1.0000
  H   H486      1.0  0.9635298664867855  0.7461741419370644  0.027924141367186017  1.0000
  H   H487      1.0  0.005202445409165258  0.7484294242964451  0.03162986355745412  1.0000
  H   H488      1.0  0.9890767945380528  0.7141406601652421  0.04077176948514549  1.0000
  N   N31       1.0  0.12739350447558148  0.8235827552576009  0.9573023611335623  1.0000
  C   C313      1.0  0.10411248633881666  0.8374872393089751  0.9762712161046639  1.0000
  C   C314      1.0  0.16073660791548158  0.8243999667879429  0.9936822862649115  1.0000
  C   C315      1.0  0.12636481328380922  0.8390953976410357  0.9120039573193969  1.0000
  C   C316      1.0  0.11834480283658165  0.7932744159003443  0.9471997125224167  1.0000
  H   H489      1.0  0.10446951469499738  0.8265517884821567  0.010777232762112381  1.0000
  H   H490      1.0  0.07858270883337808  0.8368280976971071  0.9500964861950448  1.0000
  H   H491      1.0  0.10977320060310354  0.8605372960394924  0.9835810210558602  1.0000
  H   H492      1.0  0.17888451987174928  0.8140697952714211  0.9804413269318063  1.0000
  H   H493      1.0  0.16834278676368158  0.8469727523188775  0.002206034405859203  1.0000
  H   H494      1.0  0.16231522947237323  0.8127991386080587  0.028284720089963373  1.0000
  H   H495      1.0  0.14315940434122854  0.82885034202186  0.8960787830430856  1.0000
  H   H496      1.0  0.13329032937723423  0.862017461501326  0.9180334562799553  1.0000
  H   H497      1.0  0.1014842948502643  0.8389663895354605  0.8839719920589935  1.0000
  H   H498      1.0  0.0932642319319356  0.791938715027827  0.9200790174048965  1.0000
  H   H499      1.0  0.1191090292091968  0.7807547670092002  0.9805894429049496  1.0000
  H   H500      1.0  0.13495428690450798  0.7822428603530069  0.9318116383414059  1.0000
  N   N32       1.0  0.6163314343342444  0.762375607170003  0.9491355311965527  1.0000
  C   C317      1.0  0.6498487530742958  0.7575302321962298  0.9843910109984659  1.0000
  C   C318      1.0  0.5948628528250014  0.7726466109577099  0.9744988330578332  1.0000
  C   C319      1.0  0.6040087493722682  0.7350183874966071  0.9261450149367073  1.0000
  C   C320      1.0  0.616627801009834  0.7842557262320242  0.9114805471429508  1.0000
  H   H501      1.0  0.650464043960204  0.7410602741727985  0.013286977688425239  1.0000
  H   H502      1.0  0.6599510626932251  0.7777048680722116  0.0025463272141676985  1.0000
  H   H503      1.0  0.6666349244266844  0.7497381581439408  0.9663321526230034  1.0000
  H   H504      1.0  0.5953783538903409  0.7573266107334777  0.004740987542745545  1.0000
  H   H505      1.0  0.6024911882898185  0.7939194834049842  0.9903408984173545  1.0000
  H   H506      1.0  0.5689683960502971  0.7750413660387553  0.9494713226602507  1.0000
  H   H507      1.0  0.5785161389022774  0.7377391236160598  0.9000345545815571  1.0000
  H   H508      1.0  0.604214212315482  0.7177610144385658  0.9534903299813086  1.0000
  H   H509      1.0  0.6190032634738462  0.7271307974359663  0.9052782082642098  1.0000
  H   H510      1.0  0.5916812687538441  0.7883723071800128  0.8842372328888433  1.0000
  H   H511      1.0  0.6322037979123214  0.7770137113918901  0.8910527093745333  1.0000
  H   H512      1.0  0.6259700533248775  0.8051724679276915  0.9273223599953051  1.0000
