data_image0
_chemical_formula_structural       FeS2FeS2FeSFeS3FeS2FeS2FeSFeS3FeS2FeS2FeSFeS3FeS2FeS2FeSFeS3FeS2FeS2FeSFeS3FeS2FeS2FeSFeS3FeS2FeS2FeSFeS3FeS2FeS2FeSFeS3FeS2FeS2FeSFeS3FeS2FeS2FeSFeS3FeS2FeS2FeSFeS3FeS2FeS2FeSFeS3FeS2FeS2FeSFeS3FeS2FeS2FeSFeS3FeS2FeS2FeSFeS3FeS2FeS2FeSFeS3FeS2FeS2FeSFeS3FeS2FeS2FeSFeS3FeS2FeS2FeSFeS3FeS2FeS2FeSFeS3FeS2FeS2FeSFeS3FeS2FeS2FeSFeS3FeS2FeS2FeSFeS3FeS2FeS2FeSFeS3C6H4C6H4C6H4C6H4C6H4C6H4C6H4C6H4C6H4C6H4C6H4C6H4C6H4C6H4C6H4C6H4C6H4C6H4C6H4C6H4C6H4C6H4C6H4C6H4C6H4C6H4C6H4C6H4C6H4C6H4C6H4C6H4C6H4C6H4C6H4C6H4C6H4C6H4C6H4C6H4C6H4C6H4C6H4C6H4C6H4C6H4C6H4C6H4NC4H12NC4H12NC4H12NC4H12NC4H12NC4H12NC4H12NC4H12NC4H12NC4H12NC4H12NC4H12NC4H12NC4H12NC4H12NC4H12NC4H12NC4H12NC4H12NC4H12NC4H12NC4H12NC4H12NC4H12NC4H12NC4H12NC4H12NC4H12NC4H12NC4H12NC4H12NC4H12NC4H12NC4H12NC4H12NC4H12NC4H12NC4H12NC4H12NC4H12NC4H12NC4H12NC4H12NC4H12NC4H12NC4H12NC4H12NC4H12
_chemical_formula_sum              "Fe96 S192 C480 H768 N48"
_cell_length_a       44.54834618141667
_cell_length_b       46.754360049659375
_cell_length_c       36.30179046411345
_cell_angle_alpha    88.75922797587158
_cell_angle_beta     88.60793029067891
_cell_angle_gamma    89.94513267951288

_space_group_name_H-M_alt    "P 1"
_space_group_IT_number       1

loop_
  _space_group_symop_operation_xyz
  'x, y, z'

loop_
  _atom_site_type_symbol
  _atom_site_label
  _atom_site_symmetry_multiplicity
  _atom_site_fract_x
  _atom_site_fract_y
  _atom_site_fract_z
  _atom_site_occupancy
  Fe  Fe1       1.0  0.6624067775825542  0.9581816870123154  0.23243157026711286  1.0000
  S   S1        1.0  0.6143813093453176  0.9469877752227894  0.2460467901176456  1.0000
  S   S2        1.0  0.6900527738218799  0.9253899868214576  0.2032667167377542  1.0000
  Fe  Fe2       1.0  0.6573174423962516  0.01759780751528539  0.26268674521797575  1.0000
  S   S3        1.0  0.6090630193078055  0.011336868029583558  0.2787434094434689  1.0000
  S   S4        1.0  0.6736629768102792  0.061255497780738466  0.27686809437482357  1.0000
  Fe  Fe3       1.0  0.6230888896244857  0.9683750575873791  0.29936380243844873  1.0000
  S   S5        1.0  0.6065747830422685  0.9550050042956224  0.35583636010327024  1.0000
  Fe  Fe4       1.0  0.6051042479422014  0.9911541591029557  0.22382853695979432  1.0000
  S   S6        1.0  0.5675523388556567  0.0035671677375377353  0.18647954558051918  1.0000
  S   S7        1.0  0.6720414269699242  0.9759795406393558  0.2880791959362548  1.0000
  S   S8        1.0  0.6525330071101291  0.0006042100375915904  0.20574433630659678  1.0000
  Fe  Fe5       1.0  0.8070123855540519  0.972159341844896  0.3874675734802662  1.0000
  S   S9        1.0  0.7627668408822694  0.9538697380728449  0.37179564295995754  1.0000
  S   S10       1.0  0.8203169930481993  0.016327990840004247  0.3681255540710113  1.0000
  Fe  Fe6       1.0  0.8250294596221608  0.9189630214096118  0.4306644022776408  1.0000
  S   S11       1.0  0.7819812992209009  0.8965335297711637  0.41970329030976683  1.0000
  S   S12       1.0  0.8609614008538135  0.8962020396438378  0.4623558966639202  1.0000
  Fe  Fe7       1.0  0.7891276580991639  0.9136597397357188  0.36216907034403606  1.0000
  S   S13       1.0  0.7840661667364132  0.8822813096554362  0.31713997987667236  1.0000
  Fe  Fe8       1.0  0.7599919957554202  0.9386565633473303  0.43050826785605145  1.0000
  S   S14       1.0  0.7158111595210671  0.9400739960345761  0.4614087994055667  1.0000
  S   S15       1.0  0.8338189988072705  0.9333263842581492  0.37223469786851926  1.0000
  S   S16       1.0  0.8025077669209288  0.9598657281596235  0.44749566586050715  1.0000
  Fe  Fe9       1.0  0.44364146374256136  0.98036087218343  0.4161553298543303  1.0000
  S   S17       1.0  0.3940360200200638  0.971693427082429  0.42087067165365977  1.0000
  S   S18       1.0  0.4669762007135283  0.9804190752007503  0.36040875051817967  1.0000
  Fe  Fe10      1.0  0.44819243585972657  0.9937393927071284  0.4965995069042947  1.0000
  S   S19       1.0  0.399308162616826  0.9865022183187491  0.5088396246963093  1.0000
  S   S20       1.0  0.48063398137953683  0.007027379312473769  0.5390835709397483  1.0000
  Fe  Fe11      1.0  0.40486970759766616  0.9481638069099302  0.4732826142075933  1.0000
  S   S21       1.0  0.3814316735761632  0.9087597307867608  0.4960648994507806  1.0000
  Fe  Fe12      1.0  0.39242870771079724  0.010566969275919824  0.45575658531123026  1.0000
  S   S22       1.0  0.3556450655430406  0.042672318706396206  0.44691065558978293  1.0000
  S   S23       1.0  0.45481124706544723  0.9530877662315733  0.46571115562320436  1.0000
  S   S24       1.0  0.4409382550179751  0.021511521655976917  0.4465234214595795  1.0000
  Fe  Fe13      1.0  0.579683082684071  0.23319093371004607  0.2723382534900921  1.0000
  S   S25       1.0  0.5712126452756724  0.19348949880127225  0.3064825935261801  1.0000
  S   S26       1.0  0.6201233419176249  0.26072291529299596  0.27864275589238807  1.0000
  Fe  Fe14      1.0  0.5204086538607098  0.22998377655671604  0.23440523697496413  1.0000
  S   S27       1.0  0.5055535854985742  0.19055486152337367  0.26626314530285866  1.0000
  S   S28       1.0  0.4944628578931144  0.25242829346085865  0.19000698338385152  1.0000
  Fe  Fe15      1.0  0.5251542962575152  0.21176059585376478  0.3151749322928958  1.0000
  S   S29       1.0  0.510205690555275  0.21139680317846998  0.3747427672246429  1.0000
  Fe  Fe16      1.0  0.5527326633688715  0.17575588518269675  0.2549402183362322  1.0000
  S   S30       1.0  0.5587229467474527  0.13152224291457984  0.23347356985852435  1.0000
  S   S31       1.0  0.535059945716787  0.25293010838421176  0.28455753713493226  1.0000
  S   S32       1.0  0.566240404669894  0.2136563129369461  0.21962330129547178  1.0000
  Fe  Fe17      1.0  0.7590534403909335  0.15532922529114  0.4380956843512132  1.0000
  S   S33       1.0  0.7164436744019993  0.1740806377812331  0.4168657250278144  1.0000
  S   S34       1.0  0.7539792762213432  0.1105943636870926  0.46161526658159974  1.0000
  Fe  Fe18      1.0  0.7946893546650766  0.21021050053489526  0.4202339212593501  1.0000
  S   S35       1.0  0.7547364662877569  0.23269016282774033  0.3965655193880273  1.0000
  S   S36       1.0  0.8395265524374341  0.23161630371912123  0.4283004887802634  1.0000
  Fe  Fe19      1.0  0.7299942526069813  0.2137223233292302  0.44543575404309277  1.0000
  S   S37       1.0  0.7014786877318842  0.2397870978755764  0.4834084473623104  1.0000
  Fe  Fe20      1.0  0.7457946566689887  0.1906554816436713  0.3702958407937159  1.0000
  S   S38       1.0  0.7305468030887238  0.181865080376869  0.31341460384234326  1.0000
  S   S39       1.0  0.7701725641927171  0.19364445141352338  0.47107214868469327  1.0000
  S   S40       1.0  0.7878378113481507  0.16944664759691058  0.38955034628529833  1.0000
  Fe  Fe21      1.0  0.35037503460894753  0.18288159557187275  0.5402458565323423  1.0000
  S   S41       1.0  0.3914876663023992  0.2036234122204484  0.5149510851179876  1.0000
  S   S42       1.0  0.35536299013075096  0.13902971974255934  0.5659165509849082  1.0000
  Fe  Fe22      1.0  0.3108408145093037  0.23421095234445535  0.5249796008436095  1.0000
  S   S43       1.0  0.3483145226555417  0.25920183864166246  0.49775320344581414  1.0000
  S   S44       1.0  0.26392710007694464  0.2515321529799364  0.5298648254484649  1.0000
  Fe  Fe23      1.0  0.3606354780746073  0.21837525372485253  0.47046022857835335  1.0000
  S   S45       1.0  0.3709293217493094  0.21777571938426138  0.40947847044891167  1.0000
  Fe  Fe24      1.0  0.37552881815129713  0.24254517177727172  0.5445145075175949  1.0000
  S   S46       1.0  0.40614774072491655  0.27359571654712317  0.5707275962725361  1.0000
  S   S47       1.0  0.320541651495564  0.19447336932464204  0.4933690791232401  1.0000
  S   S48       1.0  0.33705512841850005  0.2206456791325134  0.5742388123412104  1.0000
  Fe  Fe25      1.0  0.5659541447810233  0.9570909028145012  0.9901744913585705  1.0000
  S   S49       1.0  0.5845462626881646  0.001293003139893889  0.9842503528139144  1.0000
  S   S50       1.0  0.579902129575936  0.9325798884196758  0.04060459232134073  1.0000
  Fe  Fe26      1.0  0.541470850640018  0.9581697146404893  0.9125694918402284  1.0000
  S   S51       1.0  0.5584848957153303  0.0025221177883036905  0.9001113206193888  1.0000
  S   S52       1.0  0.5236074025724338  0.933869165307525  0.8652315537179379  1.0000
  Fe  Fe27      1.0  0.6001009700049115  0.9878377827130692  0.9282373808312784  1.0000
  S   S53       1.0  0.6471240540603163  0.9957006135288313  0.9070426363893576  1.0000
  Fe  Fe28      1.0  0.5410835778709185  0.011373505612551016  0.9570446384355702  1.0000
  S   S54       1.0  0.5170926531691292  0.052189463915241596  0.9693336992399619  1.0000
  S   S55       1.0  0.5846923873658049  0.9426974939467817  0.9359342560180742  1.0000
  S   S56       1.0  0.5205996572053228  0.9680487004672936  0.9679508096263977  1.0000
  Fe  Fe29      1.0  0.7603931942370153  0.9864873683882041  0.726280546062252  1.0000
  S   S57       1.0  0.71727037650614  0.005098821544325505  0.7062319123461369  1.0000
  S   S58       1.0  0.7895900628187783  0.009537484744614577  0.7652929432900599  1.0000
  Fe  Fe30      1.0  0.7545040603833664  0.9321263779559408  0.6832683644630716  1.0000
  S   S59       1.0  0.7106530969402866  0.945938645253567  0.6593227392963644  1.0000
  S   S60       1.0  0.7742078245798341  0.8897397256186189  0.6665747832550586  1.0000
  Fe  Fe31      1.0  0.7326447863534188  0.9888196405618276  0.6512289571863651  1.0000
  S   S61       1.0  0.7330079084661267  0.016520675557389453  0.5996409822469259  1.0000
  Fe  Fe32      1.0  0.6993189232656747  0.9607811566807298  0.7163684026491801  1.0000
  S   S62       1.0  0.6538163564341315  0.9534613473287071  0.7429357474650293  1.0000
  S   S63       1.0  0.7775535732162495  0.973841801406022  0.6704740343964082  1.0000
  S   S64       1.0  0.741312218381301  0.9432535897144663  0.7411801901155498  1.0000
  Fe  Fe33      1.0  0.4113920930674447  0.9443138959892661  0.7141677210362064  1.0000
  S   S65       1.0  0.3701263871857043  0.9559134441497817  0.6828953905759896  1.0000
  S   S66       1.0  0.45795393549486735  0.9398318375761109  0.6897841744178365  1.0000
  Fe  Fe34      1.0  0.37687473464996074  0.9360428275662093  0.7864408705210162  1.0000
  S   S67       1.0  0.33250637738835626  0.9466043683691705  0.7615236826682533  1.0000
  S   S68       1.0  0.3832603382051926  0.9298214387414555  0.8471691993318073  1.0000
  Fe  Fe35      1.0  0.34885639754517295  0.9193179257058782  0.7149296646923996  1.0000
  S   S69       1.0  0.3228045601570238  0.8865680709262098  0.6842374801715031  1.0000
  Fe  Fe36      1.0  0.3578988692236439  0.9821858734622321  0.7320981417932152  1.0000
  S   S70       1.0  0.3367230403088397  0.026057108608899426  0.7283939165169913  1.0000
  S   S71       1.0  0.3910899384809717  0.9056685844427896  0.7424918593119643  1.0000
  S   S72       1.0  0.401100787948599  0.9735545992782094  0.7606866983744344  1.0000
  Fe  Fe37      1.0  0.5725848800567013  0.24500148273238032  0.007459413545102933  1.0000
  S   S73       1.0  0.6116952719408881  0.22819938850303229  0.9739889728967613  1.0000
  S   S74       1.0  0.5750030045662159  0.2803551971418803  0.0482647221389898  1.0000
  Fe  Fe38      1.0  0.5280238322004106  0.20444228888735444  0.975510726310245  1.0000
  S   S75       1.0  0.5625561965625222  0.18403106399753116  0.9392009988661774  1.0000
  S   S76       1.0  0.4817887501976394  0.18576148964085137  0.977294826684914  1.0000
  Fe  Fe39      1.0  0.5916009810343082  0.18531345045264863  0.9884878398223496  1.0000
  S   S77       1.0  0.615423834356879  0.14437986749896814  0.0009044485516860323  1.0000
  Fe  Fe40      1.0  0.5793230127727352  0.22835369333196537  0.9273976165227874  1.0000
  S   S78       1.0  0.5902050181850028  0.2400964289381552  0.8680061094152778  1.0000
  S   S79       1.0  0.5554315836857175  0.2019680055582216  0.026007255952625208  1.0000
  S   S80       1.0  0.5417706241072043  0.24914484539944876  0.9594612381035392  1.0000
  Fe  Fe41      1.0  0.35456165191895633  0.209563332882553  0.7616661926834124  1.0000
  S   S81       1.0  0.38665136022336694  0.2455161486788058  0.7696014033770471  1.0000
  S   S82       1.0  0.3127686742628323  0.2187601204838041  0.7299269288350484  1.0000
  Fe  Fe42      1.0  0.3940913049069416  0.16587902472018815  0.7991934556920894  1.0000
  S   S83       1.0  0.4295184203148418  0.19803564514341895  0.8108425208178343  1.0000
  S   S84       1.0  0.4051902105315454  0.12046844874909883  0.8148081216219876  1.0000
  Fe  Fe43      1.0  0.39117083062473673  0.22664194431217854  0.8261379843836205  1.0000
  S   S85       1.0  0.3987718532865787  0.2565614508718214  0.8720679711187783  1.0000
  Fe  Fe44      1.0  0.4221754829047384  0.21420425059617207  0.7536210625914762  1.0000
  S   S86       1.0  0.46098599468622425  0.23139446555972645  0.7201269607890473  1.0000
  S   S87       1.0  0.3558273366356599  0.19290376168110407  0.8202500626107254  1.0000
  S   S88       1.0  0.3899165579683941  0.1795571476376148  0.739994719153445  1.0000
  Fe  Fe45      1.0  0.721791884351686  0.17600793056942743  0.6719963740529661  1.0000
  S   S89       1.0  0.7689959421509492  0.19182278884066847  0.6637060823853236  1.0000
  S   S90       1.0  0.6954164317575339  0.15969889180087346  0.6251740872069834  1.0000
  Fe  Fe46      1.0  0.7227458446185729  0.1785129395825849  0.7550123520411365  1.0000
  S   S91       1.0  0.7701356148356192  0.19444497249976805  0.7544140665432023  1.0000
  S   S92       1.0  0.70073479326195  0.16724208205820007  0.8099298378236752  1.0000
  Fe  Fe47      1.0  0.7563057484113506  0.22310735901195689  0.7075971944825614  1.0000
  S   S93       1.0  0.7700566912803087  0.26948549989945514  0.710508185451823  1.0000
  Fe  Fe48      1.0  0.7790272618199702  0.16216885148329546  0.711046996468508  1.0000
  S   S94       1.0  0.8209890786158581  0.13612202966693424  0.7144437179633745  1.0000
  S   S95       1.0  0.707659212592678  0.2099524216747824  0.7117354189558179  1.0000
  S   S96       1.0  0.7330086970920602  0.14343666915396988  0.7156723715605948  1.0000
  Fe  Fe49      1.0  0.9752488816571396  0.6076866577148307  0.19540925652549815  1.0000
  S   S97       1.0  0.9771522720490021  0.5651157579564906  0.22515629043345559  1.0000
  S   S98       1.0  0.9539227408651689  0.6475213327289421  0.21815106257204292  1.0000
  Fe  Fe50      1.0  0.005050320427101074  0.5863046454383303  0.1257772008328852  1.0000
  S   S99       1.0  0.009763647995220559  0.5419421337554102  0.14840445128500065  1.0000
  S   S100      1.0  0.02570717501462383  0.5929003794094224  0.06927641827934816  1.0000
  Fe  Fe51      1.0  0.9632765047149326  0.5469863311243296  0.1716270273009661  1.0000
  S   S101      1.0  0.9322180745363252  0.5090781316523835  0.17313758196848714  1.0000
  Fe  Fe52      1.0  0.02339851493850431  0.5624336585710642  0.20021586681822243  1.0000
  S   S102      1.0  0.060684955488296  0.5398766694244432  0.2287358043575826  1.0000
  S   S103      1.0  0.9566070621284231  0.5898001969350398  0.14362002841009805  1.0000
  S   S104      1.0  0.023494389691327777  0.6068252796703398  0.1756217310779002  1.0000
  Fe  Fe53      1.0  0.009581858050097702  0.7735378286756549  0.43213041038453487  1.0000
  S   S105      1.0  0.9835693125439315  0.8129432110435952  0.4180685569108984  1.0000
  S   S106      1.0  0.023583230556844414  0.7642370732213488  0.48964386025145074  1.0000
  Fe  Fe54      1.0  0.013528604354097196  0.7538271326052555  0.35373773870351144  1.0000
  S   S107      1.0  0.987312199382409  0.7912498199877951  0.3319940828409326  1.0000
  S   S108      1.0  0.0357995249448686  0.7186590900502852  0.32199628238061095  1.0000
  Fe  Fe55      1.0  0.015218577293954594  0.8171432169535883  0.36960308790890006  1.0000
  S   S109      1.0  0.030776265720262375  0.8610370844052692  0.3521905591952351  1.0000
  Fe  Fe56      1.0  0.9576537672447266  0.7840226915047812  0.38224135239922824  1.0000
  S   S110      1.0  0.9075805608831764  0.7876503897276677  0.3772868906185947  1.0000
  S   S111      1.0  0.04402035674777083  0.7804082564739419  0.38714416492355747  1.0000
  S   S112      1.0  0.9811355272954603  0.7438478265245261  0.40044223849197946  1.0000
  Fe  Fe57      1.0  0.9103417115302116  0.36664996431116975  0.34656322511041254  1.0000
  S   S113      1.0  0.9246883269624765  0.41122252301599393  0.3288799416284106  1.0000
  S   S114      1.0  0.8630349700726128  0.3504287867144968  0.3446705376702094  1.0000
  Fe  Fe58      1.0  0.9715552195854525  0.3494731278382111  0.37249051674067163  1.0000
  S   S115      1.0  0.9917368295344449  0.3918547768367141  0.3573645617731613  1.0000
  S   S116      1.0  0.995527159394069  0.31201045382320874  0.3979671655345629  1.0000
  Fe  Fe59      1.0  0.9498136244975603  0.41050518390076857  0.3814798669610987  1.0000
  S   S117      1.0  0.9530723959379834  0.4468572093784497  0.42010999781649566  1.0000
  Fe  Fe60      1.0  0.9655750342577407  0.3892328108694041  0.30581950272925174  1.0000
  S   S118      1.0  0.9930513101938675  0.40477544638906554  0.25690331995138793  1.0000
  S   S119      1.0  0.9316366217822701  0.36834851927617673  0.4015172369486185  1.0000
  S   S120      1.0  0.9491114034701701  0.34465491446919855  0.3184262876942467  1.0000
  Fe  Fe61      1.0  0.21911256955144381  0.6473317969265773  0.33397574076423486  1.0000
  S   S121      1.0  0.24027677066739683  0.6210258422592867  0.2891912940204158  1.0000
  S   S122      1.0  0.24465553507939491  0.682899467154779  0.3596803185944127  1.0000
  Fe  Fe62      1.0  0.15915197470450604  0.6176538902148577  0.3297803184146242  1.0000
  S   S123      1.0  0.17470380739424096  0.5894867712375906  0.28398389934839813  1.0000
  S   S124      1.0  0.11174355521109819  0.614878160648502  0.3519596085100059  1.0000
  Fe  Fe63      1.0  0.2159345861989902  0.5841717734157018  0.3173625513145083  1.0000
  S   S125      1.0  0.23644773384972056  0.5411694396872695  0.3298654329363591  1.0000
  Fe  Fe64      1.0  0.19708581387978802  0.6285559114988658  0.2599801379583184  1.0000
  S   S126      1.0  0.19173030072986916  0.6407691871968454  0.20007562691942593  1.0000
  S   S127      1.0  0.19887655576139968  0.6098400592900851  0.3650517597033893  1.0000
  S   S128      1.0  0.17755894100590328  0.6576267890608649  0.30276681583409576  1.0000
  Fe  Fe65      1.0  0.15919839259757435  0.41702178566563125  0.40670979738448604  1.0000
  S   S129      1.0  0.17320603923221367  0.3710261464806159  0.4126771381257318  1.0000
  S   S130      1.0  0.14643850745742487  0.43802654239855704  0.3531327929784301  1.0000
  Fe  Fe66      1.0  0.16272743895226818  0.42835913645464835  0.487827803407268  1.0000
  S   S131      1.0  0.17731094623789836  0.38376073593265014  0.5013143472432968  1.0000
  S   S132      1.0  0.15574448475561237  0.4587879851783057  0.5338341136336558  1.0000
  Fe  Fe67      1.0  0.20710499874334581  0.3881663958888409  0.45115684220940766  1.0000
  S   S133      1.0  0.2548611549190235  0.3734881198634995  0.4539780002550414  1.0000
  Fe  Fe68      1.0  0.1422170467462614  0.3706633783260399  0.46234394358285213  1.0000
  S   S134      1.0  0.11541389937717847  0.3327959541228419  0.482346436155214  1.0000
  S   S135      1.0  0.19585911423019994  0.434346445982936  0.4412315835962456  1.0000
  S   S136      1.0  0.12475618778985144  0.41504295767632576  0.4529044945529317  1.0000
  Fe  Fe69      1.0  0.2125603584570839  0.8491677665805931  0.5143184112535166  1.0000
  S   S137      1.0  0.21951433314830687  0.8856554927732482  0.4741249510271693  1.0000
  S   S138      1.0  0.22596961457260412  0.8488272225973659  0.5733437843733274  1.0000
  Fe  Fe70      1.0  0.1862998918583643  0.8103890503996567  0.45824241044208297  1.0000
  S   S139      1.0  0.19092684319153322  0.8428528058543664  0.4120440239168128  1.0000
  S   S140      1.0  0.16542192244584372  0.7667758452569398  0.4550259539119949  1.0000
  Fe  Fe71      1.0  0.2360109246211138  0.8519348487115151  0.43571676225140177  1.0000
  S   S141      1.0  0.27679957853081805  0.8615306222602016  0.4002365655576897  1.0000
  Fe  Fe72      1.0  0.17405751985827267  0.8739237350355017  0.45392218269106893  1.0000
  S   S142      1.0  0.1405315435697213  0.9079022429164233  0.4401622863795999  1.0000
  S   S143      1.0  0.23314801045079955  0.8161819322619236  0.4777780300846442  1.0000
  S   S144      1.0  0.1652878755963091  0.8408164800620129  0.4981518325585164  1.0000
  Fe  Fe73      1.0  0.9423257800862904  0.5685500745478195  0.8945674531159371  1.0000
  S   S145      1.0  0.9799823026025586  0.5879249367922355  0.8600032191371227  1.0000
  S   S146      1.0  0.9265177776957119  0.5867269958061517  0.9486160070669555  1.0000
  Fe  Fe74      1.0  0.9307889412478828  0.5212418192201591  0.8409529288400769  1.0000
  S   S147      1.0  0.9669933014867843  0.5365106578575335  0.8016170390257734  1.0000
  S   S148      1.0  0.9077201600788742  0.4791124689014856  0.8337447858927656  1.0000
  Fe  Fe75      1.0  0.9941364562739743  0.5424370344611439  0.8516964367957898  1.0000
  S   S149      1.0  0.0422457440849342  0.5283151364431652  0.8477884398196975  1.0000
  Fe  Fe76      1.0  0.9494877722339093  0.580528405765176  0.8128604284832944  1.0000
  S   S150      1.0  0.9466795624302385  0.6102566104482243  0.7635406754975261  1.0000
  S   S151      1.0  0.9593386848124505  0.5235882815185238  0.8906234780450168  1.0000
  S   S152      1.0  0.9103649718675644  0.5647510617297304  0.8478977656072035  1.0000
  Fe  Fe77      1.0  0.9095823025534692  0.34384448748247226  0.630676202284421  1.0000
  S   S153      1.0  0.9152967139999408  0.385096403839147  0.5987154404911698  1.0000
  S   S154      1.0  0.8820851500123512  0.30719275383796524  0.6103494566794784  1.0000
  Fe  Fe78      1.0  0.958046074914704  0.3585700350790226  0.6849178225260274  1.0000
  S   S155      1.0  0.9680177871847111  0.40098180114095755  0.6578967243206102  1.0000
  S   S156      1.0  0.9847094870691553  0.3453240514798357  0.7341515167873631  1.0000
  Fe  Fe79      1.0  0.9180154353665327  0.40480056724392893  0.6545152159123476  1.0000
  S   S157      1.0  0.8979362416664096  0.44762291184372904  0.6662568782084775  1.0000
  Fe  Fe80      1.0  0.9645585500960172  0.37775191949858544  0.6050897701722443  1.0000
  S   S158      1.0  0.9995555176841388  0.38048558584464354  0.5600536294830579  1.0000
  S   S159      1.0  0.9079715348228244  0.36406555455912376  0.6863242231497862  1.0000
  S   S160      1.0  0.9588621548750814  0.3347544045344892  0.6322236199996885  1.0000
  Fe  Fe81      1.0  0.9287936584668706  0.8241001031408595  0.7001686531097461  1.0000
  S   S161      1.0  0.9013395255077631  0.7840214650625702  0.7017695556201156  1.0000
  S   S162      1.0  0.9084462147406076  0.867118754663182  0.7117030705406409  1.0000
  Fe  Fe82      1.0  0.9874851429912542  0.7922865923362227  0.6834845401269432  1.0000
  S   S163      1.0  0.9648295673777326  0.7494930565479805  0.6850891689965752  1.0000
  S   S164      1.0  0.035958955532851  0.7946957709834352  0.6649270389782148  1.0000
  Fe  Fe83      1.0  0.9293999952306242  0.7719606101917309  0.6524204927301289  1.0000
  S   S165      1.0  0.9115414233030503  0.7572292164882477  0.598895876064444  1.0000
  Fe  Fe84      1.0  0.9393947189930063  0.765983824897127  0.7342922185509666  1.0000
  S   S166      1.0  0.9312294094131217  0.7423637868662338  0.7880993298341018  1.0000
  S   S167      1.0  0.9536354652850184  0.8138167601844722  0.6479354580067074  1.0000
  S   S168      1.0  0.9653770761414812  0.8069872047486186  0.7359169368197505  1.0000
  Fe  Fe85      1.0  0.20509056878973103  0.5261804666374675  0.9542747428355769  1.0000
  S   S169      1.0  0.1620574354655181  0.5477398330658437  0.9393113620604355  1.0000
  S   S170      1.0  0.23082923781929782  0.5031362923784014  0.9097099443269729  1.0000
  Fe  Fe86      1.0  0.20054763479594612  0.5455984728704804  0.03334509541752251  1.0000
  S   S171      1.0  0.15731837235805488  0.5689469412325887  0.02451483133771082  1.0000
  S   S172      1.0  0.21850249577857098  0.5400601742695207  0.09037413561964946  1.0000
  Fe  Fe87      1.0  0.14459191430095827  0.530284910024719  0.9935833870667684  1.0000
  S   S173      1.0  0.09811806897251946  0.5133683557873936  0.0035850725441142206  1.0000
  Fe  Fe88      1.0  0.17894730494624828  0.5841954658188515  0.9714679412242635  1.0000
  S   S174      1.0  0.1679242640955805  0.6276903206059787  0.9485291036963402  1.0000
  S   S175      1.0  0.18605332614461112  0.5054254728164365  0.0059880125811226925  1.0000
  S   S176      1.0  0.22381963171511624  0.5643440278501242  0.9826277225994309  1.0000
  Fe  Fe89      1.0  0.23121059715380804  0.759862602139926  0.7630099082462781  1.0000
  S   S177      1.0  0.2482310875828195  0.7222078364272638  0.7314900111473934  1.0000
  S   S178      1.0  0.2616377508040347  0.7920673568169819  0.7882403907097586  1.0000
  Fe  Fe90      1.0  0.16676442875338615  0.7376620158130842  0.7659590325136059  1.0000
  S   S179      1.0  0.17844922127403148  0.6978802272113227  0.7355614650496973  1.0000
  S   S180      1.0  0.11985064415886779  0.7444442649243771  0.7877799172449033  1.0000
  Fe  Fe91      1.0  0.21900839785445805  0.69627894564534  0.7707977633489248  1.0000
  S   S181      1.0  0.23711923543510197  0.6567267689685607  0.798732442398793  1.0000
  Fe  Fe92      1.0  0.20612067232567854  0.727620049309732  0.6993860816806596  1.0000
  S   S182      1.0  0.20337579335297298  0.7245623888405757  0.6380440082787611  1.0000
  S   S183      1.0  0.20481123175867047  0.7335196970677113  0.8046397186714745  1.0000
  S   S184      1.0  0.19152421337491213  0.767997488982726  0.7273523144897741  1.0000
  Fe  Fe93      1.0  0.2087865811208162  0.34645840729130367  0.7679431111474417  1.0000
  S   S185      1.0  0.21828251402229817  0.3935677246545557  0.7652075617568571  1.0000
  S   S186      1.0  0.2397859573009914  0.32002616629868236  0.8031391797764895  1.0000
  Fe  Fe94      1.0  0.1544303357362026  0.35230672647033257  0.7189402589755776  1.0000
  S   S187      1.0  0.1591221422874341  0.39973645529584895  0.712640001864315  1.0000
  S   S188      1.0  0.12084658035458962  0.33089212743353674  0.6835269327415217  1.0000
  Fe  Fe95      1.0  0.2082401801453971  0.3905649644213431  0.705255290055702  1.0000
  S   S189      1.0  0.23736116081550324  0.4077401390688001  0.6585453898173161  1.0000
  Fe  Fe96      1.0  0.16848258711338984  0.3984836149422878  0.7731177234264006  1.0000
  S   S190      1.0  0.14614579504595515  0.4283901717690836  0.8131977210147903  1.0000
  S   S191      1.0  0.20304793914310512  0.34299589433903155  0.7073129745782111  1.0000
  S   S192      1.0  0.15938857848861518  0.3513788279406551  0.780349864210803  1.0000
  C   C1        1.0  0.20758848584529582  0.4818788907786575  0.883293912830756  1.0000
  C   C2        1.0  0.21839864656216892  0.47107608899589776  0.8498090442362721  1.0000
  C   C3        1.0  0.19958769753673947  0.4547793730775945  0.8279513728489016  1.0000
  C   C4        1.0  0.1699976924646469  0.4491086071098454  0.8396559605814872  1.0000
  C   C5        1.0  0.15924471596342837  0.4599346508520116  0.8731559308399559  1.0000
  C   C6        1.0  0.17810054938309036  0.47609890704468827  0.8950614546636831  1.0000
  H   H1        1.0  0.24121923865425313  0.47561328240560696  0.8405678889396547  1.0000
  H   H2        1.0  0.2078273311681478  0.44707307698294546  0.8017609140793082  1.0000
  H   H3        1.0  0.1363699350790395  0.4555680393865583  0.8823887954253989  1.0000
  H   H4        1.0  0.16997238628659658  0.48385844790061056  0.9212813683119103  1.0000
  C   C7        1.0  0.2174099610557249  0.6482131659475634  0.8398545219162515  1.0000
  C   C8        1.0  0.22836856640875858  0.6268406090223669  0.8635705713570049  1.0000
  C   C9        1.0  0.21300815295546263  0.6201177842899713  0.8968308053516663  1.0000
  C   C10       1.0  0.18710245643077023  0.6353018149694722  0.9068091252641026  1.0000
  C   C11       1.0  0.17612882568144883  0.656621694274532  0.8830666428314999  1.0000
  C   C12       1.0  0.19106012746405066  0.6628361672101939  0.849418593740056  1.0000
  H   H5        1.0  0.24888813996643983  0.6156378586339163  0.8563810921837359  1.0000
  H   H6        1.0  0.22162474750689476  0.6036772962453344  0.9151355762953711  1.0000
  H   H7        1.0  0.1560044649661502  0.6683149578478164  0.8906180536027429  1.0000
  H   H8        1.0  0.1821102819645761  0.6789560404814299  0.8309468643521079  1.0000
  C   C13       1.0  0.05969620609984694  0.7820683933543964  0.6993709882530661  1.0000
  C   C14       1.0  0.088793455598974  0.7730477057086498  0.6899303629284462  1.0000
  C   C15       1.0  0.1074528657560958  0.7615657799180978  0.7170723404527055  1.0000
  C   C16       1.0  0.0972113393718678  0.7595876175618024  0.7537733053473163  1.0000
  C   C17       1.0  0.06824892936216687  0.7689044880974654  0.763256164055659  1.0000
  C   C18       1.0  0.04942292860921982  0.7799707203752533  0.7360306883405942  1.0000
  H   H9        1.0  0.0967225879703999  0.7743555401125489  0.6615659857704792  1.0000
  H   H10       1.0  0.1295819460385221  0.7538860964498763  0.7094618556371515  1.0000
  H   H11       1.0  0.060360942331569425  0.7675193984558091  0.7916723068628243  1.0000
  H   H12       1.0  0.027059367656392386  0.7870328108681529  0.7434907858178863  1.0000
  C   C19       1.0  0.022688751162852627  0.3410664455211733  0.7207085368013967  1.0000
  C   C20       1.0  0.030209868289989172  0.3301097547574471  0.6861445187727279  1.0000
  C   C21       1.0  0.06037991435879331  0.32662279142459166  0.6753319780541156  1.0000
  C   C22       1.0  0.08329271386135506  0.3347986668426814  0.6985869704052594  1.0000
  C   C23       1.0  0.07591026344410512  0.3460584742887654  0.7330781290192181  1.0000
  C   C24       1.0  0.045606790247210593  0.34878495639355955  0.7443503508578488  1.0000
  H   H13       1.0  0.012833027505514405  0.32357918342136394  0.6680146896116806  1.0000
  H   H14       1.0  0.06595263517230476  0.3176329656032344  0.6488219098337314  1.0000
  H   H15       1.0  0.09351349977214829  0.35235183221914995  0.7512291719320783  1.0000
  H   H16       1.0  0.03998041304585698  0.35712817106721023  0.7712016746992747  1.0000
  C   C25       1.0  0.056373662447108286  0.5196498901663248  0.8911333599156865  1.0000
  C   C26       1.0  0.03837566924018421  0.5222982896897111  0.9229657669472684  1.0000
  C   C27       1.0  0.05069588877847098  0.5180714139768613  0.9577901492025309  1.0000
  C   C28       1.0  0.08122585117529037  0.5119720248044467  0.9607237749061998  1.0000
  C   C29       1.0  0.09883114582866748  0.5077942236729774  0.9289201099376765  1.0000
  C   C30       1.0  0.08642629859491469  0.5115321826144731  0.8940817235052111  1.0000
  H   H17       1.0  0.015202291406773316  0.5283663561145812  0.9208871268288312  1.0000
  H   H18       1.0  0.03688525740729021  0.5205790686547308  0.9824012059073385  1.0000
  H   H19       1.0  0.12202458194071032  0.501694541190022  0.9312665475603527  1.0000
  H   H20       1.0  0.10021734498802926  0.5086347938171788  0.8695174577547916  1.0000
  C   C31       1.0  0.9382673803367231  0.6462007946051753  0.7719708569135956  1.0000
  C   C32       1.0  0.93248354122303  0.6645747266000632  0.7420088692371762  1.0000
  C   C33       1.0  0.9289330788172605  0.6939907533175811  0.7471859868006653  1.0000
  C   C34       1.0  0.9312383193713563  0.7051802821935242  0.7823804120364831  1.0000
  C   C35       1.0  0.9359150581664  0.6867199188233523  0.8126475603883326  1.0000
  C   C36       1.0  0.9394987912796289  0.6571948181499268  0.8074449016245391  1.0000
  H   H21       1.0  0.931251508455083  0.6560581698832183  0.7145890161706386  1.0000
  H   H22       1.0  0.9247285827578393  0.7079972291715723  0.7238095483919663  1.0000
  H   H23       1.0  0.9376079440226983  0.6953011471619476  0.8399593722465455  1.0000
  H   H24       1.0  0.9437892850507218  0.6430442326356027  0.8307028018668059  1.0000
  C   C37       1.0  0.89947430271079  0.45640617250198107  0.7128965014774737  1.0000
  C   C38       1.0  0.8978748154346311  0.43501665928232064  0.7404240131874116  1.0000
  C   C39       1.0  0.8995175333179443  0.44225968338420046  0.7776122899353937  1.0000
  C   C40       1.0  0.9035577055899807  0.4708058917655229  0.7872994277460997  1.0000
  C   C41       1.0  0.9053111164625618  0.4921935655884331  0.7598143267712185  1.0000
  C   C42       1.0  0.9028810181732316  0.4850206331928998  0.7226584654803514  1.0000
  H   H25       1.0  0.8948536247523373  0.4129805669476682  0.7331031237063951  1.0000
  H   H26       1.0  0.8979988294970589  0.42571838714237986  0.7988713623752907  1.0000
  H   H27       1.0  0.9081223064370476  0.5143184075295539  0.7671720524837656  1.0000
  H   H28       1.0  0.9039982236807046  0.501629638788631  0.7014288604237955  1.0000
  C   C43       1.0  0.2204415626330142  0.813954528897972  0.5907111243321076  1.0000
  C   C44       1.0  0.2021055632189875  0.7949752504114289  0.5722351861926569  1.0000
  C   C45       1.0  0.19662876210995578  0.7675019886347989  0.5869259604583332  1.0000
  C   C46       1.0  0.2098425586953114  0.7588641338024495  0.6198559943938854  1.0000
  C   C47       1.0  0.22849920829894668  0.7776220236903026  0.6380978728132775  1.0000
  C   C48       1.0  0.2339005244594815  0.8051134879383366  0.6234334214568027  1.0000
  H   H29       1.0  0.19185784677248746  0.8014533098739235  0.5468216078722828  1.0000
  H   H30       1.0  0.18182066966965665  0.753129917377299  0.5731054571988956  1.0000
  H   H31       1.0  0.2391459576181721  0.770736093304377  0.6632372178439706  1.0000
  H   H32       1.0  0.24883874893537786  0.8192547715178017  0.6372058352460478  1.0000
  C   C49       1.0  0.17994901752150871  0.4476325236804463  0.5687083487652083  1.0000
  C   C50       1.0  0.17146284893912433  0.45070200721799136  0.6057649964268278  1.0000
  C   C51       1.0  0.18940501484607145  0.4390448776294679  0.6335792639156606  1.0000
  C   C52       1.0  0.2160898663659051  0.42477115194779214  0.6243901240243249  1.0000
  C   C53       1.0  0.2251475473318506  0.4227605480324607  0.58736490156978  1.0000
  C   C54       1.0  0.20692280432023977  0.4338578172259713  0.5595461020754091  1.0000
  H   H33       1.0  0.15073478393320416  0.4615346705381255  0.6129633500248564  1.0000
  H   H34       1.0  0.18282881424196265  0.4415350681222881  0.6621395118174336  1.0000
  H   H35       1.0  0.24601386698038008  0.4121981387918309  0.5801006679260953  1.0000
  H   H36       1.0  0.2139032945836326  0.4318994140326622  0.5309530012245377  1.0000
  C   C55       1.0  0.19853508102602133  0.6124704797768374  0.16991356836250907  1.0000
  C   C56       1.0  0.20924326640234125  0.5861412897507029  0.1830441831068134  1.0000
  C   C57       1.0  0.21524429352758526  0.5639902622167146  0.15841452792114907  1.0000
  C   C58       1.0  0.21037451567091187  0.5680120946492728  0.1206636457146748  1.0000
  C   C59       1.0  0.1990058420912601  0.5941390682433543  0.10765257606155898  1.0000
  C   C60       1.0  0.1931507433606787  0.6163533829839377  0.13225364615962484  1.0000
  H   H37       1.0  0.21366924862548253  0.5830317036766485  0.2120264200095528  1.0000
  H   H38       1.0  0.22412086062542205  0.5438396408195451  0.1685908324996741  1.0000
  H   H39       1.0  0.19565218648045737  0.5975735041555349  0.07851234147379804  1.0000
  H   H40       1.0  0.18507694868414387  0.636763857257265  0.12195583788100163  1.0000
  C   C61       1.0  0.22231214138797947  0.7060007266463756  0.3859494967134405  1.0000
  C   C62       1.0  0.2311751380947136  0.7345271270623178  0.389477014310658  1.0000
  C   C63       1.0  0.2136390954403667  0.7533409567045393  0.4105199383335771  1.0000
  C   C64       1.0  0.187564811107753  0.7434619195416792  0.428763933706032  1.0000
  C   C65       1.0  0.17893539726015767  0.7148122171451786  0.42576706936068176  1.0000
  C   C66       1.0  0.19604101885144262  0.6961840346564817  0.4038916237483827  1.0000
  H   H41       1.0  0.2514623361527662  0.7421682484990036  0.3754748739390734  1.0000
  H   H42       1.0  0.2203308432896936  0.7754893140306751  0.412475076739536  1.0000
  H   H43       1.0  0.15891103149396413  0.7070277620853666  0.44017679546364563  1.0000
  H   H44       1.0  0.1892259324981698  0.6741123122601593  0.4013716765041343  1.0000
  C   C67       1.0  0.21212531677897056  0.511524073717714  0.3315536695820886  1.0000
  C   C68       1.0  0.18269987361564147  0.5135215653563915  0.3190792602167198  1.0000
  C   C69       1.0  0.16284054320057428  0.49038828577010685  0.3241041267036522  1.0000
  C   C70       1.0  0.17242648199298125  0.465150387850802  0.34159455237448694  1.0000
  C   C71       1.0  0.20222390801944123  0.46264129498745044  0.35246064028838336  1.0000
  C   C72       1.0  0.22199615519949586  0.4857989204556467  0.3475479988358155  1.0000
  H   H45       1.0  0.17508424086279248  0.5329225833134676  0.30593977119398824  1.0000
  H   H46       1.0  0.13986836097164035  0.49238352841705146  0.3153946367897679  1.0000
  H   H47       1.0  0.21010195154708283  0.44285996100148317  0.36476285617576054  1.0000
  H   H48       1.0  0.24486216036106195  0.48393859797431565  0.3567510571476859  1.0000
  C   C73       1.0  0.9679864778806503  0.43138870456200634  0.4600688827585785  1.0000
  C   C74       1.0  0.9546556340914644  0.4362439090433715  0.49467655930932436  1.0000
  C   C75       1.0  0.9646388008997439  0.42107679055070296  0.5258810351291603  1.0000
  C   C76       1.0  0.9882458872472603  0.40147938971083846  0.5224239566004298  1.0000
  C   C77       1.0  0.002260699784589537  0.39746224738642555  0.48809845376109134  1.0000
  C   C78       1.0  0.9919413037378828  0.4121705382774508  0.4569319695347293  1.0000
  H   H49       1.0  0.9360005872135376  0.45098134158021197  0.49718052230070486  1.0000
  H   H50       1.0  0.9539941443105778  0.4245496765160688  0.5524966086992201  1.0000
  H   H51       1.0  0.02054946521800316  0.3823789760895339  0.48538638664423256  1.0000
  H   H52       1.0  0.0025825385400957135  0.40865445202628337  0.4304517314640743  1.0000
  C   C79       1.0  0.028837766523681863  0.3186968961422557  0.42097888027742764  1.0000
  C   C80       1.0  0.04328528975619239  0.2958538336575241  0.4385991035029434  1.0000
  C   C81       1.0  0.06964330927395235  0.30049384543513724  0.45779175048659043  1.0000
  C   C82       1.0  0.08203362220534793  0.3278993283036531  0.4587768566447241  1.0000
  C   C83       1.0  0.06754713935181256  0.3508911026014813  0.44135500519378884  1.0000
  C   C84       1.0  0.040715920278008966  0.3463001622987593  0.4228040228262867  1.0000
  H   H53       1.0  0.0340579931596221  0.2744900773166745  0.43744502306301986  1.0000
  H   H54       1.0  0.08072641807037684  0.2826967635043184  0.47134635340411424  1.0000
  H   H55       1.0  0.0766459964103412  0.3722267516068372  0.4427582564316033  1.0000
  H   H56       1.0  0.029053983144798456  0.3640692382208388  0.41034372557120274  1.0000
  C   C85       1.0  0.9920505350939184  0.7610994836676935  0.5191790094898197  1.0000
  C   C86       1.0  0.9629647694679606  0.7604180877259927  0.5053289927783117  1.0000
  C   C87       1.0  0.938027182474003  0.7581484603792829  0.5296899670714229  1.0000
  C   C88       1.0  0.9422553768077138  0.7573458661745378  0.5677983826344981  1.0000
  C   C89       1.0  0.971297437999041  0.7583480802903819  0.5813352655643166  1.0000
  C   C90       1.0  0.9961064647678988  0.7598183817420411  0.5571777184724606  1.0000
  H   H57       1.0  0.9596655156709198  0.7614985679290972  0.4759548574626257  1.0000
  H   H58       1.0  0.9155687731054306  0.7574755964193806  0.5190598085818643  1.0000
  H   H59       1.0  0.9748723892547851  0.75783777823657  0.6105123169549896  1.0000
  H   H60       1.0  0.018362433824804736  0.760214474503794  0.5682251757153628  1.0000
  C   C91       1.0  0.061306066400451664  0.8734452585998921  0.3771794161498163  1.0000
  C   C92       1.0  0.06781300556916015  0.9027170195076657  0.376386062169262  1.0000
  C   C93       1.0  0.09194057130832722  0.9131771254580809  0.39618816376160676  1.0000
  C   C94       1.0  0.11014646138842027  0.8943399951107894  0.4161265922190767  1.0000
  C   C95       1.0  0.10387919344005256  0.864980951852267  0.41672519151019  1.0000
  C   C96       1.0  0.07922286784972576  0.8545972152600335  0.3976323854946757  1.0000
  H   H61       1.0  0.05413110872017901  0.917379566680172  0.3605893439037768  1.0000
  H   H62       1.0  0.09679571197300847  0.935856815865455  0.395632428141883  1.0000
  H   H63       1.0  0.11788212199972879  0.8503573486496684  0.432130620644692  1.0000
  H   H64       1.0  0.07438583866438431  0.8320468298310356  0.3984520187536162  1.0000
  C   C97       1.0  0.9983447921604838  0.592249661425527  0.035456810809735506  1.0000
  C   C98       1.0  0.9704459700662644  0.6053317829188025  0.04119203784683845  1.0000
  C   C99       1.0  0.9485167788089967  0.6038780314602084  0.014170201031190821  1.0000
  C   C100      1.0  0.9545077372274724  0.5894153016839767  0.9814111801683396  1.0000
  C   C101      1.0  0.982354854924372  0.5762932562463398  0.9757791441253553  1.0000
  C   C102      1.0  0.004239695721712122  0.5777362810299354  0.0028082692132751497  1.0000
  H   H65       1.0  0.965813821549884  0.6167456362444106  0.06630462092475042  1.0000
  H   H66       1.0  0.926916410476788  0.6140272456846488  0.018598049760000235  1.0000
  H   H67       1.0  0.9867949314408461  0.564801464049287  0.9507416098142354  1.0000
  H   H68       1.0  0.025592937822608963  0.5672349798868433  0.9987833360540357  1.0000
  C   C103      1.0  0.07107837105668935  0.5572982667039749  0.2684244801357923  1.0000
  C   C104      1.0  0.05453961453329703  0.580642955802015  0.2813107269940468  1.0000
  C   C105      1.0  0.06559279042643351  0.5968589877541949  0.31007930111739357  1.0000
  C   C106      1.0  0.09333940073106459  0.5900072235557622  0.32520383165450617  1.0000
  C   C107      1.0  0.10854854071140685  0.5654088835287038  0.31411840516174927  1.0000
  C   C108      1.0  0.09744426564022124  0.5490233888644828  0.2857277722974304  1.0000
  H   H69       1.0  0.033942658415637705  0.5868802708157652  0.2681818093954158  1.0000
  H   H70       1.0  0.05366350447438095  0.6156425917714614  0.3190835768678584  1.0000
  H   H71       1.0  0.12959148919406033  0.5596655153786992  0.3263677405099947  1.0000
  H   H72       1.0  0.11015130368554704  0.5308242546176799  0.27596702769963805  1.0000
  C   C109      1.0  0.9488537439850745  0.479590178540496  0.1958624124626149  1.0000
  C   C110      1.0  0.9800375209432733  0.47819572118029774  0.19929299872043899  1.0000
  C   C111      1.0  0.9933873512774214  0.4547635604308741  0.21712026024102293  1.0000
  C   C112      1.0  0.9755830640572507  0.43296496356682557  0.23293239328887086  1.0000
  C   C113      1.0  0.9443011180691785  0.4344748416615423  0.23039423266344686  1.0000
  C   C114      1.0  0.9309798003242874  0.4575442471050364  0.21130482925885344  1.0000
  H   H73       1.0  0.9941046308308686  0.49496043366501447  0.18804000053461253  1.0000
  H   H74       1.0  0.01756296341204111  0.45380707479181576  0.21919173559489422  1.0000
  H   H75       1.0  0.9303998932712562  0.41761656929716806  0.24252217593375672  1.0000
  H   H76       1.0  0.9068214299722945  0.45848048170397093  0.20900964693399698  1.0000
  C   C115      1.0  0.9767022729629008  0.6672075716202761  0.24700921603641243  1.0000
  C   C116      1.0  0.9973887980131357  0.6534087831686725  0.2696150567036519  1.0000
  C   C117      1.0  0.014571307428735025  0.6694056239229781  0.2936452439179598  1.0000
  C   C118      1.0  0.011653651747495886  0.6991581034295946  0.2945975941986106  1.0000
  C   C119      1.0  0.9906578685712221  0.7129710451094549  0.272427870706341  1.0000
  C   C120      1.0  0.9731455268360113  0.6969567141219815  0.2486755359024378  1.0000
  H   H77       1.0  0.9997274635841119  0.6303938353977352  0.2690307422062231  1.0000
  H   H78       1.0  0.030170561297850673  0.6588058675721734  0.3117044223205618  1.0000
  H   H79       1.0  0.9884746588018429  0.7360143464821522  0.2728702609685698  1.0000
  H   H80       1.0  0.9571603955627374  0.7076434320777486  0.23109537936847663  1.0000
  C   C121      1.0  0.8015064883497883  0.2797233328028882  0.6829616723678035  1.0000
  C   C122      1.0  0.813965712755736  0.2612135486867049  0.6569848474297062  1.0000
  C   C123      1.0  0.8386561394386343  0.26988640337601333  0.6347887875048819  1.0000
  C   C124      1.0  0.8512666696817711  0.29702055217248424  0.6387066469492408  1.0000
  C   C125      1.0  0.8391786962237248  0.31547572366283705  0.6650058040897909  1.0000
  C   C126      1.0  0.8142256523516094  0.30687943327901135  0.6869623816792564  1.0000
  H   H81       1.0  0.8044945006625384  0.24028268518101853  0.6537171184377217  1.0000
  H   H82       1.0  0.8481274515309831  0.2554263815514356  0.6147422126048365  1.0000
  H   H83       1.0  0.8485169222714354  0.3366413283983025  0.6678027905397895  1.0000
  H   H84       1.0  0.8045989051793795  0.3214161164474334  0.7068194287240229  1.0000
  C   C127      1.0  0.2917254061592482  0.24624484482066603  0.750549520987981  1.0000
  C   C128      1.0  0.30049270312622534  0.25738315915676824  0.7840567982211375  1.0000
  C   C129      1.0  0.28428592329003904  0.27992445881440353  0.7999052952574839  1.0000
  C   C130      1.0  0.25944648402990134  0.2917493507586308  0.7821716441931162  1.0000
  C   C131      1.0  0.25070666337829584  0.28071876506204313  0.7485079038922777  1.0000
  C   C132      1.0  0.266723730341458  0.25785242251025514  0.7328306790247889  1.0000
  H   H85       1.0  0.31967436693505746  0.24854868318742016  0.7980146719109661  1.0000
  H   H86       1.0  0.2910952634897386  0.2882542156588187  0.8259993319437752  1.0000
  H   H87       1.0  0.2312690731199892  0.28937956026526696  0.7349730693433024  1.0000
  H   H88       1.0  0.25977702723816765  0.24923492795815394  0.7069689751360518  1.0000
  C   C133      1.0  0.61997467154128  0.21897509743009771  0.8510793149095496  1.0000
  C   C134      1.0  0.6289440194962641  0.22096422586996858  0.8137907148915485  1.0000
  C   C135      1.0  0.6534313412151973  0.20477484557098463  0.8005902010259847  1.0000
  C   C136      1.0  0.6690370080441786  0.186722895102009  0.8247146229656118  1.0000
  C   C137      1.0  0.6596399025521296  0.18437023486016524  0.8617275899081759  1.0000
  C   C138      1.0  0.6351946286349366  0.20041861558002586  0.8748746470183768  1.0000
  H   H89       1.0  0.6169783020603924  0.23499563650599187  0.7951482130604294  1.0000
  H   H90       1.0  0.660042230474228  0.20604035076012717  0.7717727702774206  1.0000
  H   H91       1.0  0.6714768782540856  0.17029767535732654  0.8804849370674694  1.0000
  H   H92       1.0  0.6283335314023105  0.19851149675094754  0.9035841830141821  1.0000
  C   C139      1.0  0.45731430446056354  0.20601868473380489  0.9504378308297862  1.0000
  C   C140      1.0  0.4349390872963708  0.1921596911210492  0.9313001830993287  1.0000
  C   C141      1.0  0.4165425566398836  0.20783740272932882  0.9075902663134644  1.0000
  C   C142      1.0  0.41965828934670113  0.2375322235974252  0.9043232354627969  1.0000
  C   C143      1.0  0.4409806989035027  0.2516191540759665  0.9249553097895304  1.0000
  C   C144      1.0  0.4601905703895383  0.23577642682792085  0.9475938755240592  1.0000
  H   H93       1.0  0.4322505619493271  0.16923447526375934  0.9340511653467624  1.0000
  H   H94       1.0  0.3998198576522637  0.1969630907872758  0.8919027988043062  1.0000
  H   H95       1.0  0.4432913464141159  0.27462499992197864  0.9224302904555164  1.0000
  H   H96       1.0  0.47705458268959244  0.2466591945427319  0.9628536582581028  1.0000
  C   C145      1.0  0.30771041370263474  0.8592593872102741  0.7131406592394207  1.0000
  C   C146      1.0  0.3078058683918878  0.8617876614461029  0.751418682798141  1.0000
  C   C147      1.0  0.2940690611258048  0.840721830096895  0.7741906452954667  1.0000
  C   C148      1.0  0.2801422326975174  0.817065336486329  0.7588352487297862  1.0000
  C   C149      1.0  0.2806407793494154  0.8141409732615627  0.7205561562737848  1.0000
  C   C150      1.0  0.2943817955604376  0.8352761700114555  0.6977306361054697  1.0000
  H   H97       1.0  0.31818830104733903  0.8801298080505607  0.7635437627668006  1.0000
  H   H98       1.0  0.2939104795347164  0.842987686326179  0.803802567460205  1.0000
  H   H99       1.0  0.2702615332497402  0.7957433037369656  0.7085889684212948  1.0000
  H   H100      1.0  0.29465178606375525  0.8330974834986807  0.6681244705579076  1.0000
  C   C151      1.0  0.35683545501991293  0.053676666898677006  0.7486686969081102  1.0000
  C   C152      1.0  0.387414361619927  0.05072502811667645  0.7555901658408128  1.0000
  C   C153      1.0  0.40241989897107106  0.07172151547237482  0.7750993022030322  1.0000
  C   C154      1.0  0.3871089082295555  0.09618809460506823  0.7867191712254292  1.0000
  C   C155      1.0  0.3568619489326072  0.09989449462735243  0.7782712586840032  1.0000
  C   C156      1.0  0.34166767473513104  0.07845446092939001  0.7596480946421663  1.0000
  H   H101      1.0  0.3995609297694018  0.03229634325211417  0.7458890916559658  1.0000
  H   H102      1.0  0.4259257706221135  0.06898899973594197  0.7811519249645255  1.0000
  H   H103      1.0  0.3448625184431595  0.11861366550934282  0.7876599328384511  1.0000
  H   H104      1.0  0.3179126263196366  0.08056224231376086  0.7547757906963874  1.0000
  C   C157      1.0  0.8110847753615558  0.8833385889048481  0.6805421553874166  1.0000
  C   C158      1.0  0.8275023073307565  0.9045105444555147  0.6976926390208946  1.0000
  C   C159      1.0  0.8574395154531039  0.8993380088572184  0.7070888761631404  1.0000
  C   C160      1.0  0.8710017069909858  0.8730022012150754  0.6994800260352548  1.0000
  C   C161      1.0  0.8544957010508907  0.85177943673067  0.6825220382758214  1.0000
  C   C162      1.0  0.8246084337622938  0.8569713400717289  0.6729914927249365  1.0000
  H   H105      1.0  0.8171851942517762  0.9248997875660001  0.7037358080706823  1.0000
  H   H106      1.0  0.8700865019464251  0.9158206286668985  0.7203418872106837  1.0000
  H   H107      1.0  0.8647118315548848  0.8313913345058382  0.6767410799353331  1.0000
  H   H108      1.0  0.8118246144088516  0.8404918751065636  0.6599570049632074  1.0000
  C   C163      1.0  0.7991333151331369  0.04408882367674227  0.7493326772520926  1.0000
  C   C164      1.0  0.822393711844309  0.058754659343147386  0.7659284886038793  1.0000
  C   C165      1.0  0.8295999966247012  0.08678164705627062  0.7544137932004917  1.0000
  C   C166      1.0  0.8128096795141622  0.10058686799806772  0.7272627247285393  1.0000
  C   C167      1.0  0.789305129903781  0.08606750660644283  0.7109494947720382  1.0000
  C   C168      1.0  0.7829158097772895  0.057601808287923495  0.7213352220819444  1.0000
  H   H109      1.0  0.8350220746245299  0.04834657536749809  0.7875043216098032  1.0000
  H   H110      1.0  0.8477925576839735  0.09796106420273788  0.7670825145294969  1.0000
  H   H111      1.0  0.7761877342031526  0.09675401872201059  0.6902434727769803  1.0000
  H   H112      1.0  0.7650957734071607  0.04637720939507117  0.7081838665932682  1.0000
  C   C169      1.0  0.5443310499883536  0.07803757886676022  0.9771202016933653  1.0000
  C   C170      1.0  0.573992829772893  0.07402806142051266  0.964662235697865  1.0000
  C   C171      1.0  0.5961378964905286  0.09404766589971843  0.9727369204101606  1.0000
  C   C172      1.0  0.5883770548857674  0.11850815443019586  0.9922366344080616  1.0000
  C   C173      1.0  0.5585269826457097  0.12291508033533734  0.0036464310572508207  1.0000
  C   C174      1.0  0.5365294541204768  0.10263282985367517  0.9962624445077691  1.0000
  H   H113      1.0  0.5798999098274392  0.0556598388963776  0.9484662947369791  1.0000
  H   H114      1.0  0.6190665198620086  0.0909423460517926  0.9630779849352213  1.0000
  H   H115      1.0  0.5524076722293009  0.14172734554280314  0.018779229892445404  1.0000
  H   H116      1.0  0.5135994837605967  0.10584354495340698  0.005832639914642002  1.0000
  C   C175      1.0  0.48447593144244644  0.9314960934119283  0.8624035404113  1.0000
  C   C176      1.0  0.472454438913226  0.919491211268109  0.8310659253835232  1.0000
  C   C177      1.0  0.4413730262644759  0.9187857214536815  0.8266459698759024  1.0000
  C   C178      1.0  0.42206192340005916  0.929019929029274  0.8542381573202413  1.0000
  C   C179      1.0  0.43396292616932997  0.9401998119316277  0.8862905197977942  1.0000
  C   C180      1.0  0.4652413963412504  0.9418377173563232  0.8901349946972741  1.0000
  H   H117      1.0  0.4872072663811261  0.9107878800798034  0.8100548728586084  1.0000
  H   H118      1.0  0.43238418110282  0.9098452298398796  0.8020792569955885  1.0000
  H   H119      1.0  0.4191049493459997  0.9480454790434969  0.9077879904771278  1.0000
  H   H120      1.0  0.4744256912865616  0.9508973827390459  0.91454885870955  1.0000
  C   C181      1.0  0.649791151913623  0.9829751482600483  0.8619427299079463  1.0000
  C   C182      1.0  0.6252384842618885  0.9692425624321702  0.8468292606239343  1.0000
  C   C183      1.0  0.6269707101012406  0.9596063357968163  0.8106035375689223  1.0000
  C   C184      1.0  0.6530487073866479  0.9640018725200626  0.7890558166968966  1.0000
  C   C185      1.0  0.6779059927568646  0.9772214666109548  0.8043264487258429  1.0000
  C   C186      1.0  0.6763072037001161  0.9866203329649554  0.8408571178993809  1.0000
  H   H121      1.0  0.604819028315837  0.9659396417252228  0.8629546991258772  1.0000
  H   H122      1.0  0.6081211049122155  0.9486013788721568  0.7993752151329419  1.0000
  H   H123      1.0  0.6982935499221279  0.9802646493582348  0.7879603377864011  1.0000
  H   H124      1.0  0.6954974741514592  0.9968237609845977  0.8526619615498621  1.0000
  C   C187      1.0  0.26133210486055636  0.2855733899325585  0.5092807395044889  1.0000
  C   C188      1.0  0.2856590007958119  0.30444381269707993  0.5096133805049996  1.0000
  C   C189      1.0  0.2836078685698329  0.33145484571083944  0.49241398359577526  1.0000
  C   C190      1.0  0.256943544370919  0.33991782983866314  0.4757653931948248  1.0000
  C   C191      1.0  0.23236608864837446  0.3213332550604503  0.4761058374936565  1.0000
  C   C192      1.0  0.2346960799352858  0.29403187513806395  0.49251738606454926  1.0000
  H   H125      1.0  0.3058206196214754  0.29852169012374935  0.5238050830691687  1.0000
  H   H126      1.0  0.302488994252436  0.34601517131790177  0.49255406230623466  1.0000
  H   H127      1.0  0.21176952560685244  0.32775956995859784  0.4630491960544203  1.0000
  H   H128      1.0  0.21590815342378927  0.27938511726062293  0.49197929526425493  1.0000
  C   C193      1.0  0.4240338993666058  0.25921207136103847  0.609296008397643  1.0000
  C   C194      1.0  0.44781965649196315  0.27420192305940205  0.6243387435427593  1.0000
  C   C195      1.0  0.4601020164925039  0.2648316342050175  0.6576530288902357  1.0000
  C   C196      1.0  0.44813154984075343  0.240847185059247  0.6763484251199071  1.0000
  C   C197      1.0  0.42470526000150205  0.2255476437308012  0.6609677698042656  1.0000
  C   C198      1.0  0.412985758389375  0.23444248599573334  0.6271160584037877  1.0000
  H   H129      1.0  0.4564153896043083  0.2933445002060375  0.6105086775457099  1.0000
  H   H130      1.0  0.4782287998340102  0.2766791087865702  0.6694497593304428  1.0000
  H   H131      1.0  0.4158264148377247  0.20668199384676597  0.6749374830852993  1.0000
  H   H132      1.0  0.39491211130755294  0.2225614629872114  0.6153430767513065  1.0000
  C   C199      1.0  0.8460581967516171  0.2645443691953281  0.40466592212225505  1.0000
  C   C200      1.0  0.8226737446672588  0.27944343000373334  0.38785665474168574  1.0000
  C   C201      1.0  0.8281079981112359  0.30577780002238536  0.3696889628895402  1.0000
  C   C202      1.0  0.8570254355605651  0.3174635528618363  0.368052527574871  1.0000
  C   C203      1.0  0.8805278826798715  0.30273757018739045  0.38506759540197727  1.0000
  C   C204      1.0  0.8749955202596527  0.27640094469093934  0.40350141300977505  1.0000
  H   H133      1.0  0.8003512662011341  0.27084381685665126  0.3886354153978439  1.0000
  H   H134      1.0  0.8098832153776965  0.317057647080453  0.35656535863603556  1.0000
  H   H135      1.0  0.9030227813242722  0.3113824789645548  0.38343023028852263  1.0000
  H   H136      1.0  0.8932897121663792  0.2649030799859747  0.4161195755685079  1.0000
  C   C205      1.0  0.697711867707036  0.21857603896210992  0.5235558046723454  1.0000
  C   C206      1.0  0.6901275108121746  0.18973199587095185  0.5207277016624564  1.0000
  C   C207      1.0  0.688439166981371  0.17209377891520955  0.5523268073400955  1.0000
  C   C208      1.0  0.6955639440330811  0.1829271120055698  0.5866554488479995  1.0000
  C   C209      1.0  0.7036365497477138  0.21171489596937884  0.5895236939178337  1.0000
  C   C210      1.0  0.7042179413239692  0.229698760113613  0.5579816472841866  1.0000
  H   H137      1.0  0.6853217170185677  0.1810173783526838  0.494162508312127  1.0000
  H   H138      1.0  0.6820454684388153  0.14992336902448408  0.5500048047337421  1.0000
  H   H139      1.0  0.7091574979553855  0.2201333800717302  0.6160453665358789  1.0000
  H   H140      1.0  0.7103201081067445  0.251970070633853  0.5601411725404732  1.0000
  C   C211      1.0  0.517912024092629  0.26019554347167057  0.15160945283594585  1.0000
  C   C212      1.0  0.5175663996878246  0.2875977843656124  0.1353533537429557  1.0000
  C   C213      1.0  0.5357622751846549  0.2938876019058257  0.10416525504942697  1.0000
  C   C214      1.0  0.5536380029861961  0.2725487631040681  0.0884333649215836  1.0000
  C   C215      1.0  0.5540877793954728  0.24514889597310166  0.10476418823793843  1.0000
  C   C216      1.0  0.5363020807161376  0.23899671452491814  0.13637841264778733  1.0000
  H   H141      1.0  0.503382651836049  0.30404985109321186  0.14707439836320377  1.0000
  H   H142      1.0  0.5354587176676857  0.3151383553191116  0.09172617827829543  1.0000
  H   H143      1.0  0.5685178233092295  0.22880020925311823  0.0934199979810233  1.0000
  H   H144      1.0  0.536372156963847  0.2176695055648241  0.1485347636570432  1.0000
  C   C217      1.0  0.47150100884207374  0.21551453671015638  0.3828901356520911  1.0000
  C   C218      1.0  0.45092090404623214  0.21061521384925944  0.35521984232399434  1.0000
  C   C219      1.0  0.41995130404106634  0.21197684071522127  0.3632821196558291  1.0000
  C   C220      1.0  0.4095923775241479  0.21842290542486756  0.3989018405111597  1.0000
  C   C221      1.0  0.430205033337995  0.22415050884198767  0.42618483049161865  1.0000
  C   C222      1.0  0.4610928839434849  0.22252654709758452  0.41825130382986986  1.0000
  H   H145      1.0  0.45884848762520763  0.20529690353964056  0.32782476633758467  1.0000
  H   H146      1.0  0.40406152646220767  0.20764401879420857  0.34203495329920247  1.0000
  H   H147      1.0  0.4224504395928674  0.22993668258948075  0.45342056939279585  1.0000
  H   H148      1.0  0.4769586017683884  0.226630825020072  0.43962570474924106  1.0000
  C   C223      1.0  0.6513753479521165  0.2391588058331275  0.28651169107404745  1.0000
  C   C224      1.0  0.6511621011591127  0.210423933334695  0.27662347027563355  1.0000
  C   C225      1.0  0.6759805419496882  0.19300482103971472  0.2840303232898713  1.0000
  C   C226      1.0  0.7005607630415498  0.20416609648233613  0.3022091861256667  1.0000
  C   C227      1.0  0.7007131563003135  0.2328838283952354  0.3121462176923787  1.0000
  C   C228      1.0  0.6762710190717147  0.25051682260146907  0.3037744879565117  1.0000
  H   H149      1.0  0.6319836958294346  0.20160119278970132  0.2631179328322533  1.0000
  H   H150      1.0  0.675867099684315  0.17076462772138995  0.27635185919132166  1.0000
  H   H151      1.0  0.7198679212143875  0.24159942514828558  0.32580887472423553  1.0000
  H   H152      1.0  0.6764715087605471  0.27279055484548526  0.311298459220201  1.0000
  C   C229      1.0  0.3534180480120322  0.8944831797402105  0.4687418283703499  1.0000
  C   C230      1.0  0.329565998368133  0.87940689482367  0.48583939409267124  1.0000
  C   C231      1.0  0.30613361415134455  0.8689597700979259  0.4648149554144112  1.0000
  C   C232      1.0  0.3068151324388484  0.8730551547685782  0.4265156807899235  1.0000
  C   C233      1.0  0.33095260990491293  0.8876925974588183  0.40933847645270827  1.0000
  C   C234      1.0  0.3541191356655473  0.8986446174467994  0.4304780564240011  1.0000
  H   H153      1.0  0.32889770136425817  0.8761881185076823  0.5154485862714734  1.0000
  H   H154      1.0  0.2875210846194477  0.8577812669807064  0.47826013299241094  1.0000
  H   H155      1.0  0.3315471119300784  0.8908206329186981  0.37970057987032085  1.0000
  H   H156      1.0  0.3727108689247849  0.9099071648032261  0.41709339626712977  1.0000
  C   C235      1.0  0.47385402440271546  0.9885620897550167  0.580934644592768  1.0000
  C   C236      1.0  0.44776810188372934  0.9937637558661708  0.6020334476921607  1.0000
  C   C237      1.0  0.44309409375437186  0.9794711332596499  0.6361260088907242  1.0000
  C   C238      1.0  0.4640422460458775  0.9593378281555422  0.6484928033082803  1.0000
  C   C239      1.0  0.489979787315428  0.954041175522841  0.627216953907082  1.0000
  C   C240      1.0  0.49503944087212337  0.9688682743763196  0.5937086155556216  1.0000
  H   H157      1.0  0.43153595540449863  0.009267123000022082  0.5923806194152857  1.0000
  H   H158      1.0  0.42333860947711344  0.9841249434524106  0.6527422028019404  1.0000
  H   H159      1.0  0.5060828242636298  0.938276752871321  0.6363579021168576  1.0000
  H   H160      1.0  0.5152053233951871  0.9648511182292268  0.5773979211154473  1.0000
  C   C241      1.0  0.353953638788872  0.06835945917367336  0.4813859754606797  1.0000
  C   C242      1.0  0.3371588696864605  0.09329764851194594  0.47573874767986407  1.0000
  C   C243      1.0  0.33711649920342185  0.11490801742423919  0.5019262273250665  1.0000
  C   C244      1.0  0.353389416366215  0.11140018456684399  0.5341580424134994  1.0000
  C   C245      1.0  0.3692714610035718  0.0859794884195635  0.540469398172499  1.0000
  C   C246      1.0  0.3700141223493803  0.06470258642131022  0.5137854626798128  1.0000
  H   H161      1.0  0.3245934004952289  0.096161013654944  0.45078069599882065  1.0000
  H   H162      1.0  0.32425544438973314  0.13412967649282448  0.4972433136557957  1.0000
  H   H163      1.0  0.38191941998897516  0.08314368809239091  0.565377209383961  1.0000
  H   H164      1.0  0.383189140833263  0.045620487521375486  0.5183137794253238  1.0000
  C   C247      1.0  0.8722989038629175  0.8647740337525498  0.4401454548855407  1.0000
  C   C248      1.0  0.8578207011372257  0.8557346862353946  0.408658400151883  1.0000
  C   C249      1.0  0.867890350460292  0.8312373109167384  0.39034388463309033  1.0000
  C   C250      1.0  0.8925943110505093  0.8158253701860005  0.4032829131806019  1.0000
  C   C251      1.0  0.9063275242446186  0.8242590240946023  0.4355541726012627  1.0000
  C   C252      1.0  0.8964485052991162  0.8488642523662063  0.4536687231973682  1.0000
  H   H165      1.0  0.8391479097957898  0.8677998485366404  0.3979066566422137  1.0000
  H   H166      1.0  0.8570269024461643  0.8247588040267505  0.3655029463924288  1.0000
  H   H167      1.0  0.9246420390327078  0.8118607048038678  0.44653284669390386  1.0000
  H   H168      1.0  0.9080095344996985  0.8558494123992786  0.4776610272625084  1.0000
  C   C253      1.0  0.71708550534523  0.9636243743831054  0.4982376468772837  1.0000
  C   C254      1.0  0.7351870042755987  0.987998964990565  0.4956779844356407  1.0000
  C   C255      1.0  0.7383453949290154  0.005374009434309768  0.5263278435330591  1.0000
  C   C256      1.0  0.7243694189522168  0.9976749618456225  0.5600511992170519  1.0000
  C   C257      1.0  0.7051260622116988  0.9740520583200322  0.5621313195199625  1.0000
  C   C258      1.0  0.7010057854527357  0.9573546959183801  0.530984153226668  1.0000
  H   H169      1.0  0.7473559879976666  0.9931011324096335  0.4703928554250146  1.0000
  H   H170      1.0  0.7530206147479843  0.02378652290149952  0.5243821439573636  1.0000
  H   H171      1.0  0.6934854821885149  0.9685611036546228  0.5877681400279676  1.0000
  H   H172      1.0  0.6865452209017304  0.9387586549225339  0.5329082043263793  1.0000
  C   C259      1.0  0.802230540421811  0.042381409107871804  0.39456764676214645  1.0000
  C   C260      1.0  0.7774113771643467  0.03512080367474102  0.4171095386353548  1.0000
  C   C261      1.0  0.762899888508563  0.05610630143569173  0.43810094910126307  1.0000
  C   C262      1.0  0.7728960276486276  0.08450180141609957  0.4359917795219291  1.0000
  C   C263      1.0  0.7976712268142665  0.09175188563086964  0.41334825717813256  1.0000
  C   C264      1.0  0.8123357581211215  0.07069672057653897  0.3926524142544387  1.0000
  H   H173      1.0  0.7694718784387501  0.013325023160845495  0.4181208654864803  1.0000
  H   H174      1.0  0.743896440984367  0.050405226572316504  0.4558372713389137  1.0000
  H   H175      1.0  0.8060608506031489  0.11340978837756525  0.41246291746563074  1.0000
  H   H176      1.0  0.8317761518929022  0.0762729144657357  0.37552434621511965  1.0000
  C   C265      1.0  0.5702391744346333  0.9833943597148199  0.14626321241031967  1.0000
  C   C266      1.0  0.5919326631983662  0.9619012920629393  0.14302949569321496  1.0000
  C   C267      1.0  0.5944769636984947  0.946166705277373  0.11066336547930944  1.0000
  C   C268      1.0  0.5759554222957212  0.9524078094239747  0.08095770519034251  1.0000
  C   C269      1.0  0.5546952772270386  0.9743832938867852  0.08375800032698355  1.0000
  C   C270      1.0  0.5514694715109326  0.9895094949643609  0.11668386606182998  1.0000
  H   H177      1.0  0.6066315938240693  0.9571077861892839  0.16558400653360833  1.0000
  H   H178      1.0  0.6109275098273288  0.9291906863673489  0.1086615834773379  1.0000
  H   H179      1.0  0.5401873378156513  0.9791334862287508  0.060931524634974865  1.0000
  H   H180      1.0  0.5344809821069206  0.005936936115758629  0.11918899512361683  1.0000
  C   C271      1.0  0.644615426721514  0.08374311434106807  0.2616431389908445  1.0000
  C   C272      1.0  0.625023987299922  0.07355651025045873  0.23546467743171012  1.0000
  C   C273      1.0  0.5991693324397637  0.0887911065684789  0.22662565400311102  1.0000
  C   C274      1.0  0.5929277951587122  0.1148012698560998  0.24323940946239223  1.0000
  C   C275      1.0  0.6132884163476348  0.1260788232371844  0.2679818127598235  1.0000
  C   C276      1.0  0.6391895884255338  0.11044740756534988  0.277312549404386  1.0000
  H   H181      1.0  0.6293126162711224  0.05349511223706238  0.2224397459795136  1.0000
  H   H182      1.0  0.5836995902453324  0.08005176810177765  0.20733995583444348  1.0000
  H   H183      1.0  0.6087413859975818  0.14634453708330034  0.28065633376474813  1.0000
  H   H184      1.0  0.6543286594777604  0.11858244137493679  0.2974484923934109  1.0000
  C   C277      1.0  0.5675968986726684  0.9610651824856837  0.35783530940937736  1.0000
  C   C278      1.0  0.5518800277842889  0.9645416388708148  0.32516081172853545  1.0000
  C   C279      1.0  0.520933098599352  0.9699049845550006  0.32638981859195254  1.0000
  C   C280      1.0  0.5055448806720152  0.9723563876929819  0.3602521965669618  1.0000
  C   C281      1.0  0.5212222947502699  0.9689640269925522  0.3930391475900585  1.0000
  C   C282      1.0  0.552222669787772  0.9630959158839874  0.391823370029582  1.0000
  H   H185      1.0  0.5634135942828169  0.9625950528193445  0.2988144358935577  1.0000
  H   H186      1.0  0.5088396693606604  0.9718489990278298  0.3010053015113366  1.0000
  H   H187      1.0  0.5095140743418254  0.9709321384453179  0.4193000052661453  1.0000
  H   H188      1.0  0.5642458403571748  0.9604583900861521  0.4172036505612313  1.0000
  C   C283      1.0  0.7197113543108131  0.9145499501159596  0.23079067342958107  1.0000
  C   C284      1.0  0.7327566395482106  0.9338769858263593  0.25447744985423026  1.0000
  C   C285      1.0  0.7539958372206288  0.9243233838347417  0.2797166912153732  1.0000
  C   C286      1.0  0.7618830771006598  0.8954112436472869  0.2815432219448284  1.0000
  C   C287      1.0  0.7498855682438583  0.8763276950849084  0.2566697621076889  1.0000
  C   C288      1.0  0.7288218023395154  0.8859294682717026  0.23117972687247637  1.0000
  H   H189      1.0  0.7266558005277601  0.9562302674367957  0.2531032020415146  1.0000
  H   H190      1.0  0.7642553912439505  0.9393318808849878  0.2976634571457041  1.0000
  H   H191      1.0  0.7561186155491441  0.853955190128547  0.257925709943731  1.0000
  H   H192      1.0  0.7187821787007543  0.8709958307003383  0.21273567667035154  1.0000
  N   N1        1.0  0.3688593885815034  0.014504906444026577  0.8622587895600506  1.0000
  C   C289      1.0  0.3478316453349884  0.003393729036877069  0.8351093684166699  1.0000
  C   C290      1.0  0.36314306041167327  0.045331690725473495  0.867343650419746  1.0000
  C   C291      1.0  0.400106015383485  0.010397569786651628  0.8487338335083601  1.0000
  C   C292      1.0  0.3643569295795742  0.9988963674961562  0.8978183881678364  1.0000
  H   H193      1.0  0.3511044158864463  0.014094400106349214  0.8076659734257157  1.0000
  H   H194      1.0  0.32402448216976437  0.006640232237352883  0.8439578539174669  1.0000
  H   H195      1.0  0.3510723109465274  0.9800830504714629  0.8310831837259671  1.0000
  H   H196      1.0  0.3399297949295184  0.04923046329890668  0.878090461670905  1.0000
  H   H197      1.0  0.3790880067443929  0.05469216454546211  0.8868937517618587  1.0000
  H   H198      1.0  0.3656950700094352  0.05752824956961433  0.8408082674239417  1.0000
  H   H199      1.0  0.40503301470981257  0.9874365195267093  0.844031444375833  1.0000
  H   H200      1.0  0.41663472412176217  0.01806686882598796  0.8687599576780451  1.0000
  H   H201      1.0  0.4044058700401925  0.021978871762185825  0.8220876420856733  1.0000
  H   H202      1.0  0.3409924023793551  0.001361333857552438  0.9088100372079593  1.0000
  H   H203      1.0  0.3799850059545  0.006557624864739875  0.9189239529915548  1.0000
  H   H204      1.0  0.36847635839370674  0.9755404827528588  0.8948047934160981  1.0000
  N   N2        1.0  0.0898424272105387  0.38065010310041913  0.5782805672516194  1.0000
  C   C293      1.0  0.07639559072328073  0.385205702261729  0.5417809192294999  1.0000
  C   C294      1.0  0.11238348975242562  0.4031635732944723  0.5842304310144469  1.0000
  C   C295      1.0  0.10446170472582894  0.3522817940997056  0.57962573049958  1.0000
  C   C296      1.0  0.06618276821661451  0.38185589058891134  0.6074763471892882  1.0000
  H   H205      1.0  0.0937951923607816  0.3853855484292074  0.5193115482206716  1.0000
  H   H206      1.0  0.06390899222075475  0.40582358104420774  0.5401506286284234  1.0000
  H   H207      1.0  0.060249027466394045  0.36786989453317903  0.535690324393575  1.0000
  H   H208      1.0  0.13061788728296442  0.40287549676220086  0.562747473742296  1.0000
  H   H209      1.0  0.10214051084672926  0.4248968284118132  0.5829665842781169  1.0000
  H   H210      1.0  0.12297989725924707  0.4005017405611214  0.611570253741585  1.0000
  H   H211      1.0  0.08821892711415757  0.3349256622594655  0.573897424289689  1.0000
  H   H212      1.0  0.11376628823384727  0.3476053881764464  0.607240391349611  1.0000
  H   H213      1.0  0.12295745660467805  0.3508752456318626  0.5586039056101542  1.0000
  H   H214      1.0  0.04950720240600526  0.3643512767789597  0.6047772962581455  1.0000
  H   H215      1.0  0.05353849281265388  0.4023945889827557  0.6061282347937097  1.0000
  H   H216      1.0  0.0757556720035586  0.37964005873568313  0.6354533664329699  1.0000
  N   N3        1.0  0.9833432221411733  0.49696512267959486  0.320683806729142  1.0000
  C   C297      1.0  0.9547739309505702  0.4975008900457692  0.3007849866025121  1.0000
  C   C298      1.0  0.9925110175588812  0.4669806858588033  0.327449410581111  1.0000
  C   C299      1.0  0.9791203348446603  0.5112844630067288  0.3563536514341711  1.0000
  C   C300      1.0  0.006873639845898394  0.5119297899969877  0.29822697595225145  1.0000
  H   H217      1.0  0.947273043129734  0.5197717232378543  0.2946427109693572  1.0000
  H   H218      1.0  0.936496053357483  0.4864260147254991  0.31701056973366226  1.0000
  H   H219      1.0  0.9570367817783447  0.48648160555753084  0.274047833337014  1.0000
  H   H220      1.0  0.013521220829587843  0.46563541550576676  0.3433175994061331  1.0000
  H   H221      1.0  0.9748896035859379  0.45498453896447494  0.3435774918803024  1.0000
  H   H222      1.0  0.9963821103588172  0.4556142399703751  0.3011642032420934  1.0000
  H   H223      1.0  0.00020067065125539685  0.5111982156356647  0.37219911796109234  1.0000
  H   H224      1.0  0.9616562191724545  0.5002367377175151  0.37402402791808775  1.0000
  H   H225      1.0  0.9719526172009026  0.5339247889333258  0.3524183414273394  1.0000
  H   H226      1.0  0.0010703103067466468  0.5348025401521864  0.2932300487760274  1.0000
  H   H227      1.0  0.010102789544932156  0.502045135364046  0.2707348093260559  1.0000
  H   H228      1.0  0.028968977949060504  0.5113628557982148  0.31190430715790207  1.0000
  N   N4        1.0  0.9114481257959524  0.7036666225164262  0.33965379247986854  1.0000
  C   C301      1.0  0.9377000014633169  0.6844907692403301  0.3431228875886785  1.0000
  C   C302      1.0  0.887281459462796  0.6885931325946194  0.32072954218399913  1.0000
  C   C303      1.0  0.9201417829950148  0.7295908932444234  0.3179339467397284  1.0000
  C   C304      1.0  0.9006104184421059  0.7120111803860352  0.37672592517868553  1.0000
  H   H229      1.0  0.9570274904198933  0.6955429893045645  0.3554991401178944  1.0000
  H   H230      1.0  0.9455270995821747  0.6767255988929988  0.3157897826452292  1.0000
  H   H231      1.0  0.9323115881269748  0.6653031734314047  0.36069721448732595  1.0000
  H   H232      1.0  0.8671736075077501  0.7025046810611353  0.3174562045406737  1.0000
  H   H233      1.0  0.894831206224478  0.681937975817481  0.29265606446397574  1.0000
  H   H234      1.0  0.8800884862359917  0.6689243196970659  0.33635147170230995  1.0000
  H   H235      1.0  0.9011800340045842  0.7450716226017761  0.31609476670745906  1.0000
  H   H236      1.0  0.9272911223183982  0.7242953280213441  0.28934668772504646  1.0000
  H   H237      1.0  0.9390454041751771  0.7410016312442345  0.33067917489809007  1.0000
  H   H238      1.0  0.8810427763873064  0.7268192594867079  0.375105423925502  1.0000
  H   H239      1.0  0.9182958797752593  0.7234949269212113  0.39170188563964264  1.0000
  H   H240      1.0  0.8936659009884436  0.6930877270254147  0.3939720670542585  1.0000
  N   N5        1.0  0.7944732477579651  0.9279090075479614  0.5655176986334839  1.0000
  C   C305      1.0  0.8165868559043412  0.9198417751988758  0.5935953032101159  1.0000
  C   C306      1.0  0.7966998156996093  0.9589355466717361  0.5573174240150041  1.0000
  C   C307      1.0  0.7639017486888394  0.9209642222324453  0.5796136244900292  1.0000
  C   C308      1.0  0.8006138005145346  0.9119494463465998  0.5314600001703834  1.0000
  H   H241      1.0  0.8151602865578038  0.896651802404679  0.6009343216249431  1.0000
  H   H242      1.0  0.8124117161146436  0.9316253742217685  0.6195936103843493  1.0000
  H   H243      1.0  0.8399409480420575  0.9246692148489243  0.5838875882195067  1.0000
  H   H244      1.0  0.7815958691503715  0.965319254599445  0.5347590725542463  1.0000
  H   H245      1.0  0.7902493745107682  0.9718047873545652  0.581784501986013  1.0000
  H   H246      1.0  0.8198643153309065  0.9652216324719891  0.5483098201875781  1.0000
  H   H247      1.0  0.7580693255671126  0.9333113380597604  0.6046179253242909  1.0000
  H   H248      1.0  0.761644664268666  0.8978827757658873  0.5873850372464837  1.0000
  H   H249      1.0  0.7467525625227212  0.9259092531199068  0.5587246043955865  1.0000
  H   H250      1.0  0.7840055841896346  0.9173832170196895  0.5099184178711487  1.0000
  H   H251      1.0  0.799237366653568  0.8884463430106432  0.5365440452737297  1.0000
  H   H252      1.0  0.8233036347468244  0.9170348795163856  0.5196563163606338  1.0000
  N   N6        1.0  0.4552395320749029  0.23186363042855906  0.07178994043878162  1.0000
  C   C309      1.0  0.47862718909848445  0.2470451922286842  0.04940927566297737  1.0000
  C   C310      1.0  0.43023413299511476  0.22389398971912497  0.04801732259300029  1.0000
  C   C311      1.0  0.4438331391296464  0.25074966699585355  0.10113523259502366  1.0000
  C   C312      1.0  0.4683196748422992  0.20574088201885543  0.08858201096571694  1.0000
  H   H253      1.0  0.4882443965624614  0.23316114384392805  0.02759952786833675  1.0000
  H   H254      1.0  0.4975522303944984  0.2537092261479663  0.06663649803175797  1.0000
  H   H255      1.0  0.4696263105205808  0.266647771891713  0.035699208161020346  1.0000
  H   H256      1.0  0.4117934814093967  0.21313038329914244  0.06420109125840257  1.0000
  H   H257      1.0  0.4206135276605392  0.24295934829866583  0.03366352627047697  1.0000
  H   H258      1.0  0.43782175772930687  0.20884000620189225  0.02639446405015433  1.0000
  H   H259      1.0  0.4264202646892481  0.23988791936238604  0.11891879457351129  1.0000
  H   H260      1.0  0.4338622273957694  0.2706981575551421  0.08945330656645112  1.0000
  H   H261      1.0  0.4620856335252061  0.2572336712976227  0.11956907562501429  1.0000
  H   H262      1.0  0.47759256917717796  0.19124430176453458  0.06710651223827457  1.0000
  H   H263      1.0  0.4513064064081377  0.19351771687145577  0.10541452596346046  1.0000
  H   H264      1.0  0.4869785992505002  0.21105116989443884  0.1070998898825044  1.0000
  N   N7        1.0  0.6747089033167643  0.8915060518907635  0.34745818597787864  1.0000
  C   C313      1.0  0.6887644094512799  0.9188516745913821  0.35716085624220717  1.0000
  C   C314      1.0  0.6513406161120538  0.8837750315179885  0.3755313671836493  1.0000
  C   C315      1.0  0.6978600534864539  0.8688510962095378  0.3462316525552916  1.0000
  C   C316      1.0  0.6608869936576642  0.8946473217542682  0.3109512583811976  1.0000
  H   H265      1.0  0.7064139048741905  0.9253503104175477  0.3363934623886953  1.0000
  H   H266      1.0  0.6995403583015176  0.9172601721024641  0.3845188984643512  1.0000
  H   H267      1.0  0.6718068535644043  0.9363004995315997  0.35848378337007736  1.0000
  H   H268      1.0  0.6402612442998947  0.8632022361582077  0.3691554009630262  1.0000
  H   H269      1.0  0.6609510497964183  0.8815682723541917  0.40348962171187935  1.0000
  H   H270      1.0  0.633417306220713  0.9003938531914039  0.3770042011821758  1.0000
  H   H271      1.0  0.6881077705430226  0.8478178401330082  0.3392217427039837  1.0000
  H   H272      1.0  0.7092171910896913  0.8662894697553963  0.37309654586315505  1.0000
  H   H273      1.0  0.7156379030401134  0.8739212893068135  0.32508450423019514  1.0000
  H   H274      1.0  0.6777803139102501  0.9009680389832743  0.2891534423960456  1.0000
  H   H275      1.0  0.6429911931791169  0.9112993518270494  0.31111214466288767  1.0000
  H   H276      1.0  0.6504415184662006  0.8743192167099485  0.3023586062823615  1.0000
  N   N8        1.0  0.7106238950657908  0.2752543999705634  0.8014991251716014  1.0000
  C   C317      1.0  0.6933053963652616  0.27489253335393227  0.7672771793695616  1.0000
  C   C318      1.0  0.7302850552634151  0.30073381691661216  0.8007609264526069  1.0000
  C   C319      1.0  0.729263828902553  0.2491612803393716  0.8040336304429788  1.0000
  C   C320      1.0  0.6897731509229516  0.2761856247360736  0.833781744522504  1.0000
  H   H277      1.0  0.6781333866167149  0.2560427854836101  0.766853636178678  1.0000
  H   H278      1.0  0.7084485924833246  0.27386675814411615  0.7424241930661563  1.0000
  H   H279      1.0  0.679188502534923  0.29439484280645634  0.7641921570175988  1.0000
  H   H280      1.0  0.7440585160593611  0.3015444306722544  0.8258834663189681  1.0000
  H   H281      1.0  0.7461036042150457  0.30066899773585654  0.7764429412054117  1.0000
  H   H282      1.0  0.7169967570310305  0.320868641506403  0.7990143500529925  1.0000
  H   H283      1.0  0.7153365530855335  0.2294354851132479  0.8033276951005857  1.0000
  H   H284      1.0  0.7420226907097464  0.24818372886892837  0.8299922602584595  1.0000
  H   H285      1.0  0.7458469605196942  0.2482940680824791  0.7806952947215094  1.0000
  H   H286      1.0  0.6746587750181943  0.29512317989573233  0.8323390612773952  1.0000
  H   H287      1.0  0.7021162365226228  0.27710018838466827  0.8600222507740878  1.0000
  H   H288      1.0  0.6752959049625481  0.2567911150752498  0.8357243021365137  1.0000
  N   N9        1.0  0.284822459903809  0.7226426209280503  0.8623340639003458  1.0000
  C   C321      1.0  0.2895508249374611  0.7198222687847611  0.822133404950022  1.0000
  C   C322      1.0  0.31369133149483924  0.7183616896120103  0.8808915204053205  1.0000
  C   C323      1.0  0.2629967335113127  0.7008512121088195  0.8760257323697896  1.0000
  C   C324      1.0  0.273077124749429  0.7515303756635481  0.8701874243533876  1.0000
  H   H289      1.0  0.2682550000004518  0.722991285911123  0.8074064484053088  1.0000
  H   H290      1.0  0.29804627560369895  0.698181214215782  0.8149716619341727  1.0000
  H   H291      1.0  0.30563447238267755  0.7361238892553496  0.8106429262885502  1.0000
  H   H292      1.0  0.3109683239802691  0.7203104442502132  0.9113061766442144  1.0000
  H   H293      1.0  0.32315164361958104  0.6967623473216313  0.875422715187815  1.0000
  H   H294      1.0  0.330638766201582  0.7344935935123209  0.8711251199414439  1.0000
  H   H295      1.0  0.2590204750211422  0.7020235229772795  0.9063351368922836  1.0000
  H   H296      1.0  0.27082672832178156  0.6787941500418834  0.8698372547912313  1.0000
  H   H297      1.0  0.24088466439252232  0.7036441804643541  0.8627906923635742  1.0000
  H   H298      1.0  0.2694129591986401  0.7546015312193519  0.9002591927823388  1.0000
  H   H299      1.0  0.25123832874902813  0.7554471924152435  0.8566485349635206  1.0000
  H   H300      1.0  0.28870333953884575  0.7685555053037341  0.8595291719338544  1.0000
  N   N10       1.0  0.9979832170964767  0.4499186550072282  0.7767344090789441  1.0000
  C   C325      1.0  0.02441616126345081  0.4685279355986623  0.7812189548885414  1.0000
  C   C326      1.0  0.9795491235870114  0.4496238648572806  0.8111486339323036  1.0000
  C   C327      1.0  0.00798611711853181  0.4204805941701738  0.7686742813875711  1.0000
  C   C328      1.0  0.9798871930679949  0.46107471442965153  0.7459723574953877  1.0000
  H   H301      1.0  0.03909687661036432  0.4691058072548413  0.7559909042374393  1.0000
  H   H302      1.0  0.03831717375542065  0.46108399571689324  0.8046662064422376  1.0000
  H   H303      1.0  0.01756599536851633  0.49095054028658125  0.7870376465758651  1.0000
  H   H304      1.0  0.9923491883919296  0.44122170388255516  0.8349840796078475  1.0000
  H   H305      1.0  0.9717624615724264  0.47152789445148685  0.8181498093984624  1.0000
  H   H306      1.0  0.9590969122529681  0.4361962351432025  0.8087285688204227  1.0000
  H   H307      1.0  0.9885142855962881  0.4058503357226479  0.765458789596686  1.0000
  H   H308      1.0  0.021903911738350157  0.411401182913088  0.7911392048074237  1.0000
  H   H309      1.0  0.021650731953659408  0.4197777496728727  0.7426240232654339  1.0000
  H   H310      1.0  0.9601894847611392  0.44712775857005554  0.7412708966152335  1.0000
  H   H311      1.0  0.9931902440559522  0.46232928588679495  0.719661398303944  1.0000
  H   H312      1.0  0.9710134068939708  0.48287233313082845  0.7515994961971317  1.0000
  N   N11       1.0  0.1660627012510937  0.5347490721233842  0.43550130138806603  1.0000
  C   C329      1.0  0.1986174650408947  0.540684012444238  0.43177926684713275  1.0000
  C   C330      1.0  0.15025293529907086  0.5493171363095344  0.40504650792722363  1.0000
  C   C331      1.0  0.1544446861419818  0.5453166873406534  0.47118385701224086  1.0000
  C   C332      1.0  0.1609920519442013  0.5035692429654702  0.43402647549416623  1.0000
  H   H313      1.0  0.20337638013440984  0.5640307988859957  0.4323813977814765  1.0000
  H   H314      1.0  0.20812713764195787  0.5328331991937937  0.40517077955875525  1.0000
  H   H315      1.0  0.21132478872174776  0.5299614463846092  0.45421304020071374  1.0000
  H   H316      1.0  0.12580900217416705  0.5443966660898428  0.40585430800710315  1.0000
  H   H317      1.0  0.1525687936456586  0.5729947088150563  0.406077929341947  1.0000
  H   H318      1.0  0.1594583847948405  0.5426752434002615  0.3778144846728612  1.0000
  H   H319      1.0  0.15813695506823086  0.5687526072581893  0.4734575311866745  1.0000
  H   H320      1.0  0.165677879300947  0.5344211255125046  0.49475717598188207  1.0000
  H   H321      1.0  0.12990311578239305  0.5412579506911047  0.4746810782965905  1.0000
  H   H322      1.0  0.1366684485427152  0.4981790932668655  0.43573090477256715  1.0000
  H   H323      1.0  0.1719666909655264  0.4920577192310989  0.45727771992567046  1.0000
  H   H324      1.0  0.17025391391881914  0.49471387227644825  0.4079341979640159  1.0000
  N   N12       1.0  0.1265072541268828  0.7528435662861472  0.3411663628254094  1.0000
  C   C333      1.0  0.15602878692031408  0.7421198756890278  0.3280246003151235  1.0000
  C   C334      1.0  0.1304741287202127  0.78098293159479  0.3582868696780039  1.0000
  C   C335      1.0  0.11334452021286445  0.732306370167398  0.3685911911305752  1.0000
  C   C336      1.0  0.10620470883371125  0.7559351841667579  0.30971960603700827  1.0000
  H   H325      1.0  0.15406319357681086  0.7208675512926387  0.3150889688889243  1.0000
  H   H326      1.0  0.17183319271065534  0.7395330214783942  0.3511012605056028  1.0000
  H   H327      1.0  0.16677039228917523  0.7570938437919852  0.30742968141004295  1.0000
  H   H328      1.0  0.10885540665852278  0.7894817902292083  0.3694345099649612  1.0000
  H   H329      1.0  0.14619453728316834  0.7795800274016979  0.3816174370698584  1.0000
  H   H330      1.0  0.13980058046966404  0.7971643711158077  0.3381964325162821  1.0000
  H   H331      1.0  0.11203083881434472  0.7103320129332668  0.3574791554074985  1.0000
  H   H332      1.0  0.09012701932474809  0.7384406130546782  0.37703815045898104  1.0000
  H   H333      1.0  0.12668408893445982  0.7312086977295773  0.39402861498316594  1.0000
  H   H334      1.0  0.10182026512532771  0.7349207213493851  0.2970466848262993  1.0000
  H   H335      1.0  0.1156816339701987  0.7707025414897223  0.28799298465105444  1.0000
  H   H336      1.0  0.08396340549419601  0.7646584145846148  0.31860694170523274  1.0000
  N   N13       1.0  0.31852284561474037  0.2917014063699027  0.3934690590838921  1.0000
  C   C337      1.0  0.299367067334299  0.31708986816666684  0.38700608877930237  1.0000
  C   C338      1.0  0.34507928836537766  0.30006960282540873  0.41437092610674087  1.0000
  C   C339      1.0  0.32848070968165677  0.27989472233063395  0.35774923217259613  1.0000
  C   C340      1.0  0.3012321488990741  0.2697091771213298  0.41477384596901623  1.0000
  H   H337      1.0  0.2787333776328876  0.3115500858605824  0.37203373997464867  1.0000
  H   H338      1.0  0.3115258456203011  0.3340303179392935  0.37062927255704925  1.0000
  H   H339      1.0  0.29195748293432  0.3268385019841215  0.41340304239666625  1.0000
  H   H340      1.0  0.3384070313919599  0.3087539116257836  0.44171591030901747  1.0000
  H   H341      1.0  0.36023219777436843  0.28145266741484404  0.41932383458116335  1.0000
  H   H342      1.0  0.35851780431348784  0.31682766270839435  0.3992950704791231  1.0000
  H   H343      1.0  0.34297969545846657  0.26067713687800165  0.36178900441964784  1.0000
  H   H344      1.0  0.3417906044892922  0.29581895047433154  0.3410127799467107  1.0000
  H   H345      1.0  0.3090404848022569  0.27328677803462564  0.3412486250104257  1.0000
  H   H346      1.0  0.29345464000549487  0.2778011746531625  0.4419248695114584  1.0000
  H   H347      1.0  0.31502159636917665  0.25025252950950544  0.42021376647648745  1.0000
  H   H348      1.0  0.28096667757295507  0.2628963746319028  0.39995991487730886  1.0000
  N   N14       1.0  0.755906866466562  0.10264496734388791  0.5753591568003212  1.0000
  C   C341      1.0  0.7632095166204824  0.13239678186788756  0.5637873270478455  1.0000
  C   C342      1.0  0.777442195284594  0.08282930089686814  0.5576806228829865  1.0000
  C   C343      1.0  0.7251042237586806  0.09568938840507028  0.5642579626543793  1.0000
  C   C344      1.0  0.7578679991942504  0.09962874359958662  0.6158266893798359  1.0000
  H   H349      1.0  0.7614322192314854  0.13555858772324703  0.5334319944419502  1.0000
  H   H350      1.0  0.7863898159689405  0.1382980010537614  0.5713970745336295  1.0000
  H   H351      1.0  0.7476000423064031  0.14786724858552247  0.5770517866936868  1.0000
  H   H352      1.0  0.7761150112492051  0.08404778639137424  0.527118679860478  1.0000
  H   H353      1.0  0.8009507418762398  0.08780088195976458  0.5649568113096004  1.0000
  H   H354      1.0  0.7728653052367094  0.06027909853215152  0.5664988449373126  1.0000
  H   H355      1.0  0.7082611259132422  0.10968932878225247  0.5780941171104903  1.0000
  H   H356      1.0  0.7191095003083599  0.07318402288618958  0.5718187042262253  1.0000
  H   H357      1.0  0.7225861906862402  0.09847913393685936  0.5339562048640066  1.0000
  H   H358      1.0  0.7808185417719783  0.10480543434920365  0.6251529616527609  1.0000
  H   H359      1.0  0.7524336544345718  0.0773848290058513  0.6254836843548464  1.0000
  H   H360      1.0  0.7418267165253529  0.11422987428015091  0.6300949144694121  1.0000
  N   N15       1.0  0.21199809273013237  0.8787670105819743  0.6855944483095002  1.0000
  C   C345      1.0  0.21822537585730126  0.8548905052207256  0.7116741311556265  1.0000
  C   C346      1.0  0.20216722690716346  0.9040705488833678  0.7064065840408249  1.0000
  C   C347      1.0  0.18806330064055893  0.8702004458398646  0.6605786704840254  1.0000
  C   C348      1.0  0.23955115052735373  0.8859684064825221  0.6638048373614627  1.0000
  H   H361      1.0  0.22528553863457623  0.8353031333459441  0.6968848665860155  1.0000
  H   H362      1.0  0.19807089024077926  0.8490674199743127  0.728937941799842  1.0000
  H   H363      1.0  0.23654645791737144  0.8603868233353288  0.7306332307402855  1.0000
  H   H364      1.0  0.1972621868013294  0.9224889554468015  0.6875425264429239  1.0000
  H   H365      1.0  0.18149304859048435  0.8994440784548267  0.7233320419666042  1.0000
  H   H366      1.0  0.2198593602062647  0.9110229293846839  0.7254696673495794  1.0000
  H   H367      1.0  0.18358038696480702  0.8872055573243096  0.6394763653050461  1.0000
  H   H368      1.0  0.16669674753622477  0.8653548420041496  0.6759599505621103  1.0000
  H   H369      1.0  0.1945029506796001  0.8506520708292298  0.6453509537979467  1.0000
  H   H370      1.0  0.2355768656006593  0.903490204581734  0.6432772437467021  1.0000
  H   H371      1.0  0.2480412296825973  0.867387352274618  0.6480769100615107  1.0000
  H   H372      1.0  0.257988492297733  0.8928711182090799  0.6817519286846189  1.0000
  N   N16       1.0  0.9400515232873186  0.8926978142797194  0.34950838032133247  1.0000
  C   C349      1.0  0.9518943830565039  0.8803318562426734  0.3149359066652176  1.0000
  C   C350      1.0  0.9532828973781763  0.9213246950147186  0.35423601329413035  1.0000
  C   C351      1.0  0.9481305783559848  0.87391267464884  0.380947136658759  1.0000
  C   C352      1.0  0.9069955282928741  0.8950819657185032  0.34806987574693843  1.0000
  H   H373      1.0  0.9427314076507927  0.8584880591090366  0.31088629517192096  1.0000
  H   H374      1.0  0.9768276962598812  0.8783513081221619  0.3151389759487693  1.0000
  H   H375      1.0  0.9460544958448018  0.8938053942531324  0.2905090284867007  1.0000
  H   H376      1.0  0.9782590446333298  0.9200961285972259  0.355519566179226  1.0000
  H   H377      1.0  0.9477077225206754  0.9361360709626573  0.33097681257574135  1.0000
  H   H378      1.0  0.944870468732579  0.9311582493476399  0.3801880748872332  1.0000
  H   H379      1.0  0.9729096887053788  0.8725378298569393  0.3838171932753244  1.0000
  H   H380      1.0  0.9397081934213857  0.8517876659320054  0.37738389925347854  1.0000
  H   H381      1.0  0.9385511839507263  0.8818538668817905  0.4074151969253897  1.0000
  H   H382      1.0  0.8972421656020234  0.9035854302841617  0.37419735203455906  1.0000
  H   H383      1.0  0.8964255746443087  0.8738632966629509  0.3438481377467042  1.0000
  H   H384      1.0  0.8999340275917176  0.909591780665282  0.3251599317852666  1.0000
  N   N17       1.0  0.5017500326118062  0.2587139868921635  0.824522787938589  1.0000
  C   C353      1.0  0.5098299034689616  0.2382727627962264  0.7953913407430854  1.0000
  C   C354      1.0  0.47166975478717543  0.27085217384164506  0.8176635003716947  1.0000
  C   C355      1.0  0.5241266686593313  0.28204800139580877  0.8241932110294353  1.0000
  C   C356      1.0  0.5015016251814468  0.24373478993460676  0.8608180148013955  1.0000
  H   H385      1.0  0.5323531824600999  0.2285976251967429  0.7998681339051562  1.0000
  H   H386      1.0  0.510424663675054  0.24887840785223486  0.7675958174087829  1.0000
  H   H387      1.0  0.49320228052843446  0.22058129674785512  0.7943155217144703  1.0000
  H   H388      1.0  0.47081929787344595  0.2817026438032869  0.7900928342625985  1.0000
  H   H389      1.0  0.45411129268666195  0.2539895138101379  0.8183096812002083  1.0000
  H   H390      1.0  0.46489220783361673  0.2865345319960926  0.8389739846145164  1.0000
  H   H391      1.0  0.5190209901013377  0.2977098013760138  0.8461418137349361  1.0000
  H   H392      1.0  0.5247918295004839  0.29388391864800667  0.7972491210815058  1.0000
  H   H393      1.0  0.5471221741853705  0.2736049734915363  0.8289845842186714  1.0000
  H   H394      1.0  0.4964552967066757  0.25875327303816575  0.8835001242483469  1.0000
  H   H395      1.0  0.523695964601369  0.23377745793121438  0.8665019995461164  1.0000
  H   H396      1.0  0.4841748239861189  0.2265681349707385  0.8624728137476343  1.0000
  N   N18       1.0  0.8864045105543358  0.8416805783616476  0.5739742473175187  1.0000
  C   C357      1.0  0.913646192948776  0.8296645152643091  0.5560609517182717  1.0000
  C   C358      1.0  0.8671245804390166  0.854573748860492  0.5455727535580712  1.0000
  C   C359      1.0  0.8950217794511216  0.863892410454138  0.6001347103509777  1.0000
  C   C360      1.0  0.8697208989392173  0.8186182573227462  0.5939796112085113  1.0000
  H   H397      1.0  0.9272777733538545  0.8464874990941101  0.5414327205806311  1.0000
  H   H398      1.0  0.9078630558474163  0.8132614888937725  0.5355904527782814  1.0000
  H   H399      1.0  0.9282809247940458  0.8188471713374995  0.5764312239544703  1.0000
  H   H400      1.0  0.8458052564051712  0.862766347849787  0.5577931690557729  1.0000
  H   H401      1.0  0.8786278919898612  0.8728151723293004  0.5310177371567498  1.0000
  H   H402      1.0  0.8611859019671753  0.8387574391212914  0.5243929441302497  1.0000
  H   H403      1.0  0.9085439049984272  0.8811648748000137  0.5862277036532882  1.0000
  H   H404      1.0  0.9087390209193771  0.8548081338170326  0.622784362194536  1.0000
  H   H405      1.0  0.8749673429793697  0.8739857572092773  0.6132928234945111  1.0000
  H   H406      1.0  0.8482515182820838  0.8264759165877722  0.6062862192047239  1.0000
  H   H407      1.0  0.883102412169913  0.8093451880062591  0.6168139953157981  1.0000
  H   H408      1.0  0.8644056125657826  0.8006796507433878  0.5754840236449581  1.0000
  N   N19       1.0  0.08945656063703923  0.7978244205126476  0.5529300716782797  1.0000
  C   C361      1.0  0.09852937980713629  0.7999325251349152  0.5135040881568458  1.0000
  C   C362      1.0  0.060875815451346016  0.813351716921888  0.5588983725287389  1.0000
  C   C363      1.0  0.11293242934101662  0.81060470554101  0.5754928033110153  1.0000
  C   C364      1.0  0.08549288361878983  0.7673976525895921  0.5638906805176065  1.0000
  H   H409      1.0  0.12027821760798063  0.7888693829339903  0.5080670345710502  1.0000
  H   H410      1.0  0.10093644993711114  0.8226004195028284  0.5039147533450639  1.0000
  H   H411      1.0  0.08161236542798012  0.7898988980830689  0.4957775566161308  1.0000
  H   H412      1.0  0.05284369959668833  0.8115105641744417  0.5881698109299126  1.0000
  H   H413      1.0  0.06324537184698631  0.8364915573644471  0.551658404297691  1.0000
  H   H414      1.0  0.042840953732350424  0.804739738372475  0.541631120133022  1.0000
  H   H415      1.0  0.10649916755088362  0.8095954463506285  0.6053545213426671  1.0000
  H   H416      1.0  0.11684326514484285  0.8334634516169477  0.5675950512351297  1.0000
  H   H417      1.0  0.13474364581277415  0.7992085951492504  0.5720133454959401  1.0000
  H   H418      1.0  0.07725203844258921  0.7650521191303912  0.5930407756516793  1.0000
  H   H419      1.0  0.10693780679455439  0.7553154514065334  0.5610592231298858  1.0000
  H   H420      1.0  0.06890847352565244  0.7567582650519299  0.5462647545570641  1.0000
  N   N20       1.0  0.4947159176013789  0.12139038915263534  0.8907823401696006  1.0000
  C   C365      1.0  0.49219503071806137  0.15211348478846953  0.8808311146459655  1.0000
  C   C366      1.0  0.47773945672353163  0.11545604714078572  0.9255942011226668  1.0000
  C   C367      1.0  0.5266415987474782  0.11383750737369125  0.8956007170548067  1.0000
  C   C368      1.0  0.4822194621486151  0.10410279373352016  0.8611811189448139  1.0000
  H   H421      1.0  0.5008497102601343  0.1657158212613825  0.9030391379106524  1.0000
  H   H422      1.0  0.46838747340763937  0.15835060504947118  0.8763890959130834  1.0000
  H   H423      1.0  0.5051691945287007  0.15747376800753554  0.8550361239037009  1.0000
  H   H424      1.0  0.48681226955305057  0.12786480892134633  0.9486810808396683  1.0000
  H   H425      1.0  0.4536178154502275  0.12114193778597282  0.9231361054034919  1.0000
  H   H426      1.0  0.47896334069071156  0.09242787272089514  0.9338263937107935  1.0000
  H   H427      1.0  0.5365346810944598  0.12583247441107104  0.9185454377868089  1.0000
  H   H428      1.0  0.5403835220659261  0.1186616516158332  0.8702380699967084  1.0000
  H   H429      1.0  0.529335911397776  0.09062974954180958  0.9023418901389068  1.0000
  H   H430      1.0  0.48389439822800223  0.08078898464863338  0.8677998020147903  1.0000
  H   H431      1.0  0.4942593998568775  0.10820956827388661  0.8343680280298325  1.0000
  H   H432      1.0  0.45807251901157414  0.10912235362800704  0.8570437005682343  1.0000
  N   N21       1.0  0.5096053221668893  0.04965744636939174  0.2664930487835869  1.0000
  C   C369      1.0  0.5061258880105397  0.07631257787412093  0.28734842038644964  1.0000
  C   C370      1.0  0.5379471218881753  0.03548782174692788  0.27661279858536647  1.0000
  C   C371      1.0  0.510439703107931  0.05652970901440769  0.22653917830207146  1.0000
  C   C372      1.0  0.48414649716018476  0.030266328043605965  0.2754856913044065  1.0000
  H   H433      1.0  0.4852357554384131  0.08791053586728338  0.27993539663131084  1.0000
  H   H434      1.0  0.525291209800006  0.09118659336461271  0.2815124985396966  1.0000
  H   H435      1.0  0.5052231153740947  0.07181041876745572  0.31759651022658936  1.0000
  H   H436      1.0  0.5382634640269953  0.029890546127812282  0.3065813602991136  1.0000
  H   H437      1.0  0.5413463177188065  0.015256722026373517  0.2613571055472994  1.0000
  H   H438      1.0  0.5575984912339006  0.04954238796381172  0.2699824714899567  1.0000
  H   H439      1.0  0.5137579476653072  0.036888387217454355  0.21004272327175  1.0000
  H   H440      1.0  0.5292637227215293  0.07139032901866066  0.21904927135585806  1.0000
  H   H441      1.0  0.4892875480975675  0.06696426430018199  0.21769119847490517  1.0000
  H   H442      1.0  0.4622826084846404  0.04021033179583822  0.26844907208862073  1.0000
  H   H443      1.0  0.4831035280642883  0.024418337542205796  0.30542181757684767  1.0000
  H   H444      1.0  0.48617708901762513  0.009906382578168673  0.26022673097349885  1.0000
  N   N22       1.0  0.5416123576868997  0.9524051986482552  0.7466764906826748  1.0000
  C   C373      1.0  0.5629137648409528  0.9760632155593842  0.7522418433647096  1.0000
  C   C374      1.0  0.5522956551904251  0.9263096766252426  0.7660122451096674  1.0000
  C   C375      1.0  0.5396222094534833  0.9469028601434124  0.7068782400191057  1.0000
  C   C376      1.0  0.511611166836353  0.9602993484451047  0.7615455750919545  1.0000
  H   H445      1.0  0.5557287603648756  0.9960290112343073  0.7377402355109909  1.0000
  H   H446      1.0  0.585899751805298  0.9706761583366913  0.7416083066566542  1.0000
  H   H447      1.0  0.564778760614822  0.9808196479712695  0.7820515186831456  1.0000
  H   H448      1.0  0.5747934412754998  0.9195901019200968  0.755243329298851  1.0000
  H   H449      1.0  0.554389551159776  0.9298115701059433  0.7960817738898411  1.0000
  H   H450      1.0  0.5364778952957786  0.9081396224519825  0.7630173822497904  1.0000
  H   H451      1.0  0.5239265711776353  0.9289410790838181  0.7018549133504977  1.0000
  H   H452      1.0  0.5619351134310694  0.94127508812588  0.694562737352219  1.0000
  H   H453      1.0  0.5310102663925386  0.9659704387827498  0.6915181970584637  1.0000
  H   H454      1.0  0.5028573305297773  0.9799459327031246  0.7476789880081307  1.0000
  H   H455      1.0  0.5121196955774683  0.9640990946002924  0.7917250832061766  1.0000
  H   H456      1.0  0.49489295730324373  0.9430721137006854  0.7572144537186458  1.0000
  N   N23       1.0  0.8683477930433083  0.8155031013090485  0.8051000169191332  1.0000
  C   C377      1.0  0.8486485442819122  0.8272111278514518  0.7762365272043876  1.0000
  C   C378      1.0  0.8662520306327172  0.7839184495335587  0.8062018351102308  1.0000
  C   C379      1.0  0.8588913401272589  0.826798003981233  0.8412679225139925  1.0000
  C   C380      1.0  0.8997046184228016  0.8241239455343972  0.7966293023445022  1.0000
  H   H457      1.0  0.8503609377567177  0.8509702115566348  0.7738417440242691  1.0000
  H   H458      1.0  0.8246713213436987  0.8216798530040664  0.7819387325099951  1.0000
  H   H459      1.0  0.854921705983463  0.8186618782416042  0.748744530821342  1.0000
  H   H460      1.0  0.8811530596191051  0.7742828479649758  0.827358713878144  1.0000
  H   H461      1.0  0.8429390547756834  0.7765076145515801  0.8125438869129027  1.0000
  H   H462      1.0  0.8733653058120683  0.7746482565985602  0.7793590133621527  1.0000
  H   H463      1.0  0.8601681918311427  0.8505969340076294  0.8412378187065643  1.0000
  H   H464      1.0  0.8734707956384133  0.8184602947761306  0.8635731597092209  1.0000
  H   H465      1.0  0.8353368041515182  0.8206176370883039  0.8486176116511783  1.0000
  H   H466      1.0  0.915480499664023  0.8150250819368584  0.8171416130813463  1.0000
  H   H467      1.0  0.9023223430189122  0.8478332810483645  0.7957702804600757  1.0000
  H   H468      1.0  0.9071982434038964  0.8164802578013599  0.7692209297410871  1.0000
  N   N24       1.0  0.11398954309557265  0.53434453978597  0.12477009006720066  1.0000
  C   C381      1.0  0.0931597767114898  0.5115500122050787  0.13792235151381146  1.0000
  C   C382      1.0  0.09768294187742897  0.5550766922073079  0.10125574941243147  1.0000
  C   C383      1.0  0.1388650190706064  0.5215010870884713  0.10312523094746806  1.0000
  C   C384      1.0  0.12629961813866272  0.5491823839946404  0.15666900836727857  1.0000
  H   H469      1.0  0.07411969264647  0.5204540171295409  0.15442632712271037  1.0000
  H   H470      1.0  0.10466387118322776  0.49558074066072233  0.1558614610316527  1.0000
  H   H471      1.0  0.08351352298541914  0.49999751165102313  0.11443906038414842  1.0000
  H   H472      1.0  0.11263318264551922  0.5727554849351737  0.09113211617308467  1.0000
  H   H473      1.0  0.08852070637267562  0.5446708686566829  0.07655598296482014  1.0000
  H   H474      1.0  0.0783471531221851  0.5648216111078798  0.11643320644738282  1.0000
  H   H475      1.0  0.15527013368424994  0.5380421056113907  0.09352002386559406  1.0000
  H   H476      1.0  0.13061389527682368  0.5106312902076832  0.07829285878541947  1.0000
  H   H477      1.0  0.1516204587874483  0.5055707620773205  0.11977272265148774  1.0000
  H   H478      1.0  0.1422874966595012  0.5664269776984872  0.14765859140782486  1.0000
  H   H479      1.0  0.13884363927115795  0.5341480865620778  0.17488843388908432  1.0000
  H   H480      1.0  0.10814230336191011  0.5589865965252965  0.173806563546451  1.0000
  N   N25       1.0  0.35028415830946324  0.2962697956508257  0.6717805153764708  1.0000
  C   C385      1.0  0.3350116658902029  0.30085741907850067  0.7077770084204771  1.0000
  C   C386      1.0  0.3825918166909964  0.3028616647739239  0.6745127420798683  1.0000
  C   C387      1.0  0.3369399717206872  0.3151888837271252  0.643396753501423  1.0000
  C   C388      1.0  0.34663717667748356  0.2661301295455734  0.6612669740392924  1.0000
  H   H481      1.0  0.3104618030951507  0.2968567740505594  0.7064097125415252  1.0000
  H   H482      1.0  0.3379154029119459  0.32316169771131154  0.7171541694219322  1.0000
  H   H483      1.0  0.3438555185049016  0.2861762392404754  0.7295077745855982  1.0000
  H   H484      1.0  0.3862406044362047  0.32495750579442195  0.6842242402447702  1.0000
  H   H485      1.0  0.3939231992799583  0.2877591718278559  0.6938758808248096  1.0000
  H   H486      1.0  0.3943321057841899  0.30127083951209566  0.6472425629779935  1.0000
  H   H487      1.0  0.3481395463894133  0.3122371627380832  0.6158964104674045  1.0000
  H   H488      1.0  0.3392112186590667  0.3381383460612351  0.6504130821631768  1.0000
  H   H489      1.0  0.3126153623378341  0.3106174636951078  0.6403869656758169  1.0000
  H   H490      1.0  0.35693098883123975  0.2622999721452658  0.6335709973196539  1.0000
  H   H491      1.0  0.3225236464564982  0.25997607118714167  0.6604609775887289  1.0000
  H   H492      1.0  0.35753133692252537  0.25122104549408636  0.6812302948252447  1.0000
  N   N26       1.0  0.9451616933500738  0.318729686234718  0.5005046438364158  1.0000
  C   C389      1.0  0.9366622101983793  0.3009581058955229  0.5332476132837615  1.0000
  C   C390      1.0  0.9331290724717162  0.3056318725831348  0.46722104420262744  1.0000
  C   C391      1.0  0.9782348537487254  0.3204885175994133  0.4969530475952794  1.0000
  C   C392      1.0  0.9326943518031814  0.3478369741898778  0.5046898977226018  1.0000
  H   H493      1.0  0.9449961216602698  0.31041709169179976  0.5589285718703324  1.0000
  H   H494      1.0  0.9460895050553458  0.2789810947473546  0.5313497591764531  1.0000
  H   H495      1.0  0.9118312347535685  0.2990744836527833  0.5365676415766513  1.0000
  H   H496      1.0  0.9081523024724033  0.3052254481172407  0.46788063004174923  1.0000
  H   H497      1.0  0.9404706847315203  0.3175442728933137  0.44182226156114957  1.0000
  H   H498      1.0  0.9413337093592101  0.2833133323430617  0.46392565582387607  1.0000
  H   H499      1.0  0.9852443639154139  0.335314931689356  0.4739327573407993  1.0000
  H   H500      1.0  0.9884563485732547  0.29927633153611793  0.4911828558667846  1.0000
  H   H501      1.0  0.9882993547293708  0.3286666087674419  0.5224002497119649  1.0000
  H   H502      1.0  0.9392754164978215  0.3621408937793207  0.48095749153336664  1.0000
  H   H503      1.0  0.9411680242529379  0.35803036918017656  0.52981543827688  1.0000
  H   H504      1.0  0.9077492921277838  0.3476029309420647  0.5069201505725308  1.0000
  N   N27       1.0  0.20461294868367214  0.33099701557030226  0.5926245209031397  1.0000
  C   C393      1.0  0.18642223525912588  0.3147659410970173  0.5667151057318152  1.0000
  C   C394      1.0  0.1858394371782129  0.35331624252910326  0.6098993483903706  1.0000
  C   C395      1.0  0.230337173039426  0.34467068032553266  0.572728852631002  1.0000
  C   C396      1.0  0.21597698663948847  0.3111688284373318  0.6213470590997869  1.0000
  H   H505      1.0  0.19944769249802313  0.29674461937062646  0.5547800283719273  1.0000
  H   H506      1.0  0.1788229736774076  0.32849775949643945  0.5433209842687232  1.0000
  H   H507      1.0  0.16610696650170276  0.30534834766616253  0.5807120595568255  1.0000
  H   H508      1.0  0.1988543544277396  0.3657648155558366  0.6297498801093626  1.0000
  H   H509      1.0  0.1772921421260102  0.3688577544503494  0.5890028696704096  1.0000
  H   H510      1.0  0.16638553095324318  0.34387209378535677  0.6256079282306564  1.0000
  H   H511      1.0  0.24378597511077688  0.3579224837464439  0.5914264810106085  1.0000
  H   H512      1.0  0.2229368890657414  0.35902376904251715  0.5498515959962489  1.0000
  H   H513      1.0  0.24560779819775458  0.3284537192680381  0.5606006627088774  1.0000
  H   H514      1.0  0.23101153588764956  0.3224011405133506  0.6403267365837011  1.0000
  H   H515      1.0  0.2291772443088641  0.29335900697998113  0.6089721092829715  1.0000
  H   H516      1.0  0.197223208225775  0.3014731653766958  0.6382212135691089  1.0000
  N   N28       1.0  0.6021636166503961  0.0630941650675132  0.08797281242747457  1.0000
  C   C397      1.0  0.5752824702324844  0.0590116349852452  0.0656083403276313  1.0000
  C   C398      1.0  0.6201136057495565  0.08718549837447798  0.07221876602916755  1.0000
  C   C399      1.0  0.6204353341009056  0.03667420303976909  0.08774916571593616  1.0000
  C   C400      1.0  0.5927875030087785  0.06948829168128845  0.12626130492252763  1.0000
  H   H517      1.0  0.5610106191550003  0.04119726200247675  0.07673816939704836  1.0000
  H   H518      1.0  0.581561654083043  0.05372156935505212  0.036730033973654486  1.0000
  H   H519      1.0  0.561132832015198  0.0786242111203308  0.0646732754252699  1.0000
  H   H520      1.0  0.6405103122618909  0.09108050885079932  0.08846243052917457  1.0000
  H   H521      1.0  0.6275889308081157  0.08313592371362555  0.043291541596425454  1.0000
  H   H522      1.0  0.6069073320817723  0.10744427692047331  0.07158760740692438  1.0000
  H   H523      1.0  0.6075413457620911  0.018103003396042094  0.09949344178035258  1.0000
  H   H524      1.0  0.6408762484051453  0.038892983351115795  0.10449003606024454  1.0000
  H   H525      1.0  0.6277089706360471  0.03111419853597064  0.059232003762875296  1.0000
  H   H526      1.0  0.5793479616459792  0.08954671393449076  0.12759369648233831  1.0000
  H   H527      1.0  0.612505060332073  0.07207819966247553  0.1441711103362282  1.0000
  H   H528      1.0  0.5787599446294163  0.05194426662282359  0.13871841246662298  1.0000
  N   N29       1.0  0.07649083705817028  0.6093814313237773  0.9387667324642811  1.0000
  C   C401      1.0  0.095875822844802  0.5944439906597615  0.9117407797598092  1.0000
  C   C402      1.0  0.044702441991936626  0.6049463267700936  0.9296961519830094  1.0000
  C   C403      1.0  0.0832600028849022  0.6403400094834439  0.9373707747087481  1.0000
  C   C404      1.0  0.08213353228903642  0.5977732992309726  0.9761997990115678  1.0000
  H   H529      1.0  0.09150700803231904  0.5709940751716298  0.9126468654168809  1.0000
  H   H530      1.0  0.12001719159361124  0.5975902184876692  0.917506922247617  1.0000
  H   H531      1.0  0.0919627314814968  0.6023149743007843  0.8831364120164377  1.0000
  H   H532      1.0  0.029308509963366758  0.6160334960874163  0.9493644971737066  1.0000
  H   H533      1.0  0.039731981834579155  0.6131811736896551  0.9015107546036498  1.0000
  H   H534      1.0  0.03882525521328484  0.5818286683706646  0.9306270443510508  1.0000
  H   H535      1.0  0.06890318395654083  0.6521440050722945  0.9574707791907647  1.0000
  H   H536      1.0  0.07955780378152721  0.6498186647510777  0.9094800640669785  1.0000
  H   H537      1.0  0.10704587341879668  0.6445321541549415  0.9442828460616006  1.0000
  H   H538      1.0  0.10580085549750984  0.6014894430768503  0.984093716226689  1.0000
  H   H539      1.0  0.07814411234204965  0.5742723801454989  0.9780870046144177  1.0000
  H   H540      1.0  0.06724122134114041  0.6078583820382769  0.997352310965716  1.0000
  N   N30       1.0  0.8008554819843481  0.2754747485662637  0.5182062398208327  1.0000
  C   C405      1.0  0.7816909888058167  0.2768073183766946  0.48551136912736814  1.0000
  C   C406      1.0  0.8046659123497835  0.2453018606816791  0.5301957095951545  1.0000
  C   C407      1.0  0.7864825780986082  0.29166344856783677  0.5484195809224596  1.0000
  C   C408      1.0  0.8305726904892518  0.28803587716810175  0.5086885281653352  1.0000
  H   H541      1.0  0.7786271033491762  0.299187988028205  0.4752224462280276  1.0000
  H   H542      1.0  0.7590006779924511  0.2676980835215816  0.4917493817700882  1.0000
  H   H543      1.0  0.791679648724124  0.2644729081778323  0.4623746941657208  1.0000
  H   H544      1.0  0.8158736814291319  0.2325968152007812  0.5081370370381844  1.0000
  H   H545      1.0  0.8186658098999009  0.24347822246456977  0.5551104008834796  1.0000
  H   H546      1.0  0.7825938232708123  0.23501616132369896  0.5369632013845709  1.0000
  H   H547      1.0  0.8004167048710804  0.29122006960446795  0.5735179080736761  1.0000
  H   H548      1.0  0.764074232657903  0.28258480505225214  0.5563887161361091  1.0000
  H   H549      1.0  0.783118757334089  0.31450684312524424  0.5402419760429273  1.0000
  H   H550      1.0  0.845473623679044  0.28771306484495446  0.5329181386113084  1.0000
  H   H551      1.0  0.8284928257362951  0.3106537688499758  0.4988416108695092  1.0000
  H   H552      1.0  0.8421066386794123  0.276029220340659  0.4862210766362265  1.0000
  N   N31       1.0  0.256187410246307  0.7280788661151318  0.5136337442422043  1.0000
  C   C409      1.0  0.22307340509927162  0.7264086757540154  0.5131556751144432  1.0000
  C   C410      1.0  0.2684454564078153  0.6998492080592521  0.5245901046092684  1.0000
  C   C411      1.0  0.2652290249936078  0.7496791054432591  0.5403850624396358  1.0000
  C   C412      1.0  0.2679309535153763  0.7362743059677448  0.47644877466415086  1.0000
  H   H553      1.0  0.21352834308661783  0.7193110662668624  0.5404819365556346  1.0000
  H   H554      1.0  0.21540122031115636  0.7110292784000563  0.49237691913489834  1.0000
  H   H555      1.0  0.21295461928651074  0.7475777085531332  0.5061422297969762  1.0000
  H   H556      1.0  0.2934126642238844  0.7002744730012272  0.5251830742102357  1.0000
  H   H557      1.0  0.2599904956151086  0.6930457573891129  0.5525827497196472  1.0000
  H   H558      1.0  0.26192029779140746  0.6830500354260619  0.505002577648796  1.0000
  H   H559      1.0  0.2570716062859193  0.7438787364625441  0.5688256403031561  1.0000
  H   H560      1.0  0.2558547170580521  0.7711600281844991  0.533410813560018  1.0000
  H   H561      1.0  0.2900665602215268  0.7518986938198615  0.5410978078623635  1.0000
  H   H562      1.0  0.29284140436744055  0.738100727891355  0.47575542207237465  1.0000
  H   H563      1.0  0.25875892072682843  0.757269852067619  0.4670531671206517  1.0000
  H   H564      1.0  0.2617632086822913  0.7202375463353043  0.45565351785505714  1.0000
  N   N32       1.0  0.028601771958500555  0.6894361503668344  0.7475268136268101  1.0000
  C   C413      1.0  0.054632472388094655  0.6849348645323334  0.7714708904150087  1.0000
  C   C414      1.0  0.007631439262200335  0.7099319861043845  0.7648713211850685  1.0000
  C   C415      1.0  0.013029094379654715  0.6619142717668489  0.742540494640743  1.0000
  C   C416      1.0  0.039047973991574114  0.7010259669193674  0.7112288419939864  1.0000
  H   H565      1.0  0.07117898036672754  0.6698933728180512  0.7590534924352399  1.0000
  H   H566      1.0  0.04751094158303726  0.6760957596232657  0.7990094384006134  1.0000
  H   H567      1.0  0.06671633227784213  0.7053810269078777  0.7760198338793435  1.0000
  H   H568      1.0  0.9986363611073816  0.7016468450002808  0.7919162995145134  1.0000
  H   H569      1.0  0.01859438102228217  0.7308103903196743  0.769681397731045  1.0000
  H   H570      1.0  0.9880865721166199  0.7143107050929788  0.7472011728445512  1.0000
  H   H571      1.0  0.0039581961450823044  0.6528671122101414  0.7691976796362706  1.0000
  H   H572      1.0  0.028222355850940017  0.6456123767021787  0.7302671493462379  1.0000
  H   H573      1.0  0.9936386929254793  0.6644838377501426  0.7239667574323377  1.0000
  H   H574      1.0  0.01989690793162535  0.7053497985207526  0.69273314763428  1.0000
  H   H575      1.0  0.054562314057997385  0.6859416096097776  0.6970522562378273  1.0000
  H   H576      1.0  0.051331968852167176  0.7215179737552554  0.7140359724986897  1.0000
  N   N33       1.0  0.9103961863601335  0.2803351733921671  0.7356995140994624  1.0000
  C   C417      1.0  0.9327151837415806  0.26825062119864085  0.7612014205907904  1.0000
  C   C418      1.0  0.9252713559871557  0.2868178633523379  0.6996825542291367  1.0000
  C   C419      1.0  0.8977978063302817  0.30694629617241564  0.7510238714475619  1.0000
  C   C420      1.0  0.8859291923005753  0.2594912079370232  0.730779706195768  1.0000
  H   H577      1.0  0.9223872577311212  0.2630912320405749  0.7887654945630449  1.0000
  H   H578      1.0  0.9514309961532768  0.2836491617605638  0.7653074192274046  1.0000
  H   H579      1.0  0.9428668984488522  0.24824896774485056  0.7503830336384398  1.0000
  H   H580      1.0  0.9345332308537696  0.2672020125336943  0.6868157481481844  1.0000
  H   H581      1.0  0.9093115062159813  0.29661630928596583  0.6799935781195772  1.0000
  H   H582      1.0  0.9442336132656752  0.3020569003197032  0.702557720155883  1.0000
  H   H583      1.0  0.8805201022477911  0.3164206366660048  0.7327180670914439  1.0000
  H   H584      1.0  0.9156333644489649  0.3233797039971292  0.7543293979354503  1.0000
  H   H585      1.0  0.8868719306323382  0.30300940815227856  0.7785451587187547  1.0000
  H   H586      1.0  0.8688465231345366  0.26803693624466024  0.7114793558220105  1.0000
  H   H587      1.0  0.8740342404074136  0.2541729718616216  0.7573594305023894  1.0000
  H   H588      1.0  0.8945785568695003  0.23913752367703803  0.7191822563191621  1.0000
  N   N34       1.0  0.7570261199987365  0.09896855245314318  0.30362133007588793  1.0000
  C   C421      1.0  0.7433569850864922  0.10938605816451963  0.26911712272209504  1.0000
  C   C422      1.0  0.7350822827925113  0.10150002902091892  0.33460174353615363  1.0000
  C   C423      1.0  0.7838549033325691  0.11636513205265442  0.3108640190270119  1.0000
  C   C424      1.0  0.765788691122134  0.06863628788336174  0.29985571376403813  1.0000
  H   H589      1.0  0.7594193606855212  0.1081391217008072  0.24528232178026474  1.0000
  H   H590      1.0  0.7359915571722078  0.13205501235876382  0.27119671097139647  1.0000
  H   H591      1.0  0.7232011650395788  0.0966872155927847  0.26248144673824314  1.0000
  H   H592      1.0  0.7281554735090382  0.12412353369868923  0.33848274132686285  1.0000
  H   H593      1.0  0.7143519950660558  0.08902630963516467  0.3296572218607511  1.0000
  H   H594      1.0  0.7446648105905718  0.09370252505612742  0.361027848422775  1.0000
  H   H595      1.0  0.8011246744450939  0.114599468865348  0.2883831404389316  1.0000
  H   H596      1.0  0.7944442623553023  0.1095995816248454  0.337034968459086  1.0000
  H   H597      1.0  0.7780143583661631  0.13943706521940835  0.31322048839567035  1.0000
  H   H598      1.0  0.7762782104351393  0.06006029069989238  0.3253555870972044  1.0000
  H   H599      1.0  0.7823790730926595  0.06583915823567765  0.27680692935483775  1.0000
  H   H600      1.0  0.7459642895743934  0.05500044954456795  0.2942951560245272  1.0000
  N   N35       1.0  0.17913315617868908  0.556531610171504  0.8216432927600122  1.0000
  C   C425      1.0  0.20834196215957138  0.55340493893491  0.8397978558679204  1.0000
  C   C426      1.0  0.16423609445942605  0.583029984588585  0.8340201571728414  1.0000
  C   C427      1.0  0.15987486559612918  0.531638123587869  0.831436978403191  1.0000
  C   C428      1.0  0.18415431465246537  0.5580823910902971  0.7812446296225464  1.0000
  H   H601      1.0  0.21985157823569962  0.5331707535011824  0.8321187453871824  1.0000
  H   H602      1.0  0.20562637939986703  0.5529961229431679  0.8703814136988433  1.0000
  H   H603      1.0  0.22377626465957423  0.5713636078732078  0.8321191430708494  1.0000
  H   H604      1.0  0.1416921129731965  0.5856253457327074  0.8218548327240086  1.0000
  H   H605      1.0  0.16132703352686142  0.5831145478644043  0.8645711601310504  1.0000
  H   H606      1.0  0.1776954387841158  0.6022794449075178  0.8258158187572893  1.0000
  H   H607      1.0  0.17015072381505542  0.5113489413614336  0.8217697703919155  1.0000
  H   H608      1.0  0.13737538307375632  0.5334677061583468  0.8188913826161928  1.0000
  H   H609      1.0  0.1563072536061698  0.5293013066659733  0.8617844123012122  1.0000
  H   H610      1.0  0.16258812893517244  0.5603180024118118  0.7665897210559385  1.0000
  H   H611      1.0  0.19555666677524625  0.5384472510301413  0.7710761336329695  1.0000
  H   H612      1.0  0.19855348304459355  0.5767312720659231  0.772889073876069  1.0000
  N   N36       1.0  0.9296936376588891  0.5158147788968486  0.05555952766234817  1.0000
  C   C429      1.0  0.9475384286139599  0.5382725301229286  0.0727723377201408  1.0000
  C   C430      1.0  0.8993427159741636  0.5148894326323102  0.07295541479785328  1.0000
  C   C431      1.0  0.9446417073347614  0.48786274100136817  0.06108332100749613  1.0000
  C   C432      1.0  0.9273112710417543  0.5223455848767866  0.01568268977012632  1.0000
  H   H613      1.0  0.9502214457987508  0.5337155076472206  0.10268580285662737  1.0000
  H   H614      1.0  0.9365528117416227  0.5595572382694334  0.07001901311235437  1.0000
  H   H615      1.0  0.9704507450544724  0.5400037494660733  0.05999264739806719  1.0000
  H   H616      1.0  0.9003937905109791  0.5101359425964966  0.10313715490711566  1.0000
  H   H617      1.0  0.8875410034972111  0.535754229693676  0.06952315004767184  1.0000
  H   H618      1.0  0.8851910458998808  0.49813506879365144  0.060728120170552735  1.0000
  H   H619      1.0  0.9466787601958917  0.48244764598841644  0.09102663971229805  1.0000
  H   H620      1.0  0.9677133606104306  0.4879508871423567  0.048553050850895785  1.0000
  H   H621      1.0  0.9318478689306058  0.4703143019243245  0.04845167730858457  1.0000
  H   H622      1.0  0.9142083743663353  0.5057601470287314  0.0015514108212171251  1.0000
  H   H623      1.0  0.949827220839709  0.5237381821092054  0.0017413432463968537  1.0000
  H   H624      1.0  0.9159289468667577  0.5432662040929442  0.010648965528589516  1.0000
  N   N37       1.0  0.08087421783124027  0.379880596656628  0.322689848920488  1.0000
  C   C433      1.0  0.09382420784460233  0.3913196840792243  0.28749989133552073  1.0000
  C   C434      1.0  0.0685872416488118  0.4037973203050909  0.3443456984815859  1.0000
  C   C435      1.0  0.10453204915724124  0.36512465843636144  0.34375930566353236  1.0000
  C   C436      1.0  0.05657819927280805  0.35943199581073926  0.31509746480854295  1.0000
  H   H625      1.0  0.0764568522153739  0.4025020228170326  0.2708983956499049  1.0000
  H   H626      1.0  0.10351005750241926  0.37396917081807063  0.27040416617473717  1.0000
  H   H627      1.0  0.11212017087058945  0.4069895076231735  0.29234631147845147  1.0000
  H   H628      1.0  0.08625644959201861  0.41976209998593517  0.3501717243552431  1.0000
  H   H629      1.0  0.0505693795845823  0.4152528097645976  0.3292561318901571  1.0000
  H   H630      1.0  0.059072725853886565  0.39615721912222607  0.37138055074270904  1.0000
  H   H631      1.0  0.09552186017678976  0.35616769699817946  0.37044403329739317  1.0000
  H   H632      1.0  0.12312306797712691  0.380005965232955  0.35011571807290515  1.0000
  H   H633      1.0  0.11448500301532238  0.3470808216942494  0.3281496670051415  1.0000
  H   H634      1.0  0.04615912290750224  0.3504201264193858  0.3410469027876142  1.0000
  H   H635      1.0  0.06504830186094268  0.3410931121262274  0.298813998019381  1.0000
  H   H636      1.0  0.03835426389539576  0.36982277613698117  0.2990718725296071  1.0000
  N   N38       1.0  0.22469679655690378  0.37894917169566605  0.8853794823747108  1.0000
  C   C437      1.0  0.24760751737610937  0.3899561405510288  0.8585540254346545  1.0000
  C   C438      1.0  0.1967760192301527  0.3724747628682313  0.8660318843619476  1.0000
  C   C439      1.0  0.21842784736402476  0.40079100593400563  0.913405466550977  1.0000
  C   C440      1.0  0.2359631987050285  0.3525310425165364  0.9034006243887854  1.0000
  H   H637      1.0  0.2528277698857876  0.37402205355529583  0.8369366024582509  1.0000
  H   H638      1.0  0.2689786668000865  0.39509491460459173  0.8721861145358923  1.0000
  H   H639      1.0  0.23983681936295853  0.4098019255089647  0.844286178180236  1.0000
  H   H640      1.0  0.18814921615935593  0.39162837825697866  0.851036137147449  1.0000
  H   H641      1.0  0.20048014027223476  0.35551623574256963  0.8454002564689117  1.0000
  H   H642      1.0  0.17863569259667023  0.3649355141977127  0.8854678749324718  1.0000
  H   H643      1.0  0.20948067302438295  0.4207751570690609  0.9005869588050669  1.0000
  H   H644      1.0  0.23906844667421306  0.4066862640990243  0.9281652081765915  1.0000
  H   H645      1.0  0.2014001641874134  0.39318678329877166  0.9343071668625742  1.0000
  H   H646      1.0  0.21914168074035673  0.343438671420871  0.9235585464822812  1.0000
  H   H647      1.0  0.2570185436225988  0.3565662803331709  0.9183211321925283  1.0000
  H   H648      1.0  0.24098348866572966  0.3357292805170355  0.8827507907771407  1.0000
  N   N39       1.0  0.32387366397890377  0.14172024820213558  0.6725441169576617  1.0000
  C   C441      1.0  0.3111313810504561  0.1442149063001339  0.710314310591499  1.0000
  C   C442      1.0  0.3007334807830625  0.13037304105219438  0.6482745920117263  1.0000
  C   C443      1.0  0.3498979996736289  0.12204239739827383  0.6729092471517844  1.0000
  C   C444      1.0  0.3336105922906498  0.17027530663397106  0.6586451809888471  1.0000
  H   H649      1.0  0.3029406371551023  0.1232344499752076  0.7214286463101942  1.0000
  H   H650      1.0  0.29190977209300556  0.1594708277422019  0.7111092202840169  1.0000
  H   H651      1.0  0.3280892958641803  0.15231967954039316  0.7295300738050303  1.0000
  H   H652      1.0  0.30958540539369594  0.12821821866598215  0.6195266459114266  1.0000
  H   H653      1.0  0.2929593957644316  0.10879036995767977  0.6578809104705003  1.0000
  H   H654      1.0  0.28081828555995225  0.14472795913962155  0.6471905649739529  1.0000
  H   H655      1.0  0.36769233695684983  0.1296705041154902  0.6913132419843746  1.0000
  H   H656      1.0  0.36022181444290813  0.11999301227075332  0.6447989097534091  1.0000
  H   H657      1.0  0.34328018963784196  0.10014906570874738  0.6827236453205932  1.0000
  H   H658      1.0  0.34375880386324936  0.16921193006723878  0.6304479326139568  1.0000
  H   H659      1.0  0.35069799994777995  0.17969914312643476  0.6765563325699206  1.0000
  H   H660      1.0  0.3144460955030251  0.18554702500927078  0.6575707502264493  1.0000
  N   N40       1.0  0.7155977078835347  0.07790667800036011  0.8032749368855441  1.0000
  C   C445      1.0  0.7440413225781677  0.0941709786309366  0.8035089492390876  1.0000
  C   C446      1.0  0.6990744484067634  0.08165090870505809  0.8386559842107102  1.0000
  C   C447      1.0  0.7221713990277611  0.04724544198454761  0.7981618870165219  1.0000
  C   C448      1.0  0.6970325149802447  0.08853693346300506  0.7726734809998875  1.0000
  H   H661      1.0  0.7566800452980058  0.09249010593073503  0.77689608377908  1.0000
  H   H662      1.0  0.7590524422948228  0.08611102043424834  0.8254855617397807  1.0000
  H   H663      1.0  0.7399580374432919  0.11733752830176258  0.8080686619565082  1.0000
  H   H664      1.0  0.677611821860922  0.0694124706034025  0.8396060138017892  1.0000
  H   H665      1.0  0.7125385442951035  0.07402417469073286  0.862357645486577  1.0000
  H   H666      1.0  0.6935043593243907  0.10461291383913296  0.8430880149835099  1.0000
  H   H667      1.0  0.7343805921566882  0.043674598243051976  0.7715993894264017  1.0000
  H   H668      1.0  0.7012144166045767  0.034383234269827145  0.7978513433571693  1.0000
  H   H669      1.0  0.736501365081014  0.03833592614735504  0.820353143412002  1.0000
  H   H670      1.0  0.6753557040704548  0.0767848006271461  0.7717840114662828  1.0000
  H   H671      1.0  0.708806319018565  0.08586835826929673  0.7455443817501196  1.0000
  H   H672      1.0  0.6917168785663134  0.11168572051046444  0.7754911409976214  1.0000
  N   N41       1.0  0.6705665226672983  0.013296271606243026  0.4070039840745857  1.0000
  C   C449      1.0  0.6763165725391229  0.036790036531232584  0.4325255117294301  1.0000
  C   C450      1.0  0.6541027473407558  0.990055588070257  0.4270293218809554  1.0000
  C   C451      1.0  0.6994975639658764  0.00221755258142875  0.3924749729476138  1.0000
  C   C452      1.0  0.6523901536310939  0.024049315542084226  0.3760642043277359  1.0000
  H   H673      1.0  0.6888639625329379  0.05468392813477818  0.41847416001446963  1.0000
  H   H674      1.0  0.6899028615047185  0.02924439143167268  0.4562340444462539  1.0000
  H   H675      1.0  0.6549729287938573  0.045670929446999686  0.44407309893456953  1.0000
  H   H676      1.0  0.6503841741404526  0.9714607750520514  0.40909335720892476  1.0000
  H   H677      1.0  0.666636484588213  0.9820278888578666  0.45132689732269865  1.0000
  H   H678      1.0  0.6316074171989996  0.997289828754265  0.4371270098157299  1.0000
  H   H679      1.0  0.6960349848403029  0.9847824288477623  0.3726659924262162  1.0000
  H   H680      1.0  0.7134474908018604  0.993339933811908  0.4150372637255951  1.0000
  H   H681      1.0  0.7128389035192451  0.019295286753031382  0.3778451377500107  1.0000
  H   H682      1.0  0.6643085508612722  0.04116668883528263  0.3596584791152168  1.0000
  H   H683      1.0  0.6305364345371205  0.03293539974864146  0.38599775295720057  1.0000
  H   H684      1.0  0.6470523361909505  0.006630353808602774  0.35685390031282543  1.0000
  N   N42       1.0  0.29676844081315706  0.9716615603950154  0.45017578626422766  1.0000
  C   C453      1.0  0.27920388790547657  0.9983375134772657  0.45373213128598877  1.0000
  C   C454      1.0  0.27639380992042906  0.9467303768860251  0.4532889713524498  1.0000
  C   C455      1.0  0.3189749840033427  0.9699045735023942  0.4797493941409279  1.0000
  C   C456      1.0  0.31259630909854896  0.9717158161234254  0.41390620865018757  1.0000
  H   H685      1.0  0.2940269299002965  0.017540406772999173  0.45138157526563993  1.0000
  H   H686      1.0  0.26713062010585903  0.9991105633610263  0.48089005515751726  1.0000
  H   H687      1.0  0.2622076013518383  0.00036235846803722715  0.4318524096942174  1.0000
  H   H688      1.0  0.28905417403804273  0.9263383042898345  0.4510010408777491  1.0000
  H   H689      1.0  0.26393128331171295  0.9459479581634798  0.4802296600840626  1.0000
  H   H690      1.0  0.2595710670387865  0.9469974489962637  0.43108432370078703  1.0000
  H   H691      1.0  0.3331447294678788  0.9504100757474904  0.47738659980664133  1.0000
  H   H692      1.0  0.3079055436562046  0.9691947849544108  0.5075429368970422  1.0000
  H   H693      1.0  0.33436874480541534  0.9886475073195311  0.47858185174018675  1.0000
  H   H694      1.0  0.32632302368446053  0.9520000241331489  0.41043544979380964  1.0000
  H   H695      1.0  0.328032672239628  0.9903925552555946  0.4105597677213502  1.0000
  H   H696      1.0  0.2965566336577801  0.9727007864262817  0.3908927570637666  1.0000
  N   N43       1.0  0.665047918574655  0.9268964052844814  0.9900830913952358  1.0000
  C   C457      1.0  0.6513276823642958  0.953827237847884  0.002806155970500379  1.0000
  C   C458      1.0  0.6442337708852541  0.9028607452376478  0.9984309294682772  1.0000
  C   C459      1.0  0.6934812732760404  0.9219290995076369  0.009368159090012096  1.0000
  C   C460      1.0  0.6711095993784678  0.9290506249955475  0.9498611984474812  1.0000
  H   H697      1.0  0.6661050895816082  0.972569518311071  0.996496513236434  1.0000
  H   H698      1.0  0.6461624396971609  0.9529623134444286  0.033004520803343596  1.0000
  H   H699      1.0  0.6297908617323207  0.9579654326095658  0.988979161818486  1.0000
  H   H700      1.0  0.6387624541400974  0.900950235113473  0.028519757773773025  1.0000
  H   H701      1.0  0.6224495370869411  0.905939976435701  0.9844609473404906  1.0000
  H   H702      1.0  0.6537734680048648  0.8821000313523681  0.9894075218313625  1.0000
  H   H703      1.0  0.7044535807852152  0.9017259128575942  0.0005233926970207303  1.0000
  H   H704      1.0  0.6895867540413569  0.9202749774023242  0.0397929474387928  1.0000
  H   H705      1.0  0.7096593392805803  0.9397186024674563  0.00372316382427762  1.0000
  H   H706      1.0  0.6816297336632127  0.9092127856777207  0.9391642858316703  1.0000
  H   H707      1.0  0.6862576542194464  0.9473475113385308  0.9424641128949308  1.0000
  H   H708      1.0  0.6500943999834322  0.932760380389672  0.9344616931330565  1.0000
  N   N44       1.0  0.40305525609885196  0.8942813754898854  0.6029176228056226  1.0000
  C   C461      1.0  0.41437615889976237  0.922433905699239  0.5895120113957204  1.0000
  C   C462      1.0  0.36991208503171064  0.8939190752157393  0.6014503499481103  1.0000
  C   C463      1.0  0.4123114469632557  0.8892379933882577  0.6413334477479357  1.0000
  C   C464      1.0  0.41566503226162127  0.8715590804737913  0.5794609801817856  1.0000
  H   H709      1.0  0.40478610483819766  0.9400810183917601  0.6061414571631347  1.0000
  H   H710      1.0  0.40834744717332494  0.9268334941411913  0.5604150297598227  1.0000
  H   H711      1.0  0.43927019597931743  0.9237364098045464  0.5907809364623121  1.0000
  H   H712      1.0  0.3604708489369976  0.8731390560269476  0.6118227246854346  1.0000
  H   H713      1.0  0.3596831948671724  0.9108933811103407  0.6187708460753941  1.0000
  H   H714      1.0  0.3621545674813967  0.8975005247354797  0.5727880522040789  1.0000
  H   H715      1.0  0.40362576640791115  0.8684816308368009  0.6527587426875142  1.0000
  H   H716      1.0  0.40362231609219273  0.9062299860431184  0.6596030205657567  1.0000
  H   H717      1.0  0.43720545232259234  0.8892822356804371  0.6435266166659402  1.0000
  H   H718      1.0  0.40765643536740875  0.8500372216267051  0.5889178150809251  1.0000
  H   H719      1.0  0.44064418294886193  0.871529688025122  0.5796059762986516  1.0000
  H   H720      1.0  0.4089846602274717  0.8745846298001406  0.5502855745912894  1.0000
  N   N45       1.0  0.6271996281363541  0.2782636845713152  0.16778175602286743  1.0000
  C   C465      1.0  0.6296749141517628  0.28451568934802224  0.1277175192365564  1.0000
  C   C466      1.0  0.6499007834236912  0.29500156292912727  0.18708810485603172  1.0000
  C   C467      1.0  0.6323395074173351  0.24738467969216618  0.17471249098692573  1.0000
  C   C468      1.0  0.5968615398674861  0.28611029425561885  0.18159069664512548  1.0000
  H   H721      1.0  0.6245047432866859  0.3073284710704393  0.12108777496699304  1.0000
  H   H722      1.0  0.6137158343307957  0.27133097038341986  0.11221964539755913  1.0000
  H   H723      1.0  0.6525927390544772  0.27985455602776577  0.11653757243161277  1.0000
  H   H724      1.0  0.6466755921802446  0.3183963093241481  0.18243013524049112  1.0000
  H   H725      1.0  0.6485462450320482  0.29080230366343607  0.21742059415524154  1.0000
  H   H726      1.0  0.6731051155305748  0.2894843014178934  0.17765563410790824  1.0000
  H   H727      1.0  0.630728701215966  0.24188914338369868  0.20467349153269393  1.0000
  H   H728      1.0  0.6550079816473968  0.2406813608516854  0.1646504438060491  1.0000
  H   H729      1.0  0.6154335768717054  0.23413987809805809  0.16073982234471199  1.0000
  H   H730      1.0  0.5942412479079625  0.2819475575381269  0.21180696769144033  1.0000
  H   H731      1.0  0.5792387336093883  0.27357841848896075  0.16811447754055445  1.0000
  H   H732      1.0  0.5919254371599081  0.30914738404798553  0.17631789411795012  1.0000
  N   N46       1.0  0.10225410202474283  0.6505442126133816  0.2231153503593302  1.0000
  C   C469      1.0  0.07146610477275361  0.6537654748096609  0.23838387214929305  1.0000
  C   C470      1.0  0.11558448122938748  0.6241279619910304  0.23865794766877674  1.0000
  C   C471      1.0  0.12027851428761571  0.6755784091113055  0.23325128006719956  1.0000
  C   C472      1.0  0.10162494347927038  0.648672823069517  0.1825563772514682  1.0000
  H   H733      1.0  0.06018382704782321  0.6732020407153093  0.22707400947400094  1.0000
  H   H734      1.0  0.07171745246588056  0.6555524031342195  0.2689015041036308  1.0000
  H   H735      1.0  0.057243751766713924  0.6350126428054382  0.2323556651897133  1.0000
  H   H736      1.0  0.10178314726741036  0.6049904524584908  0.2329785716690825  1.0000
  H   H737      1.0  0.1382915480663185  0.6201125971173471  0.22671330809459417  1.0000
  H   H738      1.0  0.11777797239185545  0.6253551333955201  0.2690259939039499  1.0000
  H   H739      1.0  0.12128338949851236  0.6774357190086515  0.26370981150488537  1.0000
  H   H740      1.0  0.11069303717264846  0.6958171466789457  0.22194845655538745  1.0000
  H   H741      1.0  0.1437718516845729  0.6739791000514255  0.22243938995769405  1.0000
  H   H742      1.0  0.12479679461187103  0.6465721413842482  0.17049472556495426  1.0000
  H   H743      1.0  0.09126435256407284  0.6680549891429219  0.16985431206586282  1.0000
  H   H744      1.0  0.08852360167015673  0.6297753548317852  0.17405955168983914  1.0000
  N   N47       1.0  0.42561983418165755  0.1298178333184583  0.44172825034470437  1.0000
  C   C473      1.0  0.42199255570468824  0.10196819460770068  0.423829261333254  1.0000
  C   C474      1.0  0.4524107744148053  0.14467158705920347  0.4259551231346358  1.0000
  C   C475      1.0  0.4293176090332088  0.12506879156663775  0.48175496946866836  1.0000
  C   C476      1.0  0.3987051997365636  0.14761264026162602  0.43549703738964657  1.0000
  H   H745      1.0  0.41905391658232155  0.10471186207114291  0.3936169077607475  1.0000
  H   H746      1.0  0.4019311091307169  0.0902479547198396  0.435160247855635  1.0000
  H   H747      1.0  0.44177585543955744  0.08784414866504187  0.42821623402961784  1.0000
  H   H748      1.0  0.4499604713749776  0.14975839472326857  0.3960596974612132  1.0000
  H   H749      1.0  0.45626635381102865  0.16528930839705236  0.43984039491661203  1.0000
  H   H750      1.0  0.4730641923762016  0.13153729508806666  0.4291454413406411  1.0000
  H   H751      1.0  0.4493854015303321  0.11166507751002075  0.48762269504693223  1.0000
  H   H752      1.0  0.40953536122658113  0.11389753037366335  0.49444321451872536  1.0000
  H   H753      1.0  0.43175865508781247  0.1456339281432446  0.4963193165362867  1.0000
  H   H754      1.0  0.4005543276215628  0.16862687066570525  0.4489621649687289  1.0000
  H   H755      1.0  0.37800899521029313  0.13706801450411565  0.4468351977402987  1.0000
  H   H756      1.0  0.39533558992838397  0.15209228932464725  0.40563445061812387  1.0000
  N   N48       1.0  0.618411210205821  0.22746149786767467  0.4006987926864766  1.0000
  C   C477      1.0  0.5907000810047037  0.21250935440816512  0.413477400292578  1.0000
  C   C478      1.0  0.6380495004105737  0.2074288106599215  0.38032211806831134  1.0000
  C   C479      1.0  0.6345067787191488  0.23816189698135803  0.43277892783025196  1.0000
  C   C480      1.0  0.6104041680997894  0.25179025698590135  0.37616430890697455  1.0000
  H   H757      1.0  0.5750860445790217  0.22716190104662948  0.4283396220859975  1.0000
  H   H758      1.0  0.5957393421020759  0.19422556997279708  0.43246238801248904  1.0000
  H   H759      1.0  0.5781226333987459  0.20396475081407942  0.3899415296613081  1.0000
  H   H760      1.0  0.6595160799377334  0.21785081538776  0.37125484036463496  1.0000
  H   H761      1.0  0.6439424733574667  0.1884336875880564  0.3976781089376835  1.0000
  H   H762      1.0  0.6271319013130178  0.19966659160248806  0.3551536815657343  1.0000
  H   H763      1.0  0.6554118549980242  0.2498052080294019  0.4240763344265653  1.0000
  H   H764      1.0  0.6413546997260184  0.2203715180153824  0.4517021827060992  1.0000
  H   H765      1.0  0.6203963758220297  0.25315220832195395  0.4491386772541183  1.0000
  H   H766      1.0  0.5975480213818228  0.24453889039714705  0.3521583250429801  1.0000
  H   H767      1.0  0.6307457557093469  0.2631227907439396  0.36497857685502416  1.0000
  H   H768      1.0  0.5961503471385505  0.2676942835431886  0.3908011956997285  1.0000
