data_image0
_chemical_formula_structural       HFeCSFeSFeH4S2NH3C6HSHCHSFeCHNHN2H3CFeH3FeSFeSFeSFeS3C7H2C6H4C2S2H6CH5SHC3HCNH5SCH3SH2SH2C3HCFeCHS2H5CH5C2H3C2HCH2C3HFeHSHNSH4C2H2CH2CHC2HC2H3CHC2H3SFeSFeCFeH3FeS2HC2FeHSFeHFeHSCSC5H2FeC2H5CS2C4HC3H2SH3SCNHCH2CH3C3H4S2HCHSH2CH2C2H2CHCFeNH2CS2H2CH3CHSCHNH5CHS2Fe2SCH2C2H7CHNH3FeH3CHSCHCSHCHCH3FeS4H2CHSC7HC2H2CH4NCH2SH2CHC2Fe2CNH5FeCHCH3SHC2SHCNC2H4CH6CHFeHSH3C2H3FeS2FeSH3CH2NC2Fe2HC7H5NHCHSH7CHC2SCHC2SH2CSH4S2C3FeS2FeSFeS2H2FeHC4H3SHFeCH2C2HSCSHFeS2HSCHS2CHC5SH2CNH2CH4FeCHCH2CHCFeH2CH7CH7C2HCHCSHSFeS2FeSFeSFeS3H5C7H10NCH4C2HCNC2HCHCH7CH2SCH5CHC2HC2H2N2CFeS2FeS2FeSFeCSH2CHCSHCH2C4HSHFeNCS3CHC7H4CH5CH5FeSH2FeCHFeHSCHC3HSFeHS2HNFeSCH3C2NH3FeCHC2SHFeS2HNH9C7H6SH3C3HCSH2CHCHC2HCHCH3CH2CHCHSH3CSCH2CHFeCH2CH2CHCH2SFeH2S2FeS2FeS2FeSFeCS2H2C2H2C6H3SC6H8SHSHCH2NHCHSCFeCHC2HNCHCH2CH2CH2NC2H2CHCH2CH5CHCHCHCHC3Fe2H4S3C6HSH4FeCSHC2H2C2H2CHSFeH5NHSH2CFeCH2CH2SCNSH3SH6C2H2CH4FeH4SHCNHCHCHC4H3FeSHFeSFeS2FeSFeSC7H5NCH5C2H4C2H3C3NHSCHCH4C2SHS2H3CH3C2H2C2H2CH2CNSCH3NHCHCSHFeH3SCH2SFeCH2SHC3H2CH3CHFeS2H4SC2SHFeC2HFeHFeSHC2H2C2HNHCHC6H5CHC2SH3CH2CHSCH3CSHC2S4CHCH6CNHCH2CSFe2H2CH2CH2C2H2CH3SH2CHCH2C2HFeCHC2H2CH2NH2FeH2SH2SHCNHCH2SCH3FeHC2H3NHSFeH2FeSFeS3H2CFeSHC2HFeHCHCH2C2HC3HCSCHCH2CHCHC2HCH3NC3HC2H2CHSCHNH2CH2SCHSHSH4SH5CSCH3SH5SCFeH2FeSCHSNSHSC4H3CH3NFeHNC2HCH2CH2FeHCH4CH2SFeS2FeS2FeCFeS3H2CHC2NC3HC2H4C6H5C2H2C2H3CHSCH2CH2NCH2C2H2C2H3NH4CNH3C2H2C2H8C2SCSCFe2SC6H6SHSCH2SNC4H12S2H2C4NCHSHFeSHCH2CFeSFeC2FeS2FeCH2CH3CSHCSFeS3NC2H3C2H2CH4CHC3FeCSH3SCH5C3SHFeH3FeH2CH3C2HCHCHCSNH2NH3CHFeCHSHCH2FeHCNHSCHCHC2SC2HSH5FeSH2C2SH3NH2C3H2CSHCHCH2CSCHC4H2FeSHCH6C4H4CH2SH2CHFeHSFeS2C7HCH5SCSFeNH4CH2CH2S2H3CSFeS2C2H4C2HCH7CNFeH3FeHSHFeHS2HC6H4CHFeHCNSH2CFeHC2H5SH5CFeHCH2FeSFeS2FeSFeS2H2SNSC5H2C6H4CH2SCH4CHCH2CHC2H5CH6NH6CHCH4NSHFeCHCHNCHSCHSH5C3H4C2NH4CH3CSH2CHFeH4CH4CHC2HCHNCHCHNC3H5C2H4CSC3HCH3CNH5FeH2SC3HSC2HSH2C2SH2CHCSHFeH2SCSHFeC3SH2CSHCH2FeCH5NCH3CHC2SH2C2HCHCH2CHFeSHFeS2FeSCSH8CSHFeHSC6H4CHC4H3CFeH7SH7CNHC2FeH3CHCSCHFeH3SCH2SHC3HNCH3C3H4SNHCNC2SC2HSH2SHCFeS2HS2FeC4SFeH2SC2HC3HC2H5CHCNHC3H3C2H6CHC4H4FeHSH2C
_chemical_formula_sum              "H1152 Fe144 C720 S288 N72"
_cell_length_a       84.0594
_cell_length_b       83.4304
_cell_length_c       31.4071
_cell_angle_alpha    85.0816
_cell_angle_beta     83.9536
_cell_angle_gamma    109.134

_space_group_name_H-M_alt    "P 1"
_space_group_IT_number       1

loop_
  _space_group_symop_operation_xyz
  'x, y, z'

loop_
  _atom_site_type_symbol
  _atom_site_label
  _atom_site_symmetry_multiplicity
  _atom_site_fract_x
  _atom_site_fract_y
  _atom_site_fract_z
  _atom_site_occupancy
  H   H1        1.0  0.01941  0.48550  0.26660  1.0000
  Fe  Fe1       1.0  0.06231  0.49097  0.40398  1.0000
  C   C1        1.0  0.13429  0.66873  0.06485  1.0000
  S   S1        1.0  0.06725  0.49946  0.07912  1.0000
  Fe  Fe2       1.0  0.03974  0.48658  0.10739  1.0000
  S   S2        1.0  0.02746  0.48192  0.17762  1.0000
  Fe  Fe3       1.0  0.06123  0.48214  0.02753  1.0000
  H   H2        1.0  0.13695  0.60042  0.01019  1.0000
  H   H3        1.0  0.13083  0.66191  0.27317  1.0000
  H   H4        1.0  0.04362  0.59737  0.41697  1.0000
  H   H5        1.0  0.05162  0.44624  0.40577  1.0000
  S   S3        1.0  0.03437  0.46728  0.05972  1.0000
  S   S4        1.0  0.03079  0.50489  0.06813  1.0000
  N   N1        1.0  0.02861  0.56970  0.06755  1.0000
  H   H6        1.0  0.04076  0.42358  0.41695  1.0000
  H   H7        1.0  0.09996  0.66428  0.33210  1.0000
  H   H8        1.0  0.02583  0.59400  0.04995  1.0000
  C   C2        1.0  0.05785  0.48552  0.29220  1.0000
  C   C3        1.0  0.04136  0.48624  0.29754  1.0000
  C   C4        1.0  0.03225  0.48522  0.26211  1.0000
  C   C5        1.0  0.03965  0.48392  0.22084  1.0000
  C   C6        1.0  0.05630  0.48369  0.21530  1.0000
  C   C7        1.0  0.06527  0.48432  0.25091  1.0000
  H   H9        1.0  0.03554  0.48749  0.32884  1.0000
  S   S5        1.0  0.06967  0.48599  0.33592  1.0000
  H   H10       1.0  0.06213  0.48266  0.18372  1.0000
  C   C8        1.0  0.10811  0.66493  0.01470  1.0000
  H   H11       1.0  0.07804  0.48384  0.24634  1.0000
  S   S6        1.0  0.03734  0.49348  0.42816  1.0000
  Fe  Fe4       1.0  0.02734  0.48661  0.01882  1.0000
  C   C9        1.0  0.03919  0.57623  0.10124  1.0000
  H   H12       1.0  0.03470  0.58540  0.11852  1.0000
  N   N2        1.0  0.02576  0.58432  0.47359  1.0000
  H   H13       1.0  0.15333  0.62960  0.02590  1.0000
  N   N3        1.0  0.11015  0.67115  0.26468  1.0000
  N   N4        1.0  0.02644  0.43770  0.38813  1.0000
  H   H14       1.0  0.03508  0.42436  0.34006  1.0000
  H   H15       1.0  0.14447  0.67043  0.08426  1.0000
  H   H16       1.0  0.02384  0.43790  0.32061  1.0000
  C   C10       1.0  0.01003  0.42378  0.40253  1.0000
  Fe  Fe5       1.0  0.05777  0.51628  0.03661  1.0000
  H   H17       1.0  0.01864  0.45543  0.42355  1.0000
  H   H18       1.0  0.10034  0.54339  0.28725  1.0000
  H   H19       1.0  0.05741  0.53673  0.25612  1.0000
  Fe  Fe6       1.0  0.08645  0.63607  0.16674  1.0000
  S   S7        1.0  0.08431  0.61948  0.22893  1.0000
  Fe  Fe7       1.0  0.04897  0.61936  0.15830  1.0000
  S   S8        1.0  0.04373  0.60149  0.21962  1.0000
  Fe  Fe8       1.0  0.05993  0.62419  0.24755  1.0000
  S   S9        1.0  0.05137  0.62908  0.31470  1.0000
  Fe  Fe9       1.0  0.06848  0.59833  0.19631  1.0000
  S   S10       1.0  0.07006  0.57203  0.20457  1.0000
  S   S11       1.0  0.06314  0.64263  0.18771  1.0000
  S   S12       1.0  0.07262  0.61434  0.13255  1.0000
  C   C11       1.0  0.08421  0.63414  0.42396  1.0000
  C   C12       1.0  0.08998  0.63024  0.38386  1.0000
  C   C13       1.0  0.07976  0.62804  0.35061  1.0000
  C   C14       1.0  0.06397  0.63033  0.35673  1.0000
  C   C15       1.0  0.05811  0.63400  0.39702  1.0000
  C   C16       1.0  0.06809  0.63566  0.43074  1.0000
  C   C17       1.0  0.03473  0.55725  0.04636  1.0000
  H   H20       1.0  0.04591  0.63581  0.40199  1.0000
  H   H21       1.0  0.06357  0.63876  0.46147  1.0000
  C   C18       1.0  0.07218  0.55216  0.07448  1.0000
  C   C19       1.0  0.06361  0.54102  0.11180  1.0000
  C   C20       1.0  0.06333  0.54713  0.15181  1.0000
  C   C21       1.0  0.07167  0.56441  0.15471  1.0000
  C   C22       1.0  0.08065  0.57552  0.11757  1.0000
  C   C23       1.0  0.08082  0.56941  0.07733  1.0000
  H   H22       1.0  0.05694  0.52770  0.10995  1.0000
  H   H23       1.0  0.05622  0.53847  0.18017  1.0000
  H   H24       1.0  0.08755  0.58876  0.11990  1.0000
  H   H25       1.0  0.08755  0.57801  0.04849  1.0000
  C   C24       1.0  0.08951  0.53603  0.31264  1.0000
  C   C25       1.0  0.11789  0.65761  0.26348  1.0000
  S   S13       1.0  0.06262  0.47334  0.46186  1.0000
  S   S14       1.0  0.11278  0.65465  0.14080  1.0000
  H   H26       1.0  0.07948  0.54197  0.23582  1.0000
  H   H27       1.0  0.05761  0.51558  0.34067  1.0000
  H   H28       1.0  0.04522  0.44721  0.33148  1.0000
  H   H29       1.0  0.03481  0.43767  0.45058  1.0000
  H   H30       1.0  0.01136  0.41099  0.40122  1.0000
  H   H31       1.0  0.09500  0.50708  0.00440  1.0000
  C   C26       1.0  0.11730  0.66123  0.08455  1.0000
  H   H32       1.0  0.07258  0.57418  0.46188  1.0000
  H   H33       1.0  0.05268  0.58309  0.08710  1.0000
  H   H34       1.0  0.05308  0.59541  0.46478  1.0000
  H   H35       1.0  0.08414  0.62470  0.32023  1.0000
  H   H36       1.0  0.06505  0.56094  0.29925  1.0000
  S   S15       1.0  0.09772  0.63786  0.46412  1.0000
  H   H37       1.0  0.06260  0.53324  0.37153  1.0000
  C   C27       1.0  0.03894  0.43620  0.41662  1.0000
  C   C28       1.0  0.11983  0.62211  0.02458  1.0000
  C   C29       1.0  0.04257  0.58873  0.44698  1.0000
  H   H38       1.0  0.09109  0.65354  0.07409  1.0000
  C   C30       1.0  0.10422  0.65919  0.05924  1.0000
  N   N5        1.0  0.07382  0.53948  0.30498  1.0000
  H   H39       1.0  0.08782  0.52222  0.31237  1.0000
  H   H40       1.0  0.01509  0.45627  0.36816  1.0000
  H   H41       1.0  0.12278  0.61656  0.05501  1.0000
  H   H42       1.0  0.02681  0.55170  0.02149  1.0000
  H   H43       1.0  0.07991  0.56209  0.33701  1.0000
  S   S16       1.0  0.07975  0.47141  0.99356  1.0000
  C   C31       1.0  0.06930  0.53447  0.26266  1.0000
  H   H44       1.0  0.03897  0.56570  0.12585  1.0000
  H   H45       1.0  0.09321  0.53950  0.34450  1.0000
  H   H46       1.0  0.08463  0.65321  0.27166  1.0000
  S   S17       1.0  0.07114  0.54464  0.02422  1.0000
  H   H47       1.0  0.06730  0.52070  0.26093  1.0000
  H   H48       1.0  0.10699  0.61384  0.01927  1.0000
  S   S18       1.0  0.03062  0.61907  0.11044  1.0000
  H   H49       1.0  0.10236  0.62885  0.37865  1.0000
  H   H50       1.0  0.03463  0.54648  0.07005  1.0000
  C   C32       1.0  0.02396  0.45433  0.39037  1.0000
  C   C33       1.0  0.05979  0.52949  0.33930  1.0000
  C   C34       1.0  0.07663  0.55790  0.30538  1.0000
  H   H51       1.0  0.04766  0.53151  0.33406  1.0000
  C   C35       1.0  0.02987  0.58411  0.03498  1.0000
  Fe  Fe10      1.0  0.05281  0.51512  0.46011  1.0000
  C   C36       1.0  0.03289  0.43668  0.34312  1.0000
  H   H52       1.0  0.08709  0.56587  0.27972  1.0000
  S   S19       1.0  0.07787  0.51409  0.43123  1.0000
  S   S20       1.0  0.04996  0.54092  0.45227  1.0000
  H   H53       1.0  0.04805  0.56338  0.02991  1.0000
  H   H54       1.0  0.04319  0.59061  0.01889  1.0000
  H   H55       1.0  0.09415  0.66192  0.21698  1.0000
  H   H56       1.0  0.03625  0.46500  0.38133  1.0000
  H   H57       1.0  0.04491  0.57708  0.43721  1.0000
  C   C37       1.0  0.14965  0.63476  0.99610  1.0000
  H   H58       1.0  0.02393  0.60925  0.45808  1.0000
  H   H59       1.0  0.11008  0.64591  0.28564  1.0000
  H   H60       1.0  0.11899  0.63483  0.02997  1.0000
  H   H61       1.0  0.01071  0.59723  0.18836  1.0000
  H   H62       1.0  0.01379  0.56395  0.43774  1.0000
  C   C38       1.0  0.13817  0.67417  0.02010  1.0000
  C   C39       1.0  0.12507  0.67240  0.99493  1.0000
  H   H63       1.0  0.11910  0.65380  0.23044  1.0000
  H   H64       1.0  0.14968  0.64788  0.00013  1.0000
  H   H65       1.0  0.09790  0.66365  0.99548  1.0000
  C   C40       1.0  0.09318  0.66497  0.25074  1.0000
  C   C41       1.0  0.02332  0.60007  0.48661  1.0000
  H   H66       1.0  0.02173  0.57978  0.00958  1.0000
  C   C42       1.0  0.01230  0.57589  0.44809  1.0000
  H   H67       1.0  0.01267  0.58443  0.41843  1.0000
  H   H68       1.0  0.08677  0.67470  0.25187  1.0000
  C   C43       1.0  0.10841  0.67553  0.30918  1.0000
  C   C44       1.0  0.01071  0.56125  0.08755  1.0000
  C   C45       1.0  0.00946  0.60491  0.12197  1.0000
  H   H69       1.0  0.00934  0.55027  0.11207  1.0000
  Fe  Fe11      1.0  0.03839  0.47727  0.48802  1.0000
  H   H70       1.0  0.16277  0.59431  0.87920  1.0000
  S   S21       1.0  0.10097  0.50153  0.51942  1.0000
  H   H71       1.0  0.13059  0.49445  0.88431  1.0000
  N   N6        1.0  0.08581  0.50383  0.83472  1.0000
  S   S22       1.0  0.05170  0.49934  0.52285  1.0000
  H   H72       1.0  0.10822  0.57483  0.51460  1.0000
  H   H73       1.0  0.09830  0.48606  0.85282  1.0000
  H   H74       1.0  0.07801  0.49549  0.60081  1.0000
  H   H75       1.0  0.13194  0.56010  0.59487  1.0000
  C   C46       1.0  0.10858  0.48408  0.93356  1.0000
  C   C47       1.0  0.09438  0.50128  0.65035  1.0000
  H   H76       1.0  0.11098  0.50377  0.81338  1.0000
  H   H77       1.0  0.08062  0.50607  0.76927  1.0000
  C   C48       1.0  0.09783  0.49469  0.82436  1.0000
  H   H78       1.0  0.09418  0.48672  0.79791  1.0000
  H   H79       1.0  0.09744  0.52382  0.78179  1.0000
  C   C49       1.0  0.08479  0.51419  0.79516  1.0000
  H   H80       1.0  0.10528  0.47123  0.92494  1.0000
  C   C50       1.0  0.12284  0.49722  0.91045  1.0000
  C   C51       1.0  0.12847  0.63125  0.94815  1.0000
  H   H81       1.0  0.02631  0.56037  0.50379  1.0000
  C   C52       1.0  0.10436  0.50242  0.57418  1.0000
  C   C53       1.0  0.09097  0.49932  0.60773  1.0000
  H   H82       1.0  0.12069  0.52994  0.96568  1.0000
  H   H83       1.0  0.08392  0.49884  0.67604  1.0000
  H   H84       1.0  0.07570  0.52114  0.80145  1.0000
  C   C54       1.0  0.12114  0.50734  0.58383  1.0000
  H   H85       1.0  0.10502  0.52424  0.85718  1.0000
  C   C55       1.0  0.11117  0.50649  0.65986  1.0000
  C   C56       1.0  0.09183  0.51516  0.86766  1.0000
  H   H86       1.0  0.08346  0.52279  0.87504  1.0000
  H   H87       1.0  0.09189  0.50764  0.89852  1.0000
  H   H88       1.0  0.13158  0.50967  0.55816  1.0000
  S   S23       1.0  0.16482  0.54125  0.69830  1.0000
  Fe  Fe12      1.0  0.15152  0.53253  0.82280  1.0000
  S   S24       1.0  0.13702  0.54295  0.77884  1.0000
  Fe  Fe13      1.0  0.13998  0.52362  0.73575  1.0000
  C   C57       1.0  0.06652  0.56534  0.57142  1.0000
  Fe  Fe14      1.0  0.16250  0.55975  0.74487  1.0000
  H   H89       1.0  0.10401  0.66202  0.76389  1.0000
  H   H90       1.0  0.06922  0.48328  0.88178  1.0000
  H   H91       1.0  0.11094  0.61548  0.79397  1.0000
  Fe  Fe15      1.0  0.08488  0.63211  0.53346  1.0000
  S   S25       1.0  0.14929  0.66252  0.84880  1.0000
  S   S26       1.0  0.01611  0.45350  0.51530  1.0000
  H   H92       1.0  0.10510  0.62794  0.75288  1.0000
  C   C58       1.0  0.10826  0.61610  0.76003  1.0000
  C   C59       1.0  0.17206  0.62669  0.79703  1.0000
  Fe  Fe16      1.0  0.08387  0.63735  0.62851  1.0000
  H   H93       1.0  0.08613  0.54528  0.58718  1.0000
  S   S27       1.0  0.09196  0.64977  0.68774  1.0000
  Fe  Fe17      1.0  0.05079  0.62229  0.59122  1.0000
  H   H94       1.0  0.11555  0.58862  0.73741  1.0000
  Fe  Fe18      1.0  0.07425  0.60175  0.60274  1.0000
  H   H95       1.0  0.11702  0.53868  0.60547  1.0000
  S   S28       1.0  0.06088  0.61364  0.64861  1.0000
  C   C60       1.0  0.12221  0.55011  0.52008  1.0000
  S   S29       1.0  0.02304  0.61878  0.59065  1.0000
  C   C61       1.0  0.04979  0.54113  0.53922  1.0000
  C   C62       1.0  0.05500  0.54863  0.57593  1.0000
  C   C63       1.0  0.01563  0.58446  0.61634  1.0000
  C   C64       1.0  0.13798  0.63090  0.73365  1.0000
  C   C65       1.0  0.11829  0.55226  0.59649  1.0000
  H   H96       1.0  0.05006  0.54153  0.60775  1.0000
  H   H97       1.0  0.12969  0.61752  0.66100  1.0000
  Fe  Fe19      1.0  0.07596  0.49677  0.49194  1.0000
  C   C66       1.0  0.11884  0.61723  0.68501  1.0000
  C   C67       1.0  0.06882  0.49125  0.85175  1.0000
  H   H98       1.0  0.12517  0.66316  0.63259  1.0000
  H   H99       1.0  0.15984  0.63607  0.96897  1.0000
  H   H100      1.0  0.10535  0.57637  0.57125  1.0000
  H   H101      1.0  0.12640  0.58148  0.54274  1.0000
  H   H102      1.0  0.09665  0.60508  0.75790  1.0000
  C   C68       1.0  0.11266  0.66144  0.69714  1.0000
  S   S30       1.0  0.06221  0.60831  0.54690  1.0000
  S   S31       1.0  0.07262  0.64717  0.57386  1.0000
  C   C69       1.0  0.13121  0.67385  0.74920  1.0000
  C   C70       1.0  0.14317  0.67480  0.67512  1.0000
  C   C71       1.0  0.10276  0.50421  0.97849  1.0000
  C   C72       1.0  0.17138  0.61713  0.76206  1.0000
  H   H103      1.0  0.16109  0.57745  0.81759  1.0000
  C   C73       1.0  0.05603  0.55038  0.49815  1.0000
  C   C74       1.0  0.09835  0.48761  0.96723  1.0000
  C   C75       1.0  0.16749  0.59936  0.76929  1.0000
  H   H104      1.0  0.06388  0.48242  0.82785  1.0000
  H   H105      1.0  0.00945  0.55751  0.63662  1.0000
  S   S32       1.0  0.15259  0.51174  0.78326  1.0000
  H   H106      1.0  0.03492  0.57825  0.53225  1.0000
  H   H107      1.0  0.10754  0.60621  0.68074  1.0000
  H   H108      1.0  0.14926  0.63151  0.71076  1.0000
  S   S33       1.0  0.09806  0.62444  0.58671  1.0000
  C   C76       1.0  0.12456  0.50947  0.62639  1.0000
  N   N7        1.0  0.12292  0.61608  0.72959  1.0000
  H   H109      1.0  0.13558  0.64309  0.72673  1.0000
  C   C77       1.0  0.12682  0.66615  0.66503  1.0000
  H   H110      1.0  0.04070  0.52828  0.54279  1.0000
  H   H111      1.0  0.03326  0.60686  0.50575  1.0000
  C   C78       1.0  0.11493  0.66549  0.73901  1.0000
  H   H112      1.0  0.13753  0.51332  0.63331  1.0000
  H   H113      1.0  0.13012  0.59902  0.77279  1.0000
  H   H114      1.0  0.14147  0.63046  0.76685  1.0000
  C   C79       1.0  0.12664  0.60014  0.73967  1.0000
  C   C80       1.0  0.11305  0.57262  0.54545  1.0000
  C   C81       1.0  0.16906  0.61850  0.83936  1.0000
  H   H115      1.0  0.02919  0.58729  0.61548  1.0000
  H   H116      1.0  0.12816  0.64432  0.95140  1.0000
  H   H117      1.0  0.11583  0.62906  0.67658  1.0000
  H   H118      1.0  0.13759  0.59974  0.71697  1.0000
  S   S34       1.0  0.07336  0.57476  0.61685  1.0000
  S   S35       1.0  0.11472  0.50914  0.71390  1.0000
  H   H119      1.0  0.11730  0.55115  0.48877  1.0000
  C   C82       1.0  0.12722  0.51380  0.92195  1.0000
  H   H120      1.0  0.13796  0.63240  0.91951  1.0000
  S   S36       1.0  0.14536  0.53041  0.89511  1.0000
  H   H121      1.0  0.11578  0.62341  0.94096  1.0000
  H   H122      1.0  0.08823  0.54564  0.52935  1.0000
  C   C83       1.0  0.11730  0.51718  0.95640  1.0000
  H   H123      1.0  0.08213  0.58727  0.52658  1.0000
  H   H124      1.0  0.05942  0.49768  0.86011  1.0000
  C   C84       1.0  0.06752  0.56709  0.49366  1.0000
  C   C85       1.0  0.16424  0.59116  0.81164  1.0000
  H   H125      1.0  0.14336  0.60731  0.95335  1.0000
  H   H126      1.0  0.09274  0.52963  0.56232  1.0000
  C   C86       1.0  0.07285  0.57451  0.53028  1.0000
  H   H127      1.0  0.11097  0.55588  0.62342  1.0000
  C   C87       1.0  0.16512  0.60073  0.84655  1.0000
  Fe  Fe20      1.0  0.17218  0.65770  0.86884  1.0000
  N   N8        1.0  0.11190  0.55459  0.55513  1.0000
  H   H128      1.0  0.12192  0.53669  0.52688  1.0000
  H   H129      1.0  0.17073  0.51685  0.86262  1.0000
  C   C88       1.0  0.09397  0.54334  0.55860  1.0000
  S   S37       1.0  0.17016  0.63013  0.88383  1.0000
  S   S38       1.0  0.16634  0.58754  0.72514  1.0000
  H   H130      1.0  0.13576  0.55853  0.51586  1.0000
  H   H131      1.0  0.17518  0.64041  0.79121  1.0000
  C   C89       1.0  0.02479  0.57251  0.51247  1.0000
  H   H132      1.0  0.17411  0.62355  0.72936  1.0000
  H   H133      1.0  0.17107  0.51954  0.93960  1.0000
  H   H134      1.0  0.01236  0.56911  0.53361  1.0000
  C   C90       1.0  0.00926  0.59759  0.60583  1.0000
  H   H135      1.0  0.12116  0.59780  0.97449  1.0000
  S   S39       1.0  0.05363  0.49998  0.98325  1.0000
  C   C91       1.0  0.13359  0.60653  0.98117  1.0000
  H   H136      1.0  0.01085  0.59723  0.50721  1.0000
  N   N9        1.0  0.13288  0.62365  0.98753  1.0000
  H   H137      1.0  0.12262  0.68340  0.20121  1.0000
  H   H138      1.0  0.13400  0.69155  0.24449  1.0000
  H   H139      1.0  0.12093  0.67998  0.32117  1.0000
  H   H140      1.0  0.15128  0.68015  0.00527  1.0000
  H   H141      1.0  0.10273  0.68581  0.31115  1.0000
  C   C92       1.0  0.12107  0.68644  0.23503  1.0000
  H   H142      1.0  0.11551  0.69686  0.23454  1.0000
  S   S40       1.0  0.17009  0.70364  0.84823  1.0000
  S   S41       1.0  0.16601  0.68797  0.73072  1.0000
  Fe  Fe21      1.0  0.16764  0.68399  0.80214  1.0000
  Fe  Fe22      1.0  0.15361  0.68132  0.89717  1.0000
  S   S42       1.0  0.12927  0.67952  0.93894  1.0000
  C   C93       1.0  0.14541  0.67845  0.71741  1.0000
  H   H143      1.0  0.15411  0.67836  0.65034  1.0000
  H   H144      1.0  0.13274  0.67684  0.78168  1.0000
  C   C94       1.0  0.32796  0.44843  0.18533  1.0000
  C   C95       1.0  0.32986  0.43421  0.12206  1.0000
  H   H145      1.0  0.30608  0.41637  0.18863  1.0000
  H   H146      1.0  0.31497  0.44829  0.18082  1.0000
  H   H147      1.0  0.33438  0.56958  0.00436  1.0000
  H   H148      1.0  0.32189  0.40631  0.18032  1.0000
  H   H149      1.0  0.31676  0.43321  0.11630  1.0000
  H   H150      1.0  0.33302  0.42363  0.10792  1.0000
  H   H151      1.0  0.32895  0.44843  0.22043  1.0000
  C   C96       1.0  0.31944  0.41760  0.19229  1.0000
  H   H152      1.0  0.32043  0.41684  0.22745  1.0000
  N   N10       1.0  0.33158  0.43377  0.16849  1.0000
  H   H153      1.0  0.33872  0.44630  0.10317  1.0000
  H   H154      1.0  0.33709  0.46087  0.16864  1.0000
  H   H155      1.0  0.33922  0.49586  0.00355  1.0000
  Fe  Fe23      1.0  0.17744  0.53107  0.74947  1.0000
  H   H156      1.0  0.32509  0.50212  0.69625  1.0000
  H   H157      1.0  0.19017  0.52135  0.82695  1.0000
  H   H158      1.0  0.20913  0.50948  0.89522  1.0000
  C   C97       1.0  0.32765  0.49774  0.94579  1.0000
  H   H159      1.0  0.20267  0.54937  0.85193  1.0000
  S   S43       1.0  0.31217  0.50188  0.87464  1.0000
  C   C98       1.0  0.33263  0.54692  0.94780  1.0000
  H   H160      1.0  0.33622  0.53729  0.96770  1.0000
  C   C99       1.0  0.33961  0.49084  0.60146  1.0000
  S   S44       1.0  0.33735  0.53436  0.77226  1.0000
  H   H161      1.0  0.21760  0.52831  0.85646  1.0000
  C   C100      1.0  0.32954  0.50640  0.90420  1.0000
  H   H162      1.0  0.22756  0.50922  0.75064  1.0000
  C   C101      1.0  0.33552  0.51829  0.58994  1.0000
  H   H163      1.0  0.29514  0.56795  0.67653  1.0000
  H   H164      1.0  0.27547  0.54879  0.58386  1.0000
  H   H165      1.0  0.29376  0.57185  0.62009  1.0000
  Fe  Fe24      1.0  0.29674  0.54707  0.78787  1.0000
  S   S45       1.0  0.31969  0.56166  0.73867  1.0000
  S   S46       1.0  0.27399  0.55649  0.79316  1.0000
  S   S47       1.0  0.29597  0.52113  0.77170  1.0000
  S   S48       1.0  0.31292  0.54728  0.84108  1.0000
  H   H166      1.0  0.31568  0.48789  0.95897  1.0000
  H   H167      1.0  0.31984  0.54648  0.96246  1.0000
  C   C102      1.0  0.33394  0.48973  0.64566  1.0000
  H   H168      1.0  0.25071  0.54173  0.66938  1.0000
  S   S49       1.0  0.20038  0.52213  0.73890  1.0000
  C   C103      1.0  0.32936  0.50303  0.66210  1.0000
  C   C104      1.0  0.22031  0.53149  0.75701  1.0000
  C   C105      1.0  0.22545  0.54809  0.76844  1.0000
  C   C106      1.0  0.24175  0.55536  0.78045  1.0000
  C   C107      1.0  0.25307  0.54614  0.78149  1.0000
  C   C108      1.0  0.24768  0.52932  0.77161  1.0000
  C   C109      1.0  0.23148  0.52214  0.75897  1.0000
  H   H169      1.0  0.21706  0.55551  0.76680  1.0000
  C   C110      1.0  0.34049  0.50521  0.57367  1.0000
  C   C111      1.0  0.19552  0.54357  0.88457  1.0000
  H   H170      1.0  0.21801  0.53011  0.91290  1.0000
  H   H171      1.0  0.26394  0.52815  0.61401  1.0000
  C   C112      1.0  0.27584  0.53942  0.61084  1.0000
  H   H172      1.0  0.26613  0.52292  0.69207  1.0000
  H   H173      1.0  0.24575  0.56838  0.78810  1.0000
  H   H174      1.0  0.26187  0.56215  0.63771  1.0000
  H   H175      1.0  0.27990  0.53969  0.71701  1.0000
  N   N11       1.0  0.27759  0.54706  0.65160  1.0000
  C   C113      1.0  0.33004  0.51730  0.63417  1.0000
  H   H176      1.0  0.28879  0.52934  0.67801  1.0000
  H   H177      1.0  0.30487  0.55798  0.63820  1.0000
  S   S50       1.0  0.32434  0.53424  0.65310  1.0000
  H   H178      1.0  0.32761  0.57691  0.93131  1.0000
  H   H179      1.0  0.25601  0.52186  0.77345  1.0000
  C   C114      1.0  0.26295  0.55270  0.66346  1.0000
  H   H180      1.0  0.28671  0.53498  0.60136  1.0000
  C   C115      1.0  0.27811  0.53416  0.68616  1.0000
  C   C116      1.0  0.29354  0.56189  0.64625  1.0000
  Fe  Fe25      1.0  0.31399  0.52250  0.82094  1.0000
  Fe  Fe26      1.0  0.31963  0.53567  0.72487  1.0000
  C   C117      1.0  0.21026  0.52318  0.88928  1.0000
  N   N12       1.0  0.19335  0.52520  0.89265  1.0000
  H   H181      1.0  0.26416  0.55887  0.69362  1.0000
  H   H182      1.0  0.33130  0.54262  0.91539  1.0000
  H   H183      1.0  0.33318  0.47862  0.66732  1.0000
  H   H184      1.0  0.18299  0.54556  0.88649  1.0000
  H   H185      1.0  0.19074  0.52472  0.96167  1.0000
  Fe  Fe27      1.0  0.33569  0.55930  0.79026  1.0000
  C   C118      1.0  0.18387  0.51810  0.93629  1.0000
  H   H186      1.0  0.33596  0.52924  0.56812  1.0000
  C   C119      1.0  0.18370  0.51597  0.86029  1.0000
  H   H187      1.0  0.20264  0.55093  0.90859  1.0000
  H   H188      1.0  0.18182  0.50421  0.94335  1.0000
  H   H189      1.0  0.33917  0.57292  0.88445  1.0000
  S   S51       1.0  0.17701  0.55106  0.79239  1.0000
  H   H190      1.0  0.18222  0.50216  0.86447  1.0000
  C   C120      1.0  0.34020  0.57649  0.91766  1.0000
  C   C121      1.0  0.34100  0.50216  0.97099  1.0000
  S   S52       1.0  0.17560  0.67522  0.92020  1.0000
  H   H191      1.0  0.33939  0.90251  0.99199  1.0000
  C   C122      1.0  0.31747  0.86810  0.16701  1.0000
  N   N13       1.0  0.32881  0.86642  0.19881  1.0000
  C   C123      1.0  0.32214  0.84900  0.22277  1.0000
  C   C124      1.0  0.33387  0.87573  0.01264  1.0000
  H   H192      1.0  0.33045  0.84734  0.24694  1.0000
  H   H193      1.0  0.32219  0.88107  0.14811  1.0000
  H   H194      1.0  0.30914  0.84624  0.24041  1.0000
  H   H195      1.0  0.32654  0.84826  0.02419  1.0000
  C   C125      1.0  0.32968  0.87911  0.22939  1.0000
  H   H196      1.0  0.30432  0.86587  0.18288  1.0000
  H   H197      1.0  0.31697  0.87720  0.24758  1.0000
  H   H198      1.0  0.31674  0.85887  0.14300  1.0000
  H   H199      1.0  0.33576  0.92960  0.30643  1.0000
  H   H200      1.0  0.32137  0.83914  0.20055  1.0000
  H   H201      1.0  0.33464  0.89238  0.21227  1.0000
  C   C126      1.0  0.32693  0.85908  0.00200  1.0000
  H   H202      1.0  0.33844  0.87846  0.25328  1.0000
  Fe  Fe28      1.0  0.19203  0.69611  0.86741  1.0000
  H   H203      1.0  0.25526  0.82306  0.69952  1.0000
  S   S53       1.0  0.21921  0.71307  0.87288  1.0000
  H   H204      1.0  0.27939  0.80269  0.69481  1.0000
  H   H205      1.0  0.22018  0.70212  0.76333  1.0000
  H   H206      1.0  0.20474  0.69784  0.72647  1.0000
  C   C127      1.0  0.28691  0.84519  0.69763  1.0000
  C   C128      1.0  0.29338  0.83124  0.63728  1.0000
  H   H207      1.0  0.24379  0.73669  0.71684  1.0000
  H   H208      1.0  0.22710  0.70646  0.70621  1.0000
  H   H209      1.0  0.26001  0.81288  0.65413  1.0000
  Fe  Fe29      1.0  0.28825  0.80822  0.83015  1.0000
  S   S54       1.0  0.31103  0.80338  0.79721  1.0000
  S   S55       1.0  0.26074  0.79309  0.82222  1.0000
  Fe  Fe30      1.0  0.32345  0.81266  0.85478  1.0000
  S   S56       1.0  0.29997  0.81545  0.89045  1.0000
  H   H210      1.0  0.21254  0.74373  0.68955  1.0000
  H   H211      1.0  0.27838  0.84418  0.72813  1.0000
  H   H212      1.0  0.20081  0.72210  0.68240  1.0000
  C   C129      1.0  0.21720  0.70696  0.73200  1.0000
  H   H213      1.0  0.19026  0.71616  0.75947  1.0000
  H   H214      1.0  0.22328  0.73092  0.66367  1.0000
  N   N14       1.0  0.21666  0.72447  0.73249  1.0000
  C   C130      1.0  0.21322  0.73062  0.69006  1.0000
  C   C131      1.0  0.23313  0.73591  0.74201  1.0000
  Fe  Fe31      1.0  0.31070  0.84238  0.85664  1.0000
  Fe  Fe32      1.0  0.32037  0.83126  0.77029  1.0000
  H   H215      1.0  0.23613  0.73124  0.77349  1.0000
  C   C132      1.0  0.28318  0.81509  0.70819  1.0000
  C   C133      1.0  0.23023  0.73551  0.86062  1.0000
  C   C134      1.0  0.24780  0.74189  0.86286  1.0000
  C   C135      1.0  0.25728  0.75946  0.85187  1.0000
  C   C136      1.0  0.24930  0.77091  0.83819  1.0000
  C   C137      1.0  0.23173  0.76454  0.83586  1.0000
  C   C138      1.0  0.22221  0.74699  0.84733  1.0000
  H   H216      1.0  0.25415  0.73316  0.87322  1.0000
  H   H217      1.0  0.27077  0.76413  0.85388  1.0000
  H   H218      1.0  0.22538  0.77330  0.82579  1.0000
  H   H219      1.0  0.20865  0.74241  0.84645  1.0000
  H   H220      1.0  0.28661  0.85618  0.67540  1.0000
  N   N15       1.0  0.28191  0.82910  0.67804  1.0000
  H   H221      1.0  0.23300  0.74911  0.74446  1.0000
  C   C139      1.0  0.26418  0.82490  0.66917  1.0000
  H   H222      1.0  0.29008  0.81934  0.62160  1.0000
  S   S57       1.0  0.29700  0.83575  0.79949  1.0000
  H   H223      1.0  0.29290  0.84182  0.61390  1.0000
  H   H224      1.0  0.26271  0.83530  0.64693  1.0000
  H   H225      1.0  0.30006  0.84846  0.70570  1.0000
  H   H226      1.0  0.32702  0.86888  0.73245  1.0000
  H   H227      1.0  0.33158  0.95135  0.68723  1.0000
  H   H228      1.0  0.29641  0.81775  0.71548  1.0000
  H   H229      1.0  0.30686  0.83442  0.64305  1.0000
  C   C140      1.0  0.32747  0.88685  0.94493  1.0000
  H   H230      1.0  0.27487  0.81327  0.73955  1.0000
  C   C141      1.0  0.20294  0.72429  0.76616  1.0000
  C   C142      1.0  0.33416  0.88964  0.98397  1.0000
  S   S58       1.0  0.31346  0.86728  0.88363  1.0000
  C   C143      1.0  0.32081  0.87021  0.93392  1.0000
  H   H231      1.0  0.20478  0.71911  0.79833  1.0000
  C   C144      1.0  0.33248  0.87227  0.69875  1.0000
  C   C145      1.0  0.32059  0.85632  0.96255  1.0000
  S   S59       1.0  0.33477  0.83999  0.82476  1.0000
  H   H232      1.0  0.33905  0.93438  0.67354  1.0000
  H   H233      1.0  0.32763  0.89764  0.92294  1.0000
  C   C146      1.0  0.33648  0.86014  0.67576  1.0000
  S   S60       1.0  0.33172  0.83888  0.69978  1.0000
  H   H234      1.0  0.20243  0.73734  0.76866  1.0000
  H   H235      1.0  0.31538  0.84346  0.95446  1.0000
  H   H236      1.0  0.33188  0.89796  0.69575  1.0000
  H   H237      1.0  0.34200  0.96655  0.61236  1.0000
  S   S61       1.0  0.34020  0.80171  0.89074  1.0000
  S   S62       1.0  0.19040  0.67763  0.81842  1.0000
  C   C147      1.0  0.33527  0.88875  0.67791  1.0000
  C   C148      1.0  0.50359  0.23906  0.31425  1.0000
  C   C149      1.0  0.37283  0.01418  0.10106  1.0000
  Fe  Fe33      1.0  0.46482  0.04593  0.10352  1.0000
  S   S63       1.0  0.44909  0.06037  0.13251  1.0000
  S   S64       1.0  0.48120  0.03529  0.14059  1.0000
  Fe  Fe34      1.0  0.43151  0.04923  0.08518  1.0000
  S   S65       1.0  0.40296  0.03944  0.10077  1.0000
  Fe  Fe35      1.0  0.46328  0.08098  0.07795  1.0000
  S   S66       1.0  0.47858  0.10826  0.08685  1.0000
  S   S67       1.0  0.47974  0.06679  0.05079  1.0000
  H   H238      1.0  0.45239  0.20020  0.42472  1.0000
  H   H239      1.0  0.45451  0.09358  0.16557  1.0000
  Fe  Fe36      1.0  0.45937  0.05529  0.01115  1.0000
  H   H240      1.0  0.46779  0.13864  0.43158  1.0000
  C   C150      1.0  0.47656  0.11519  0.13845  1.0000
  C   C151      1.0  0.48804  0.13083  0.14650  1.0000
  C   C152      1.0  0.48642  0.13680  0.18692  1.0000
  C   C153      1.0  0.46355  0.10552  0.17134  1.0000
  H   H241      1.0  0.49811  0.13846  0.12123  1.0000
  H   H242      1.0  0.49519  0.14894  0.19258  1.0000
  H   H243      1.0  0.46637  0.19573  0.38379  1.0000
  S   S68       1.0  0.48101  0.17036  0.34678  1.0000
  H   H244      1.0  0.48587  0.03003  0.04203  1.0000
  Fe  Fe37      1.0  0.50184  0.16664  0.38084  1.0000
  C   C154      1.0  0.49536  0.06911  0.14800  1.0000
  H   H245      1.0  0.42506  0.07317  0.43258  1.0000
  H   H246      1.0  0.48265  0.06955  0.14958  1.0000
  C   C155      1.0  0.47317  0.12723  0.21947  1.0000
  C   C156      1.0  0.46183  0.11155  0.21148  1.0000
  H   H247      1.0  0.45152  0.10407  0.23638  1.0000
  S   S69       1.0  0.44402  0.07140  0.03261  1.0000
  C   C157      1.0  0.47585  0.21284  0.47629  1.0000
  S   S70       1.0  0.44597  0.03274  0.06154  1.0000
  H   H248      1.0  0.47989  0.22656  0.46253  1.0000
  Fe  Fe38      1.0  0.48931  0.15657  0.29499  1.0000
  S   S71       1.0  0.47659  0.33675  0.40821  1.0000
  S   S72       1.0  0.50019  0.16026  0.45302  1.0000
  H   H249      1.0  0.49951  0.22098  0.40649  1.0000
  S   S73       1.0  0.50769  0.18070  0.25670  1.0000
  C   C158      1.0  0.46590  0.20387  0.40990  1.0000
  H   H250      1.0  0.40528  0.06668  0.46849  1.0000
  S   S74       1.0  0.50126  0.32612  0.30623  1.0000
  S   S75       1.0  0.47035  0.13407  0.27082  1.0000
  C   C159      1.0  0.49474  0.20729  0.42086  1.0000
  H   H251      1.0  0.47004  0.21729  0.39368  1.0000
  C   C160      1.0  0.47145  0.18386  0.46163  1.0000
  C   C161      1.0  0.49821  0.05358  0.14633  1.0000
  C   C162      1.0  0.48418  0.14170  0.48077  1.0000
  C   C163      1.0  0.45633  0.11969  0.48750  1.0000
  C   C164      1.0  0.50375  0.01387  0.08225  1.0000
  S   S76       1.0  0.49219  0.21737  0.30914  1.0000
  H   H252      1.0  0.38691  0.01365  0.00366  1.0000
  H   H253      1.0  0.49662  0.10365  0.00104  1.0000
  C   C165      1.0  0.46937  0.13374  0.46331  1.0000
  N   N16       1.0  0.47696  0.20195  0.44220  1.0000
  H   H254      1.0  0.39450  0.04411  0.01374  1.0000
  H   H255      1.0  0.49679  0.27739  0.31561  1.0000
  C   C166      1.0  0.50352  0.26835  0.31694  1.0000
  H   H256      1.0  0.44474  0.11389  0.47422  1.0000
  H   H257      1.0  0.42402  0.08183  0.48282  1.0000
  H   H258      1.0  0.47226  0.17529  0.43684  1.0000
  H   H259      1.0  0.36733  0.02404  0.10616  1.0000
  Fe  Fe39      1.0  0.50126  0.19433  0.31194  1.0000
  C   C167      1.0  0.49501  0.25098  0.31323  1.0000
  H   H260      1.0  0.48172  0.24681  0.30900  1.0000
  C   C168      1.0  0.41928  0.06998  0.46713  1.0000
  H   H261      1.0  0.44867  0.06381  0.45243  1.0000
  H   H262      1.0  0.49571  0.01026  0.11442  1.0000
  C   C169      1.0  0.39045  0.01815  0.09740  1.0000
  H   H263      1.0  0.47133  0.01200  0.07730  1.0000
  C   C170      1.0  0.44230  0.06086  0.48645  1.0000
  Fe  Fe40      1.0  0.50103  0.33759  0.36878  1.0000
  H   H264      1.0  0.50345  0.20535  0.44357  1.0000
  H   H265      1.0  0.40297  0.03606  0.46909  1.0000
  C   C171      1.0  0.41706  0.04027  0.46766  1.0000
  H   H266      1.0  0.49937  0.10692  0.30238  1.0000
  H   H267      1.0  0.41997  0.02932  0.48376  1.0000
  H   H268      1.0  0.47759  0.33675  0.14315  1.0000
  H   H269      1.0  0.42269  0.04241  0.43309  1.0000
  H   H270      1.0  0.49579  0.19976  0.39397  1.0000
  H   H271      1.0  0.50067  0.12644  0.27121  1.0000
  H   H272      1.0  0.45380  0.33142  0.28248  1.0000
  C   C172      1.0  0.50254  0.11394  0.26918  1.0000
  H   H273      1.0  0.45808  0.17930  0.47799  1.0000
  H   H274      1.0  0.46857  0.33441  0.32084  1.0000
  H   H275      1.0  0.49304  0.10671  0.24937  1.0000
  H   H276      1.0  0.41612  0.03006  0.01572  1.0000
  H   H277      1.0  0.49867  0.33983  0.19459  1.0000
  H   H278      1.0  0.50774  0.12517  0.00881  1.0000
  H   H279      1.0  0.50655  0.09628  0.14606  1.0000
  C   C173      1.0  0.48027  0.01581  0.04648  1.0000
  C   C174      1.0  0.50482  0.01278  0.00546  1.0000
  H   H280      1.0  0.47263  0.01199  0.01984  1.0000
  C   C175      1.0  0.46588  0.34031  0.29048  1.0000
  H   H281      1.0  0.47622  0.34100  0.26437  1.0000
  C   C176      1.0  0.50870  0.11457  0.99049  1.0000
  S   S77       1.0  0.50845  0.15085  0.33269  1.0000
  H   H282      1.0  0.47966  0.18189  0.48580  1.0000
  S   S78       1.0  0.46477  0.04821  0.94461  1.0000
  Fe  Fe41      1.0  0.46848  0.06133  0.64379  1.0000
  S   S79       1.0  0.46773  0.08737  0.65378  1.0000
  S   S80       1.0  0.49150  0.05447  0.62474  1.0000
  Fe  Fe42      1.0  0.43047  0.04398  0.66462  1.0000
  S   S81       1.0  0.42611  0.06856  0.67561  1.0000
  Fe  Fe43      1.0  0.44561  0.08031  0.61635  1.0000
  S   S82       1.0  0.44122  0.09600  0.55883  1.0000
  Fe  Fe44      1.0  0.44860  0.07343  0.71220  1.0000
  S   S83       1.0  0.44945  0.08462  0.77572  1.0000
  S   S84       1.0  0.44785  0.05510  0.60255  1.0000
  S   S85       1.0  0.45152  0.04803  0.70512  1.0000
  H   H283      1.0  0.42464  0.02390  0.96728  1.0000
  H   H284      1.0  0.39918  0.04013  0.89602  1.0000
  H   H285      1.0  0.41932  0.04204  0.55213  1.0000
  H   H286      1.0  0.42021  0.05226  0.90532  1.0000
  H   H287      1.0  0.40881  0.06033  0.97328  1.0000
  C   C177      1.0  0.41955  0.03355  0.98017  1.0000
  C   C178      1.0  0.45914  0.05789  0.89916  1.0000
  C   C179      1.0  0.45648  0.07358  0.89931  1.0000
  C   C180      1.0  0.45312  0.08145  0.86148  1.0000
  C   C181      1.0  0.45214  0.07361  0.82355  1.0000
  C   C182      1.0  0.45413  0.05760  0.82407  1.0000
  C   C183      1.0  0.45781  0.04988  0.86157  1.0000
  H   H288      1.0  0.45750  0.07989  0.92810  1.0000
  H   H289      1.0  0.45155  0.09383  0.86136  1.0000
  H   H290      1.0  0.45326  0.05133  0.79530  1.0000
  H   H291      1.0  0.45977  0.03769  0.86133  1.0000
  H   H292      1.0  0.44604  0.05053  0.50276  1.0000
  H   H293      1.0  0.38024  0.01610  0.54845  1.0000
  H   H294      1.0  0.47468  0.11618  0.57770  1.0000
  H   H295      1.0  0.49159  0.01343  0.53248  1.0000
  H   H296      1.0  0.50134  0.06550  0.71024  1.0000
  H   H297      1.0  0.48996  0.07125  0.80217  1.0000
  N   N17       1.0  0.47158  0.33944  0.64141  1.0000
  C   C184      1.0  0.39414  0.01732  0.60269  1.0000
  H   H298      1.0  0.49170  0.09315  0.78829  1.0000
  H   H299      1.0  0.38762  0.04882  0.96337  1.0000
  H   H300      1.0  0.47535  0.32277  0.69248  1.0000
  H   H301      1.0  0.46261  0.20913  0.49324  1.0000
  C   C185      1.0  0.47316  0.12095  0.54582  1.0000
  C   C186      1.0  0.45817  0.11325  0.52884  1.0000
  H   H302      1.0  0.49893  0.09101  0.59944  1.0000
  C   C187      1.0  0.39865  0.04752  0.97826  1.0000
  N   N18       1.0  0.40481  0.03455  0.95981  1.0000
  C   C188      1.0  0.41002  0.03947  0.91273  1.0000
  C   C189      1.0  0.48602  0.13525  0.52206  1.0000
  H   H303      1.0  0.48680  0.02221  0.58059  1.0000
  C   C190      1.0  0.49361  0.01397  0.56687  1.0000
  H   H304      1.0  0.50646  0.02796  0.63333  1.0000
  C   C191      1.0  0.39109  0.01768  0.96834  1.0000
  H   H305      1.0  0.39032  0.02743  0.61504  1.0000
  H   H306      1.0  0.44759  0.07249  0.50254  1.0000
  H   H307      1.0  0.49742  0.14138  0.53582  1.0000
  H   H308      1.0  0.41517  0.03019  0.89796  1.0000
  H   H309      1.0  0.46291  0.31199  0.65353  1.0000
  H   H310      1.0  0.42003  0.06369  0.55161  1.0000
  H   H311      1.0  0.48295  0.07765  0.75345  1.0000
  C   C192      1.0  0.41579  0.05223  0.53454  1.0000
  H   H312      1.0  0.45611  0.32914  0.59306  1.0000
  H   H313      1.0  0.37971  0.01792  0.95352  1.0000
  S   S86       1.0  0.41056  0.01768  0.67323  1.0000
  C   C193      1.0  0.46565  0.32334  0.67138  1.0000
  H   H314      1.0  0.45378  0.32211  0.69293  1.0000
  H   H315      1.0  0.48418  0.21177  0.50092  1.0000
  H   H316      1.0  0.43013  0.04603  0.97418  1.0000
  H   H317      1.0  0.48553  0.33004  0.59403  1.0000
  H   H318      1.0  0.40168  0.04806  0.53771  1.0000
  C   C194      1.0  0.49297  0.08165  0.77478  1.0000
  H   H319      1.0  0.44607  0.33813  0.63359  1.0000
  C   C195      1.0  0.48748  0.34077  0.61390  1.0000
  C   C196      1.0  0.45839  0.33958  0.61390  1.0000
  H   H320      1.0  0.49775  0.34076  0.63352  1.0000
  C   C197      1.0  0.40464  0.01058  0.62449  1.0000
  C   C198      1.0  0.38841  0.01088  0.56520  1.0000
  H   H321      1.0  0.50423  0.09578  0.69231  1.0000
  H   H322      1.0  0.50818  0.05866  0.75862  1.0000
  N   N19       1.0  0.42361  0.05584  0.48886  1.0000
  N   N20       1.0  0.46483  0.35742  0.29517  1.0000
  C   C199      1.0  0.49629  0.35782  0.45941  1.0000
  Fe  Fe45      1.0  0.44259  0.40825  0.07847  1.0000
  S   S87       1.0  0.43465  0.38228  0.05637  1.0000
  S   S88       1.0  0.42887  0.41802  0.12986  1.0000
  Fe  Fe46      1.0  0.46167  0.38379  0.06167  1.0000
  S   S89       1.0  0.46778  0.36129  0.09236  1.0000
  S   S90       1.0  0.46871  0.40874  0.08867  1.0000
  Fe  Fe47      1.0  0.37555  0.47183  0.08166  1.0000
  S   S91       1.0  0.37176  0.44484  0.06878  1.0000
  Fe  Fe48      1.0  0.36588  0.49457  0.14166  1.0000
  C   C200      1.0  0.43250  0.56973  0.05001  1.0000
  S   S92       1.0  0.38487  0.48115  0.14212  1.0000
  H   H323      1.0  0.47114  0.49308  0.08561  1.0000
  H   H324      1.0  0.36789  0.45247  0.28682  1.0000
  C   C201      1.0  0.46332  0.64992  0.01544  1.0000
  H   H325      1.0  0.45820  0.44597  0.08640  1.0000
  C   C202      1.0  0.48439  0.34928  0.15138  1.0000
  S   S93       1.0  0.50435  0.62728  0.04623  1.0000
  H   H326      1.0  0.47324  0.59748  0.02885  1.0000
  C   C203      1.0  0.44781  0.59024  0.09396  1.0000
  H   H327      1.0  0.42280  0.51977  0.48172  1.0000
  H   H328      1.0  0.48454  0.36395  0.33553  1.0000
  C   C204      1.0  0.35616  0.48613  0.25133  1.0000
  C   C205      1.0  0.36053  0.47136  0.25041  1.0000
  C   C206      1.0  0.36460  0.46396  0.28771  1.0000
  C   C207      1.0  0.36471  0.47147  0.32599  1.0000
  H   H329      1.0  0.44849  0.48577  0.10187  1.0000
  S   S94       1.0  0.37083  0.46222  0.37119  1.0000
  H   H330      1.0  0.36070  0.46561  0.22101  1.0000
  Fe  Fe49      1.0  0.37635  0.47644  0.42904  1.0000
  N   N21       1.0  0.44622  0.58633  0.04925  1.0000
  C   C208      1.0  0.48163  0.36373  0.13176  1.0000
  S   S95       1.0  0.49942  0.57890  0.20830  1.0000
  S   S96       1.0  0.40336  0.49325  0.42958  1.0000
  S   S97       1.0  0.49106  0.62424  0.41710  1.0000
  C   C209      1.0  0.49048  0.37986  0.14256  1.0000
  H   H331      1.0  0.42227  0.47891  0.23139  1.0000
  C   C210      1.0  0.44044  0.46284  0.04563  1.0000
  C   C211      1.0  0.41283  0.42505  0.11264  1.0000
  C   C212      1.0  0.40652  0.43530  0.13770  1.0000
  C   C213      1.0  0.39412  0.44159  0.12399  1.0000
  C   C214      1.0  0.38771  0.43740  0.08553  1.0000
  C   C215      1.0  0.39384  0.42691  0.06076  1.0000
  C   C216      1.0  0.40656  0.42092  0.07399  1.0000
  H   H332      1.0  0.41129  0.43842  0.16773  1.0000
  H   H333      1.0  0.38925  0.44930  0.14386  1.0000
  H   H334      1.0  0.38886  0.42353  0.03111  1.0000
  H   H335      1.0  0.41132  0.41291  0.05459  1.0000
  C   C217      1.0  0.49627  0.35099  0.18062  1.0000
  H   H336      1.0  0.48832  0.39103  0.12820  1.0000
  H   H337      1.0  0.35852  0.44696  0.15718  1.0000
  H   H338      1.0  0.36045  0.49216  0.35639  1.0000
  H   H339      1.0  0.47066  0.36560  0.22690  1.0000
  H   H340      1.0  0.48115  0.38196  0.30767  1.0000
  C   C218      1.0  0.44216  0.60001  0.02444  1.0000
  H   H341      1.0  0.43018  0.60145  0.03943  1.0000
  H   H342      1.0  0.43560  0.51651  0.29203  1.0000
  H   H343      1.0  0.49189  0.36994  0.27879  1.0000
  H   H344      1.0  0.49211  0.44248  0.08703  1.0000
  H   H345      1.0  0.43945  0.49240  0.25547  1.0000
  Fe  Fe50      1.0  0.47622  0.42052  0.01975  1.0000
  S   S98       1.0  0.35479  0.48339  0.08420  1.0000
  H   H346      1.0  0.42981  0.46144  0.07164  1.0000
  H   H347      1.0  0.40241  0.47357  0.30024  1.0000
  Fe  Fe51      1.0  0.40222  0.50413  0.09864  1.0000
  C   C219      1.0  0.50291  0.62105  0.37111  1.0000
  H   H348      1.0  0.40048  0.49133  0.32581  1.0000
  Fe  Fe52      1.0  0.50808  0.57806  0.13902  1.0000
  H   H349      1.0  0.35086  0.43416  0.20889  1.0000
  S   S99       1.0  0.35092  0.49548  0.20477  1.0000
  C   C220      1.0  0.50563  0.36722  0.18983  1.0000
  H   H350      1.0  0.45025  0.36865  0.33566  1.0000
  C   C221      1.0  0.36046  0.48632  0.32696  1.0000
  C   C222      1.0  0.45863  0.48701  0.07462  1.0000
  C   C223      1.0  0.46081  0.36455  0.25458  1.0000
  H   H351      1.0  0.46570  0.57481  0.04573  1.0000
  S   S100      1.0  0.38403  0.51864  0.10257  1.0000
  Fe  Fe53      1.0  0.50320  0.61185  0.11001  1.0000
  H   H352      1.0  0.45244  0.61260  0.02277  1.0000
  S   S101      1.0  0.45084  0.42225  0.01175  1.0000
  S   S102      1.0  0.39462  0.49376  0.03767  1.0000
  H   H353      1.0  0.48970  0.63182  0.32795  1.0000
  N   N22       1.0  0.45718  0.47022  0.06025  1.0000
  Fe  Fe54      1.0  0.39137  0.51048  0.46024  1.0000
  S   S103      1.0  0.49451  0.61572  0.17755  1.0000
  C   C224      1.0  0.50260  0.38161  0.17101  1.0000
  H   H354      1.0  0.35074  0.56033  0.00946  1.0000
  H   H355      1.0  0.35252  0.42426  0.16056  1.0000
  H   H356      1.0  0.43525  0.55913  0.06841  1.0000
  C   C225      1.0  0.35593  0.49347  0.28985  1.0000
  C   C226      1.0  0.40952  0.48694  0.30541  1.0000
  N   N23       1.0  0.41634  0.49828  0.26407  1.0000
  H   H357      1.0  0.45043  0.57996  0.11385  1.0000
  H   H358      1.0  0.43875  0.34734  0.32524  1.0000
  H   H359      1.0  0.41978  0.48649  0.32462  1.0000
  Fe  Fe55      1.0  0.37472  0.50631  0.04471  1.0000
  C   C227      1.0  0.43992  0.56459  0.35210  1.0000
  H   H360      1.0  0.44797  0.58521  0.41515  1.0000
  C   C228      1.0  0.46247  0.58534  0.02866  1.0000
  C   C229      1.0  0.45136  0.35596  0.33108  1.0000
  S   S104      1.0  0.36438  0.49485  0.45487  1.0000
  H   H361      1.0  0.35246  0.50485  0.29085  1.0000
  Fe  Fe56      1.0  0.47932  0.58776  0.18451  1.0000
  S   S105      1.0  0.45207  0.57561  0.21441  1.0000
  S   S106      1.0  0.48641  0.58449  0.11595  1.0000
  H   H362      1.0  0.44198  0.59738  0.34702  1.0000
  N   N24       1.0  0.45543  0.57952  0.35216  1.0000
  H   H363      1.0  0.47106  0.46391  0.10918  1.0000
  H   H364      1.0  0.48211  0.58780  0.32773  1.0000
  H   H365      1.0  0.45911  0.57016  0.41520  1.0000
  H   H366      1.0  0.44843  0.35629  0.24644  1.0000
  H   H367      1.0  0.47042  0.59246  0.39836  1.0000
  H   H368      1.0  0.45725  0.49605  0.04820  1.0000
  H   H369      1.0  0.46847  0.57481  0.29441  1.0000
  H   H370      1.0  0.40681  0.50639  0.20815  1.0000
  H   H371      1.0  0.45840  0.60239  0.09483  1.0000
  C   C230      1.0  0.47692  0.63784  0.06857  1.0000
  C   C231      1.0  0.44500  0.55714  0.18935  1.0000
  C   C232      1.0  0.42820  0.55081  0.18097  1.0000
  C   C233      1.0  0.42327  0.53713  0.15654  1.0000
  C   C234      1.0  0.43511  0.52976  0.14075  1.0000
  C   C235      1.0  0.45174  0.53583  0.15024  1.0000
  C   C236      1.0  0.45665  0.54946  0.17455  1.0000
  H   H372      1.0  0.41915  0.55675  0.19229  1.0000
  H   H373      1.0  0.41036  0.53238  0.14987  1.0000
  H   H374      1.0  0.46096  0.53018  0.13826  1.0000
  H   H375      1.0  0.46960  0.55411  0.18132  1.0000
  H   H376      1.0  0.43856  0.44989  0.03604  1.0000
  H   H377      1.0  0.44825  0.45603  0.12370  1.0000
  S   S107      1.0  0.49911  0.44336  0.99388  1.0000
  H   H378      1.0  0.43364  0.50041  0.20660  1.0000
  H   H379      1.0  0.47026  0.48121  0.99636  1.0000
  H   H380      1.0  0.47787  0.63423  0.10187  1.0000
  C   C237      1.0  0.42849  0.49223  0.23832  1.0000
  C   C238      1.0  0.45324  0.59499  0.33071  1.0000
  C   C239      1.0  0.48712  0.64077  0.99239  1.0000
  H   H381      1.0  0.46453  0.60655  0.33124  1.0000
  C   C240      1.0  0.47024  0.57666  0.32855  1.0000
  S   S108      1.0  0.40359  0.53896  0.44471  1.0000
  H   H382      1.0  0.39270  0.50249  0.25791  1.0000
  H   H383      1.0  0.42853  0.56631  0.37003  1.0000
  C   C241      1.0  0.45834  0.58190  0.39716  1.0000
  H   H384      1.0  0.41610  0.52099  0.29128  1.0000
  C   C242      1.0  0.40221  0.49805  0.23960  1.0000
  H   H385      1.0  0.47239  0.56518  0.34395  1.0000
  C   C243      1.0  0.47091  0.47242  0.02433  1.0000
  C   C244      1.0  0.47995  0.35030  0.44897  1.0000
  H   H386      1.0  0.43728  0.56254  0.31857  1.0000
  C   C245      1.0  0.46451  0.64497  0.05857  1.0000
  H   H387      1.0  0.48372  0.47770  0.03447  1.0000
  C   C246      1.0  0.42506  0.51591  0.27289  1.0000
  H   H388      1.0  0.43595  0.59151  0.11028  1.0000
  H   H389      1.0  0.43062  0.52471  0.24241  1.0000
  H   H390      1.0  0.44106  0.55266  0.36807  1.0000
  C   C247      1.0  0.45876  0.45859  0.09653  1.0000
  H   H391      1.0  0.45584  0.64671  0.08432  1.0000
  H   H392      1.0  0.50697  0.35538  0.44241  1.0000
  C   C248      1.0  0.49923  0.62578  0.33042  1.0000
  H   H393      1.0  0.45150  0.59380  0.29626  1.0000
  C   C249      1.0  0.48834  0.63582  0.03544  1.0000
  H   H394      1.0  0.50508  0.62682  0.26160  1.0000
  S   S109      1.0  0.42953  0.51287  0.10962  1.0000
  H   H395      1.0  0.39544  0.48494  0.23231  1.0000
  H   H396      1.0  0.46012  0.37756  0.25659  1.0000
  H   H397      1.0  0.42007  0.56996  0.06563  1.0000
  C   C250      1.0  0.48132  0.36883  0.30465  1.0000
  S   S110      1.0  0.44767  0.65884  0.00374  1.0000
  C   C251      1.0  0.50793  0.62298  0.29282  1.0000
  H   H398      1.0  0.45411  0.35063  0.36218  1.0000
  H   H399      1.0  0.47013  0.45999  0.01259  1.0000
  C   C252      1.0  0.46620  0.35358  0.47139  1.0000
  H   H400      1.0  0.43894  0.47101  0.01747  1.0000
  Fe  Fe57      1.0  0.49408  0.61460  0.48398  1.0000
  C   C253      1.0  0.34910  0.43480  0.17424  1.0000
  H   H401      1.0  0.45353  0.34782  0.46339  1.0000
  H   H402      1.0  0.50106  0.38719  0.04628  1.0000
  C   C254      1.0  0.42047  0.54481  0.47491  1.0000
  H   H403      1.0  0.42124  0.57088  0.47414  1.0000
  H   H404      1.0  0.43089  0.56634  0.01683  1.0000
  C   C255      1.0  0.50552  0.44896  0.07657  1.0000
  H   H405      1.0  0.46193  0.58297  0.99442  1.0000
  C   C256      1.0  0.42650  0.56140  0.48593  1.0000
  H   H406      1.0  0.44069  0.59745  0.99062  1.0000
  H   H407      1.0  0.50870  0.41516  0.07509  1.0000
  S   S111      1.0  0.47159  0.39567  0.99254  1.0000
  Fe  Fe58      1.0  0.44527  0.39640  0.98939  1.0000
  H   H408      1.0  0.41943  0.65957  0.73515  1.0000
  H   H409      1.0  0.47265  0.47878  0.55621  1.0000
  S   S112      1.0  0.37432  0.46175  0.49425  1.0000
  S   S113      1.0  0.43139  0.39478  0.93111  1.0000
  Fe  Fe59      1.0  0.46817  0.42244  0.64283  1.0000
  S   S114      1.0  0.47848  0.40142  0.65799  1.0000
  S   S115      1.0  0.48069  0.45014  0.65077  1.0000
  Fe  Fe60      1.0  0.43631  0.39825  0.61904  1.0000
  S   S116      1.0  0.44379  0.37484  0.63234  1.0000
  S   S117      1.0  0.41257  0.39896  0.59327  1.0000
  Fe  Fe61      1.0  0.45247  0.38640  0.69178  1.0000
  S   S118      1.0  0.45419  0.37176  0.75409  1.0000
  Fe  Fe62      1.0  0.46934  0.39167  0.59755  1.0000
  C   C257      1.0  0.35635  0.51519  0.95447  1.0000
  S   S119      1.0  0.44269  0.40823  0.68156  1.0000
  S   S120      1.0  0.46124  0.41412  0.57948  1.0000
  H   H410      1.0  0.36097  0.44645  0.69255  1.0000
  H   H411      1.0  0.49230  0.35284  0.59105  1.0000
  C   C258      1.0  0.47164  0.65595  0.72721  1.0000
  C   C259      1.0  0.47620  0.51747  0.58917  1.0000
  H   H412      1.0  0.37075  0.43242  0.56726  1.0000
  H   H413      1.0  0.46677  0.44454  0.78681  1.0000
  C   C260      1.0  0.41527  0.42019  0.57374  1.0000
  C   C261      1.0  0.42798  0.43370  0.58662  1.0000
  C   C262      1.0  0.43003  0.45065  0.57160  1.0000
  C   C263      1.0  0.41940  0.45423  0.54358  1.0000
  C   C264      1.0  0.40666  0.44075  0.53057  1.0000
  C   C265      1.0  0.40455  0.42373  0.54578  1.0000
  H   H414      1.0  0.43617  0.43110  0.60855  1.0000
  H   H415      1.0  0.43978  0.46098  0.58209  1.0000
  H   H416      1.0  0.39109  0.45779  0.59019  1.0000
  S   S121      1.0  0.46996  0.60736  0.53037  1.0000
  C   C266      1.0  0.43820  0.38845  0.88233  1.0000
  C   C267      1.0  0.45009  0.38001  0.87975  1.0000
  C   C268      1.0  0.45484  0.37482  0.84029  1.0000
  C   C269      1.0  0.44802  0.37839  0.80313  1.0000
  C   C270      1.0  0.43641  0.38714  0.80558  1.0000
  C   C271      1.0  0.43140  0.39199  0.84514  1.0000
  H   H417      1.0  0.45528  0.37711  0.90835  1.0000
  H   H418      1.0  0.46376  0.36797  0.83864  1.0000
  H   H419      1.0  0.43092  0.38976  0.77727  1.0000
  H   H420      1.0  0.42212  0.39843  0.84706  1.0000
  H   H421      1.0  0.45144  0.48865  0.62715  1.0000
  H   H422      1.0  0.38748  0.46352  0.64315  1.0000
  H   H423      1.0  0.49526  0.48750  0.60297  1.0000
  H   H424      1.0  0.34610  0.42798  0.67568  1.0000
  S   S122      1.0  0.48916  0.38423  0.55751  1.0000
  H   H425      1.0  0.46293  0.35376  0.68676  1.0000
  S   S123      1.0  0.39038  0.49884  0.52773  1.0000
  H   H426      1.0  0.46378  0.41989  0.84010  1.0000
  C   C272      1.0  0.50330  0.43518  0.78146  1.0000
  H   H427      1.0  0.50392  0.50840  0.57224  1.0000
  H   H428      1.0  0.35634  0.58238  0.98727  1.0000
  N   N25       1.0  0.47691  0.49992  0.59339  1.0000
  H   H429      1.0  0.46222  0.35184  0.59215  1.0000
  C   C273      1.0  0.48518  0.37168  0.51478  1.0000
  H   H430      1.0  0.46490  0.47612  0.63485  1.0000
  S   S124      1.0  0.50014  0.59112  0.50492  1.0000
  C   C274      1.0  0.47239  0.49210  0.55385  1.0000
  Fe  Fe63      1.0  0.36455  0.48154  0.52034  1.0000
  C   C275      1.0  0.36212  0.56408  0.92500  1.0000
  H   H431      1.0  0.50670  0.42339  0.78601  1.0000
  C   C276      1.0  0.47780  0.42288  0.83344  1.0000
  C   C277      1.0  0.34511  0.51900  0.88729  1.0000
  H   H432      1.0  0.47959  0.36648  0.64491  1.0000
  N   N26       1.0  0.36890  0.44027  0.63051  1.0000
  C   C278      1.0  0.37804  0.42938  0.64824  1.0000
  H   H433      1.0  0.38398  0.43429  0.67669  1.0000
  C   C279      1.0  0.47459  0.64767  0.98237  1.0000
  H   H434      1.0  0.48557  0.45358  0.74785  1.0000
  H   H435      1.0  0.38843  0.42886  0.62386  1.0000
  C   C280      1.0  0.49886  0.36837  0.49233  1.0000
  H   H436      1.0  0.42380  0.62612  0.66848  1.0000
  H   H437      1.0  0.45820  0.36693  0.52101  1.0000
  C   C281      1.0  0.50215  0.45476  0.65660  1.0000
  H   H438      1.0  0.45933  0.49144  0.54803  1.0000
  H   H439      1.0  0.46273  0.41634  0.76229  1.0000
  N   N27       1.0  0.48466  0.43118  0.78870  1.0000
  C   C282      1.0  0.47476  0.35410  0.66651  1.0000
  C   C283      1.0  0.35550  0.44095  0.66411  1.0000
  H   H440      1.0  0.47957  0.52378  0.61842  1.0000
  H   H441      1.0  0.34827  0.60316  0.80484  1.0000
  C   C284      1.0  0.48075  0.44714  0.78154  1.0000
  H   H442      1.0  0.34470  0.50609  0.53951  1.0000
  C   C285      1.0  0.36101  0.43306  0.59336  1.0000
  H   H443      1.0  0.49814  0.50629  0.62943  1.0000
  H   H444      1.0  0.39858  0.44341  0.50839  1.0000
  C   C286      1.0  0.49429  0.50055  0.59973  1.0000
  H   H445      1.0  0.42176  0.65433  0.68096  1.0000
  H   H446      1.0  0.39479  0.41330  0.53551  1.0000
  H   H447      1.0  0.36663  0.55520  0.94502  1.0000
  H   H448      1.0  0.34962  0.58969  0.91438  1.0000
  H   H449      1.0  0.48435  0.35429  0.68847  1.0000
  C   C287      1.0  0.46469  0.48946  0.63091  1.0000
  H   H450      1.0  0.39519  0.61305  0.74692  1.0000
  C   C288      1.0  0.44514  0.55311  0.53056  1.0000
  H   H451      1.0  0.48663  0.45635  0.80378  1.0000
  C   C289      1.0  0.43891  0.56557  0.51357  1.0000
  H   H452      1.0  0.38321  0.52338  0.65932  1.0000
  C   C290      1.0  0.38104  0.45775  0.61621  1.0000
  H   H453      1.0  0.39404  0.63369  0.75489  1.0000
  C   C291      1.0  0.43920  0.53658  0.51913  1.0000
  C   C292      1.0  0.47677  0.41951  0.75811  1.0000
  C   C293      1.0  0.42510  0.65224  0.71384  1.0000
  Fe  Fe64      1.0  0.44477  0.66363  0.93340  1.0000
  Fe  Fe65      1.0  0.48615  0.62156  0.57650  1.0000
  H   H454      1.0  0.38790  0.51556  0.60954  1.0000
  H   H455      1.0  0.36148  0.55987  0.89230  1.0000
  H   H456      1.0  0.39615  0.62803  0.70123  1.0000
  H   H457      1.0  0.37043  0.53310  0.89886  1.0000
  S   S125      1.0  0.49103  0.59838  0.60574  1.0000
  S   S126      1.0  0.39256  0.64955  0.85449  1.0000
  S   S127      1.0  0.43379  0.64260  0.89396  1.0000
  C   C294      1.0  0.38282  0.62810  0.84601  1.0000
  C   C295      1.0  0.36715  0.62321  0.83003  1.0000
  C   C296      1.0  0.36009  0.60668  0.81833  1.0000
  C   C297      1.0  0.36881  0.59508  0.82229  1.0000
  C   C298      1.0  0.38412  0.59978  0.83976  1.0000
  C   C299      1.0  0.39096  0.61611  0.85223  1.0000
  H   H458      1.0  0.36071  0.63240  0.82544  1.0000
  S   S128      1.0  0.36195  0.57504  0.80333  1.0000
  H   H459      1.0  0.39089  0.59081  0.84304  1.0000
  H   H460      1.0  0.40282  0.61959  0.86541  1.0000
  H   H461      1.0  0.50758  0.63172  0.63099  1.0000
  H   H462      1.0  0.37200  0.57700  0.92127  1.0000
  Fe  Fe66      1.0  0.47711  0.58500  0.55470  1.0000
  C   C300      1.0  0.42682  0.62457  0.70191  1.0000
  S   S129      1.0  0.47924  0.64210  0.60863  1.0000
  H   H463      1.0  0.41077  0.56245  0.58667  1.0000
  C   C301      1.0  0.47644  0.64172  0.66494  1.0000
  C   C302      1.0  0.47212  0.64211  0.75481  1.0000
  H   H464      1.0  0.39135  0.53331  0.53981  1.0000
  H   H465      1.0  0.36737  0.51721  0.62435  1.0000
  C   C303      1.0  0.47480  0.62812  0.73741  1.0000
  C   C304      1.0  0.47678  0.62783  0.69256  1.0000
  H   H466      1.0  0.47507  0.61735  0.75879  1.0000
  H   H467      1.0  0.47845  0.61683  0.67946  1.0000
  C   C305      1.0  0.37774  0.55119  0.62317  1.0000
  H   H468      1.0  0.46326  0.51751  0.58445  1.0000
  S   S130      1.0  0.45961  0.55769  0.56780  1.0000
  Fe  Fe67      1.0  0.45532  0.65782  0.84225  1.0000
  H   H469      1.0  0.41310  0.54183  0.58888  1.0000
  H   H470      1.0  0.44397  0.52688  0.53205  1.0000
  H   H471      1.0  0.48361  0.43119  0.85757  1.0000
  H   H472      1.0  0.37943  0.55165  0.65779  1.0000
  H   H473      1.0  0.35179  0.41986  0.60289  1.0000
  N   N28       1.0  0.41901  0.63385  0.73082  1.0000
  H   H474      1.0  0.38903  0.55387  0.53819  1.0000
  S   S131      1.0  0.46915  0.64175  0.81112  1.0000
  H   H475      1.0  0.43917  0.65796  0.71171  1.0000
  H   H476      1.0  0.47368  0.66659  0.66099  1.0000
  C   C306      1.0  0.40029  0.62684  0.73349  1.0000
  Fe  Fe68      1.0  0.41997  0.65916  0.86733  1.0000
  C   C307      1.0  0.47389  0.65578  0.68233  1.0000
  H   H477      1.0  0.37075  0.53486  0.55359  1.0000
  H   H478      1.0  0.37457  0.46637  0.60307  1.0000
  C   C308      1.0  0.35847  0.52328  0.91221  1.0000
  H   H479      1.0  0.36938  0.41597  0.65851  1.0000
  H   H480      1.0  0.36382  0.54544  0.62215  1.0000
  S   S132      1.0  0.42188  0.47567  0.52703  1.0000
  C   C309      1.0  0.40564  0.54922  0.60410  1.0000
  N   N29       1.0  0.38726  0.54121  0.60217  1.0000
  S   S133      1.0  0.37236  0.52319  0.98698  1.0000
  H   H481      1.0  0.41821  0.63872  0.79686  1.0000
  H   H482      1.0  0.43781  0.63700  0.77371  1.0000
  H   H483      1.0  0.41951  0.61810  0.78830  1.0000
  S   S134      1.0  0.44083  0.67315  0.81259  1.0000
  H   H484      1.0  0.47375  0.65132  0.94903  1.0000
  H   H485      1.0  0.50379  0.43130  0.63650  1.0000
  H   H486      1.0  0.42234  0.61064  0.71369  1.0000
  H   H487      1.0  0.38196  0.56458  0.60696  1.0000
  H   H488      1.0  0.50500  0.47962  0.67580  1.0000
  H   H489      1.0  0.46974  0.66685  0.74046  1.0000
  C   C310      1.0  0.38120  0.52357  0.62484  1.0000
  C   C311      1.0  0.38445  0.54081  0.55654  1.0000
  H   H490      1.0  0.44092  0.62935  0.69994  1.0000
  H   H491      1.0  0.40831  0.54991  0.63798  1.0000
  C   C312      1.0  0.42382  0.63179  0.77431  1.0000
  H   H492      1.0  0.35398  0.44099  0.57927  1.0000
  H   H493      1.0  0.46774  0.49487  0.66143  1.0000
  H   H494      1.0  0.48136  0.49955  0.52482  1.0000
  H   H495      1.0  0.48018  0.41058  0.83966  1.0000
  Fe  Fe69      1.0  0.40032  0.48023  0.49687  1.0000
  H   H496      1.0  0.34683  0.52562  0.85517  1.0000
  H   H497      1.0  0.44308  0.57822  0.52312  1.0000
  H   H498      1.0  0.48521  0.52573  0.56108  1.0000
  H   H499      1.0  0.34835  0.44904  0.65150  1.0000
  S   S135      1.0  0.34581  0.47429  0.58182  1.0000
  H   H500      1.0  0.49592  0.63925  0.96661  1.0000
  C   C313      1.0  0.46882  0.36436  0.50406  1.0000
  N   N30       1.0  0.34542  0.56423  0.94472  1.0000
  H   H501      1.0  0.47930  0.40722  0.76261  1.0000
  C   C314      1.0  0.42708  0.53252  0.49086  1.0000
  H   H502      1.0  0.48172  0.42536  0.72410  1.0000
  C   C315      1.0  0.34677  0.56938  0.98842  1.0000
  H   H503      1.0  0.45197  0.92780  0.31173  1.0000
  C   C316      1.0  0.43388  0.87580  0.12372  1.0000
  C   C317      1.0  0.48845  0.86924  0.00580  1.0000
  C   C318      1.0  0.35292  0.92000  0.26903  1.0000
  C   C319      1.0  0.45035  0.93883  0.46346  1.0000
  H   H504      1.0  0.36600  0.96426  0.29079  1.0000
  H   H505      1.0  0.36416  0.98805  0.23940  1.0000
  H   H506      1.0  0.34857  0.99470  0.10100  1.0000
  Fe  Fe70      1.0  0.49178  0.94137  0.16066  1.0000
  S   S136      1.0  0.46497  0.93716  0.18970  1.0000
  H   H507      1.0  0.38663  0.99906  0.23683  1.0000
  Fe  Fe71      1.0  0.35783  0.90485  0.07592  1.0000
  S   S137      1.0  0.38091  0.90406  0.10457  1.0000
  Fe  Fe72      1.0  0.36441  0.94171  0.09294  1.0000
  S   S138      1.0  0.38744  0.94342  0.12446  1.0000
  S   S139      1.0  0.35482  0.96389  0.08961  1.0000
  Fe  Fe73      1.0  0.39387  0.93026  0.06942  1.0000
  S   S140      1.0  0.42111  0.93860  0.03985  1.0000
  Fe  Fe74      1.0  0.37230  0.91708  0.15714  1.0000
  S   S141      1.0  0.37176  0.93018  0.03499  1.0000
  C   C320      1.0  0.39743  0.00525  0.09088  1.0000
  C   C321      1.0  0.45276  0.93925  0.14916  1.0000
  C   C322      1.0  0.43505  0.93200  0.15758  1.0000
  C   C323      1.0  0.42531  0.93196  0.12406  1.0000
  C   C324      1.0  0.43323  0.93928  0.08212  1.0000
  C   C325      1.0  0.45091  0.94693  0.07399  1.0000
  C   C326      1.0  0.46063  0.94707  0.10763  1.0000
  H   H508      1.0  0.42886  0.92601  0.18973  1.0000
  H   H509      1.0  0.41170  0.92591  0.13071  1.0000
  H   H510      1.0  0.45705  0.95267  0.04166  1.0000
  H   H511      1.0  0.47420  0.95328  0.10145  1.0000
  H   H512      1.0  0.48753  0.93995  0.37734  1.0000
  N   N31       1.0  0.45078  0.88819  0.12701  1.0000
  C   C327      1.0  0.36901  0.98463  0.09173  1.0000
  H   H513      1.0  0.44479  0.90951  0.09860  1.0000
  H   H514      1.0  0.39209  0.97858  0.08258  1.0000
  H   H515      1.0  0.36884  0.94768  0.20745  1.0000
  H   H516      1.0  0.35509  0.86867  0.19878  1.0000
  H   H517      1.0  0.39938  0.96250  0.20574  1.0000
  C   C328      1.0  0.37875  0.96632  0.27245  1.0000
  C   C329      1.0  0.46515  0.95041  0.47451  1.0000
  H   H518      1.0  0.41103  0.00815  0.08823  1.0000
  H   H519      1.0  0.49242  0.91422  0.03765  1.0000
  H   H520      1.0  0.43349  0.87148  0.09110  1.0000
  H   H521      1.0  0.38494  0.90933  0.30747  1.0000
  C   C330      1.0  0.38670  0.98847  0.08801  1.0000
  C   C331      1.0  0.34602  0.86949  0.17596  1.0000
  H   H522      1.0  0.45474  0.89959  0.06098  1.0000
  H   H523      1.0  0.43057  0.86425  0.14792  1.0000
  H   H524      1.0  0.47898  0.93067  0.26700  1.0000
  C   C332      1.0  0.37430  0.91390  0.30698  1.0000
  C   C333      1.0  0.45455  0.90322  0.09421  1.0000
  C   C334      1.0  0.45082  0.89371  0.17048  1.0000
  N   N32       1.0  0.49361  0.00789  0.04740  1.0000
  H   H525      1.0  0.46011  0.92126  0.35846  1.0000
  S   S142      1.0  0.50067  0.94142  0.09082  1.0000
  C   C335      1.0  0.35422  0.92509  0.34409  1.0000
  H   H526      1.0  0.37407  0.91923  0.37313  1.0000
  C   C336      1.0  0.50136  0.89295  0.04611  1.0000
  H   H527      1.0  0.47683  0.88920  0.12128  1.0000
  H   H528      1.0  0.44134  0.90022  0.17697  1.0000
  H   H529      1.0  0.46413  0.87558  0.08724  1.0000
  H   H530      1.0  0.42373  0.88159  0.12914  1.0000
  C   C337      1.0  0.47517  0.95932  0.29344  1.0000
  C   C338      1.0  0.37692  0.98924  0.22261  1.0000
  S   S143      1.0  0.34606  0.93181  0.39045  1.0000
  H   H531      1.0  0.47938  0.95734  0.37746  1.0000
  S   S144      1.0  0.36655  0.91302  0.48559  1.0000
  S   S145      1.0  0.38799  0.95253  0.43738  1.0000
  H   H532      1.0  0.47783  0.98408  0.02981  1.0000
  H   H533      1.0  0.44782  0.88271  0.19618  1.0000
  H   H534      1.0  0.40704  0.98428  0.21702  1.0000
  C   C339      1.0  0.45946  0.93257  0.33809  1.0000
  H   H535      1.0  0.47703  0.98500  0.08694  1.0000
  H   H536      1.0  0.48910  0.72254  0.02793  1.0000
  H   H537      1.0  0.38838  0.97548  0.28847  1.0000
  C   C340      1.0  0.36219  0.99757  0.09808  1.0000
  C   C341      1.0  0.43470  0.94116  0.47327  1.0000
  H   H538      1.0  0.45212  0.93875  0.35862  1.0000
  H   H539      1.0  0.46833  0.96634  0.31244  1.0000
  C   C342      1.0  0.48591  0.93583  0.29385  1.0000
  C   C343      1.0  0.34661  0.92534  0.30646  1.0000
  H   H540      1.0  0.48773  0.92494  0.31336  1.0000
  H   H541      1.0  0.49906  0.95990  0.34428  1.0000
  C   C344      1.0  0.46388  0.88008  0.11959  1.0000
  H   H542      1.0  0.39791  0.97937  0.16852  1.0000
  H   H543      1.0  0.45096  0.92786  0.44821  1.0000
  C   C345      1.0  0.48557  0.98908  0.05548  1.0000
  N   N33       1.0  0.37977  0.97263  0.22640  1.0000
  S   S146      1.0  0.41610  0.92544  0.46406  1.0000
  C   C346      1.0  0.36663  0.96011  0.20689  1.0000
  H   H544      1.0  0.46709  0.91300  0.09603  1.0000
  H   H545      1.0  0.46808  0.95511  0.26604  1.0000
  H   H546      1.0  0.35126  0.88246  0.15749  1.0000
  N   N34       1.0  0.47665  0.94461  0.32049  1.0000
  H   H547      1.0  0.46158  0.86882  0.14406  1.0000
  C   C347      1.0  0.36678  0.91424  0.26931  1.0000
  H   H548      1.0  0.35365  0.95765  0.22426  1.0000
  C   C348      1.0  0.36817  0.91949  0.34417  1.0000
  S   S147      1.0  0.50453  0.92345  0.18527  1.0000
  H   H549      1.0  0.47122  0.70293  0.03693  1.0000
  Fe  Fe75      1.0  0.36129  0.93410  0.44620  1.0000
  H   H550      1.0  0.36664  0.96470  0.17259  1.0000
  H   H551      1.0  0.46349  0.90295  0.17395  1.0000
  H   H552      1.0  0.37760  0.99430  0.18816  1.0000
  S   S148      1.0  0.37448  0.90659  0.22389  1.0000
  C   C349      1.0  0.39678  0.97480  0.20345  1.0000
  H   H553      1.0  0.34689  0.92010  0.24031  1.0000
  H   H554      1.0  0.38095  0.95384  0.27631  1.0000
  S   S149      1.0  0.34215  0.87858  0.06187  1.0000
  Fe  Fe76      1.0  0.39280  0.93247  0.48112  1.0000
  C   C350      1.0  0.48606  0.95073  0.35648  1.0000
  H   H555      1.0  0.46780  0.72315  0.03286  1.0000
  H   H556      1.0  0.34593  0.86028  0.15224  1.0000
  S   S150      1.0  0.34836  0.91639  0.13111  1.0000
  H   H557      1.0  0.47721  0.94859  0.46673  1.0000
  C   C351      1.0  0.49135  0.90170  0.02913  1.0000
  C   C352      1.0  0.50008  0.87683  0.03364  1.0000
  C   C353      1.0  0.47959  0.89404  0.00183  1.0000
  H   H558      1.0  0.49530  0.98270  0.05657  1.0000
  H   H559      1.0  0.48792  0.96856  0.27918  1.0000
  C   C354      1.0  0.47613  0.71623  0.01968  1.0000
  H   H560      1.0  0.48723  0.85661  0.99749  1.0000
  H   H561      1.0  0.49874  0.94470  0.27891  1.0000
  H   H562      1.0  0.50782  0.86998  0.04648  1.0000
  C   C355      1.0  0.47789  0.87769  0.99056  1.0000
  H   H563      1.0  0.47164  0.90077  0.98962  1.0000
  Fe  Fe77      1.0  0.45691  0.81194  0.88898  1.0000
  S   S151      1.0  0.43781  0.82385  0.91472  1.0000
  S   S152      1.0  0.44968  0.78388  0.91735  1.0000
  H   H564      1.0  0.39901  0.79285  0.80671  1.0000
  H   H565      1.0  0.39554  0.74955  0.85651  1.0000
  H   H566      1.0  0.41299  0.77155  0.89769  1.0000
  H   H567      1.0  0.38378  0.76318  0.84156  1.0000
  S   S153      1.0  0.47959  0.83515  0.89545  1.0000
  C   C356      1.0  0.36162  0.80962  0.86716  1.0000
  C   C357      1.0  0.38333  0.82479  0.80678  1.0000
  S   S154      1.0  0.45649  0.82025  0.81922  1.0000
  H   H568      1.0  0.42681  0.76000  0.84009  1.0000
  Fe  Fe78      1.0  0.50234  0.93182  0.58956  1.0000
  C   C358      1.0  0.41029  0.78898  0.79791  1.0000
  C   C359      1.0  0.37435  0.80842  0.89152  1.0000
  H   H569      1.0  0.35640  0.81842  0.80543  1.0000
  Fe  Fe79      1.0  0.43870  0.83319  0.84534  1.0000
  H   H570      1.0  0.40037  0.78452  0.88412  1.0000
  Fe  Fe80      1.0  0.45079  0.69198  0.85926  1.0000
  S   S155      1.0  0.46285  0.72071  0.83727  1.0000
  H   H571      1.0  0.39449  0.75508  0.80052  1.0000
  C   C360      1.0  0.39550  0.76008  0.83223  1.0000
  C   C361      1.0  0.41183  0.78133  0.87286  1.0000
  H   H572      1.0  0.40961  0.78492  0.76514  1.0000
  H   H573      1.0  0.42312  0.79302  0.87204  1.0000
  C   C362      1.0  0.39608  0.82398  0.83136  1.0000
  C   C363      1.0  0.39160  0.81571  0.87375  1.0000
  H   H574      1.0  0.43812  0.78168  0.81704  1.0000
  N   N35       1.0  0.41096  0.77527  0.83003  1.0000
  H   H575      1.0  0.40138  0.81515  0.89296  1.0000
  C   C364      1.0  0.36615  0.81769  0.82466  1.0000
  H   H576      1.0  0.42174  0.80067  0.79547  1.0000
  C   C365      1.0  0.45315  0.76655  0.89345  1.0000
  C   C366      1.0  0.46500  0.76904  0.85660  1.0000
  C   C367      1.0  0.46763  0.75486  0.83958  1.0000
  C   C368      1.0  0.45828  0.73803  0.85866  1.0000
  C   C369      1.0  0.44605  0.73553  0.89474  1.0000
  C   C370      1.0  0.44368  0.74972  0.91234  1.0000
  H   H577      1.0  0.47239  0.78190  0.84172  1.0000
  H   H578      1.0  0.47709  0.75695  0.81159  1.0000
  H   H579      1.0  0.43843  0.72269  0.90913  1.0000
  H   H580      1.0  0.43436  0.74765  0.94063  1.0000
  H   H581      1.0  0.42633  0.76660  0.78444  1.0000
  C   C371      1.0  0.42620  0.77068  0.81724  1.0000
  H   H582      1.0  0.37085  0.80217  0.92445  1.0000
  C   C372      1.0  0.45894  0.70769  0.96340  1.0000
  C   C373      1.0  0.35711  0.84341  0.93123  1.0000
  S   S156      1.0  0.41740  0.83359  0.80792  1.0000
  H   H583      1.0  0.39285  0.87798  0.92792  1.0000
  H   H584      1.0  0.38574  0.84748  0.87745  1.0000
  H   H585      1.0  0.38675  0.83108  0.77386  1.0000
  C   C374      1.0  0.50582  0.89859  0.68117  1.0000
  H   H586      1.0  0.48732  0.00077  0.58407  1.0000
  H   H587      1.0  0.35216  0.88475  0.57775  1.0000
  C   C375      1.0  0.44728  0.90305  0.57080  1.0000
  H   H588      1.0  0.45874  0.70736  0.92815  1.0000
  S   S157      1.0  0.46160  0.86807  0.96000  1.0000
  C   C376      1.0  0.46426  0.96410  0.49627  1.0000
  H   H589      1.0  0.37301  0.98606  0.65105  1.0000
  H   H590      1.0  0.36259  0.83314  0.93784  1.0000
  H   H591      1.0  0.48845  0.70708  0.92081  1.0000
  C   C377      1.0  0.34290  0.94717  0.68516  1.0000
  S   S158      1.0  0.48431  0.91340  0.64486  1.0000
  H   H592      1.0  0.41375  0.89806  0.58433  1.0000
  C   C378      1.0  0.35274  0.96154  0.61234  1.0000
  C   C379      1.0  0.39288  0.99744  0.54989  1.0000
  S   S159      1.0  0.48906  0.93222  0.53146  1.0000
  S   S160      1.0  0.38736  0.94310  0.54226  1.0000
  S   S161      1.0  0.48204  0.97651  0.51752  1.0000
  S   S162      1.0  0.42884  0.67909  0.91184  1.0000
  C   C380      1.0  0.43513  0.90302  0.64393  1.0000
  H   H593      1.0  0.45942  0.90290  0.58183  1.0000
  C   C381      1.0  0.42247  0.91140  0.58401  1.0000
  H   H594      1.0  0.46202  0.93056  0.60981  1.0000
  H   H595      1.0  0.45277  0.93674  0.56502  1.0000
  H   H596      1.0  0.44360  0.93686  0.61911  1.0000
  H   H597      1.0  0.42471  0.91782  0.55027  1.0000
  H   H598      1.0  0.35037  0.84489  0.96225  1.0000
  H   H599      1.0  0.34603  0.94540  0.71841  1.0000
  C   C382      1.0  0.40317  0.99048  0.57201  1.0000
  N   N36       1.0  0.43864  0.91181  0.59927  1.0000
  H   H600      1.0  0.45353  0.69426  0.97948  1.0000
  C   C383      1.0  0.34238  0.89334  0.63423  1.0000
  H   H601      1.0  0.34875  0.94909  0.59920  1.0000
  H   H602      1.0  0.34732  0.83864  0.90976  1.0000
  C   C384      1.0  0.44972  0.92978  0.59830  1.0000
  S   S163      1.0  0.35296  0.94470  0.50447  1.0000
  Fe  Fe81      1.0  0.46041  0.84756  0.91575  1.0000
  Fe  Fe82      1.0  0.47719  0.84446  0.82743  1.0000
  H   H603      1.0  0.38918  0.86897  0.85475  1.0000
  H   H604      1.0  0.48237  0.69302  0.97092  1.0000
  C   C385      1.0  0.48917  0.89843  0.67982  1.0000
  H   H605      1.0  0.42865  0.90930  0.66639  1.0000
  H   H606      1.0  0.42689  0.88939  0.64587  1.0000
  C   C386      1.0  0.43398  0.95546  0.49259  1.0000
  H   H607      1.0  0.41565  0.91806  0.60437  1.0000
  H   H608      1.0  0.35223  0.86818  0.88081  1.0000
  C   C387      1.0  0.34367  0.86475  0.63213  1.0000
  C   C388      1.0  0.49344  0.89649  0.84643  1.0000
  H   H609      1.0  0.37631  0.86794  0.97262  1.0000
  H   H610      1.0  0.44713  0.90314  0.65629  1.0000
  C   C389      1.0  0.49550  0.87445  0.73890  1.0000
  H   H611      1.0  0.37613  0.95198  0.68627  1.0000
  H   H612      1.0  0.35634  0.87571  0.93168  1.0000
  H   H613      1.0  0.44805  0.97757  0.52076  1.0000
  S   S164      1.0  0.34502  0.91399  0.60922  1.0000
  H   H614      1.0  0.36358  0.97047  0.58913  1.0000
  H   H615      1.0  0.38328  0.96244  0.63191  1.0000
  C   C390      1.0  0.40902  0.99703  0.60941  1.0000
  H   H616      1.0  0.48228  0.89215  0.87245  1.0000
  C   C391      1.0  0.47577  0.88618  0.70778  1.0000
  H   H617      1.0  0.46834  0.86459  0.75728  1.0000
  H   H618      1.0  0.37181  0.88487  0.88476  1.0000
  C   C392      1.0  0.37928  0.85695  0.87107  1.0000
  C   C393      1.0  0.36236  0.87267  0.90165  1.0000
  H   H619      1.0  0.39536  0.00755  0.95527  1.0000
  Fe  Fe83      1.0  0.36060  0.92527  0.54351  1.0000
  C   C394      1.0  0.36222  0.97636  0.67266  1.0000
  H   H620      1.0  0.46285  0.88586  0.70681  1.0000
  C   C395      1.0  0.47889  0.87418  0.73685  1.0000
  C   C396      1.0  0.38267  0.86572  0.94180  1.0000
  H   H621      1.0  0.42199  0.95752  0.49943  1.0000
  H   H622      1.0  0.41692  0.99161  0.62669  1.0000
  C   C397      1.0  0.37211  0.95345  0.65396  1.0000
  H   H623      1.0  0.40674  0.98017  0.56010  1.0000
  H   H624      1.0  0.37029  0.85200  0.84781  1.0000
  N   N37       1.0  0.37035  0.85968  0.91141  1.0000
  H   H625      1.0  0.43921  0.88951  0.57033  1.0000
  H   H626      1.0  0.45037  0.90951  0.53693  1.0000
  Fe  Fe84      1.0  0.49841  0.96061  0.52942  1.0000
  H   H627      1.0  0.34680  0.85542  0.61418  1.0000
  H   H628      1.0  0.38895  0.85620  0.94986  1.0000
  S   S165      1.0  0.45929  0.85785  0.84835  1.0000
  H   H629      1.0  0.36897  0.94081  0.64173  1.0000
  H   H630      1.0  0.49055  0.88770  0.82135  1.0000
  S   S166      1.0  0.49966  0.86007  0.77739  1.0000
  H   H631      1.0  0.49589  0.87456  0.91005  1.0000
  C   C398      1.0  0.34673  0.88135  0.61145  1.0000
  N   N38       1.0  0.35749  0.95963  0.65604  1.0000
  H   H632      1.0  0.50212  0.90502  0.92320  1.0000
  C   C399      1.0  0.48744  0.70675  0.95655  1.0000
  H   H633      1.0  0.48324  0.73424  0.91485  1.0000
  H   H634      1.0  0.49751  0.00891  0.97829  1.0000
  S   S167      1.0  0.38530  0.98965  0.50320  1.0000
  C   C400      1.0  0.50701  0.87930  0.88408  1.0000
  H   H635      1.0  0.49451  0.90940  0.83113  1.0000
  H   H636      1.0  0.36625  0.97555  0.70518  1.0000
  H   H637      1.0  0.50484  0.86997  0.86022  1.0000
  Fe  Fe85      1.0  0.38018  0.96158  0.49875  1.0000
  H   H638      1.0  0.35146  0.98139  0.67507  1.0000
  C   C401      1.0  0.44876  0.96690  0.50426  1.0000
  C   C402      1.0  0.48290  0.73395  0.95053  1.0000
  H   H639      1.0  0.49604  0.74086  0.95676  1.0000
  H   H640      1.0  0.50057  0.71233  0.96447  1.0000
  H   H641      1.0  0.45021  0.71447  0.97480  1.0000
  N   N39       1.0  0.47638  0.71618  0.97257  1.0000
  H   H642      1.0  0.47468  0.74137  0.96125  1.0000
  S   S168      1.0  0.46733  0.67774  0.88379  1.0000
  Fe  Fe86      1.0  0.58468  0.07879  0.06973  1.0000
  H   H643      1.0  0.59616  0.32942  0.39889  1.0000
  H   H644      1.0  0.61151  0.12998  0.23733  1.0000
  Fe  Fe87      1.0  0.56433  0.10128  0.09359  1.0000
  S   S169      1.0  0.54253  0.10354  0.13695  1.0000
  Fe  Fe88      1.0  0.60228  0.11722  0.06736  1.0000
  S   S170      1.0  0.62586  0.13849  0.07912  1.0000
  S   S171      1.0  0.56114  0.08167  0.04791  1.0000
  S   S172      1.0  0.58627  0.09666  0.11986  1.0000
  H   H645      1.0  0.53678  0.12825  0.19074  1.0000
  H   H646      1.0  0.53941  0.13582  0.00100  1.0000
  C   C403      1.0  0.51480  0.05321  0.14481  1.0000
  Fe  Fe89      1.0  0.65164  0.17702  0.29571  1.0000
  S   S173      1.0  0.52104  0.32811  0.39197  1.0000
  H   H647      1.0  0.60300  0.17743  0.11473  1.0000
  C   C404      1.0  0.58251  0.17867  0.29378  1.0000
  C   C405      1.0  0.63567  0.14990  0.21631  1.0000
  H   H648      1.0  0.65627  0.11983  0.08355  1.0000
  Fe  Fe90      1.0  0.52657  0.17565  0.29717  1.0000
  H   H649      1.0  0.51984  0.09194  0.27890  1.0000
  C   C406      1.0  0.64759  0.14876  0.45506  1.0000
  H   H650      1.0  0.65110  0.15156  0.42037  1.0000
  C   C407      1.0  0.52559  0.08412  0.14310  1.0000
  H   H651      1.0  0.65478  0.10324  0.04931  1.0000
  H   H652      1.0  0.58737  0.11968  0.47966  1.0000
  C   C408      1.0  0.52854  0.06855  0.14266  1.0000
  C   C409      1.0  0.64246  0.13178  0.47521  1.0000
  H   H653      1.0  0.54140  0.06832  0.14033  1.0000
  C   C410      1.0  0.62905  0.14321  0.13206  1.0000
  C   C411      1.0  0.61710  0.13428  0.16783  1.0000
  C   C412      1.0  0.62054  0.13741  0.20975  1.0000
  H   H654      1.0  0.60534  0.12470  0.16340  1.0000
  C   C413      1.0  0.59459  0.18945  0.18671  1.0000
  S   S174      1.0  0.65497  0.18354  0.45626  1.0000
  C   C414      1.0  0.56461  0.32454  0.38084  1.0000
  H   H655      1.0  0.52248  0.11544  0.06456  1.0000
  C   C415      1.0  0.64842  0.16206  0.47995  1.0000
  H   H656      1.0  0.63285  0.18485  0.19627  1.0000
  H   H657      1.0  0.57473  0.01881  0.13406  1.0000
  C   C416      1.0  0.57153  0.03525  0.08126  1.0000
  H   H658      1.0  0.61483  0.15508  0.46343  1.0000
  C   C417      1.0  0.52078  0.27400  0.32162  1.0000
  H   H659      1.0  0.60479  0.32583  0.34715  1.0000
  C   C418      1.0  0.56795  0.01953  0.10693  1.0000
  C   C419      1.0  0.59283  0.32293  0.36987  1.0000
  H   H660      1.0  0.55488  0.32865  0.36639  1.0000
  C   C420      1.0  0.52368  0.12626  0.20657  1.0000
  H   H661      1.0  0.60828  0.18364  0.30534  1.0000
  H   H662      1.0  0.63744  0.11101  0.05961  1.0000
  H   H663      1.0  0.58030  0.16534  0.29050  1.0000
  N   N40       1.0  0.52010  0.11635  0.24992  1.0000
  C   C421      1.0  0.56275  0.03605  0.04617  1.0000
  C   C422      1.0  0.53223  0.12581  0.27739  1.0000
  C   C423      1.0  0.65398  0.08983  0.13026  1.0000
  H   H664      1.0  0.53480  0.10077  0.23044  1.0000
  C   C424      1.0  0.64410  0.15589  0.13852  1.0000
  C   C425      1.0  0.60983  0.17552  0.14215  1.0000
  H   H665      1.0  0.64050  0.11301  0.15687  1.0000
  H   H666      1.0  0.52979  0.11896  0.31067  1.0000
  C   C426      1.0  0.64758  0.10772  0.07464  1.0000
  H   H667      1.0  0.66074  0.08449  0.10594  1.0000
  S   S175      1.0  0.60279  0.09895  0.01844  1.0000
  C   C427      1.0  0.62787  0.07930  0.09974  1.0000
  H   H668      1.0  0.51468  0.11963  0.18499  1.0000
  N   N41       1.0  0.64027  0.09457  0.11269  1.0000
  H   H669      1.0  0.62176  0.06912  0.12759  1.0000
  H   H670      1.0  0.62246  0.17526  0.12818  1.0000
  C   C428      1.0  0.64734  0.15935  0.18050  1.0000
  H   H671      1.0  0.65341  0.16288  0.11102  1.0000
  H   H672      1.0  0.60263  0.16262  0.16018  1.0000
  S   S176      1.0  0.67402  0.18406  0.33279  1.0000
  C   C429      1.0  0.63157  0.10145  0.14611  1.0000
  H   H673      1.0  0.61742  0.08251  0.08623  1.0000
  S   S177      1.0  0.58742  0.05360  0.09268  1.0000
  H   H674      1.0  0.62134  0.10532  0.13353  1.0000
  S   S178      1.0  0.64032  0.15185  0.26952  1.0000
  H   H675      1.0  0.50988  0.02803  0.07751  1.0000
  H   H676      1.0  0.58790  0.19239  0.15996  1.0000
  H   H677      1.0  0.62557  0.09182  0.17505  1.0000
  H   H678      1.0  0.59763  0.14760  0.43279  1.0000
  S   S179      1.0  0.58022  0.12318  0.04426  1.0000
  H   H679      1.0  0.51251  0.09176  0.22742  1.0000
  H   H680      1.0  0.66355  0.10113  0.14024  1.0000
  H   H681      1.0  0.65917  0.16882  0.18525  1.0000
  H   H682      1.0  0.61254  0.17317  0.22739  1.0000
  H   H683      1.0  0.54430  0.02182  0.00849  1.0000
  C   C430      1.0  0.57604  0.31969  0.31129  1.0000
  S   S180      1.0  0.55130  0.17310  0.26899  1.0000
  C   C431      1.0  0.55066  0.02115  0.03640  1.0000
  H   H684      1.0  0.55085  0.12143  0.99101  1.0000
  H   H685      1.0  0.63384  0.07363  0.07454  1.0000
  H   H686      1.0  0.54561  0.12788  0.26364  1.0000
  S   S181      1.0  0.63378  0.18028  0.35005  1.0000
  H   H687      1.0  0.60090  0.16709  0.45646  1.0000
  H   H688      1.0  0.51058  0.09397  0.05807  1.0000
  H   H689      1.0  0.61604  0.20893  0.11778  1.0000
  H   H690      1.0  0.62346  0.21632  0.16665  1.0000
  H   H691      1.0  0.58782  0.30888  0.38038  1.0000
  S   S182      1.0  0.52185  0.19121  0.34885  1.0000
  C   C432      1.0  0.59840  0.18905  0.30225  1.0000
  Fe  Fe91      1.0  0.52317  0.31874  0.32721  1.0000
  H   H692      1.0  0.64881  0.07997  0.15910  1.0000
  H   H693      1.0  0.64206  0.12155  0.45590  1.0000
  Fe  Fe92      1.0  0.65646  0.18950  0.38395  1.0000
  S   S183      1.0  0.65829  0.20358  0.26116  1.0000
  C   C433      1.0  0.60133  0.15387  0.46185  1.0000
  H   H694      1.0  0.56713  0.33121  0.40993  1.0000
  S   S184      1.0  0.53235  0.29580  0.32530  1.0000
  N   N42       1.0  0.58021  0.32862  0.34948  1.0000
  S   S185      1.0  0.62227  0.22011  0.30936  1.0000
  H   H695      1.0  0.62208  0.19579  0.22877  1.0000
  S   S186      1.0  0.66300  0.21706  0.35658  1.0000
  C   C434      1.0  0.60170  0.20649  0.30438  1.0000
  C   C435      1.0  0.58869  0.21332  0.29995  1.0000
  C   C436      1.0  0.57265  0.20287  0.29200  1.0000
  C   C437      1.0  0.62198  0.20584  0.14599  1.0000
  H   H696      1.0  0.59114  0.22681  0.30164  1.0000
  H   H697      1.0  0.56284  0.20833  0.28712  1.0000
  H   H698      1.0  0.53127  0.13864  0.28018  1.0000
  C   C438      1.0  0.52931  0.26202  0.32314  1.0000
  H   H699      1.0  0.56563  0.04804  0.02578  1.0000
  H   H700      1.0  0.52756  0.23564  0.32040  1.0000
  H   H701      1.0  0.54266  0.26623  0.32668  1.0000
  N   N43       1.0  0.61162  0.18907  0.17054  1.0000
  Fe  Fe93      1.0  0.64163  0.20717  0.31778  1.0000
  H   H702      1.0  0.59543  0.19933  0.20894  1.0000
  N   N44       1.0  0.52366  0.10982  0.99884  1.0000
  C   C439      1.0  0.52078  0.24464  0.31960  1.0000
  C   C440      1.0  0.52192  0.09947  0.24659  1.0000
  H   H703      1.0  0.57038  0.30556  0.32038  1.0000
  C   C441      1.0  0.56970  0.18561  0.28791  1.0000
  H   H704      1.0  0.58630  0.17691  0.20484  1.0000
  H   H705      1.0  0.63498  0.20606  0.13368  1.0000
  C   C442      1.0  0.62011  0.18555  0.20734  1.0000
  H   H706      1.0  0.51712  0.04124  0.14381  1.0000
  H   H707      1.0  0.55871  0.31053  0.39137  1.0000
  Fe  Fe94      1.0  0.57914  0.10317  0.99982  1.0000
  H   H708      1.0  0.56647  0.32363  0.29525  1.0000
  C   C443      1.0  0.52248  0.10476  0.04555  1.0000
  H   H709      1.0  0.58747  0.32238  0.28686  1.0000
  H   H710      1.0  0.52251  0.13912  0.20824  1.0000
  H   H711      1.0  0.53331  0.10063  0.05286  1.0000
  H   H712      1.0  0.56776  0.13611  0.47031  1.0000
  C   C444      1.0  0.50897  0.08432  0.14651  1.0000
  H   H713      1.0  0.51158  0.02685  0.99918  1.0000
  H   H714      1.0  0.63482  0.13852  0.57946  1.0000
  S   S187      1.0  0.57035  0.10635  0.93458  1.0000
  Fe  Fe95      1.0  0.59999  0.09655  0.69754  1.0000
  S   S188      1.0  0.60720  0.07842  0.65656  1.0000
  S   S189      1.0  0.61241  0.10153  0.75809  1.0000
  Fe  Fe96      1.0  0.57761  0.10391  0.63405  1.0000
  S   S190      1.0  0.58335  0.08674  0.58819  1.0000
  S   S191      1.0  0.55914  0.11671  0.61624  1.0000
  Fe  Fe97      1.0  0.57961  0.06840  0.64789  1.0000
  C   C445      1.0  0.51042  0.08880  0.60628  1.0000
  Fe  Fe98      1.0  0.61013  0.09859  0.60095  1.0000
  S   S192      1.0  0.63135  0.10661  0.54474  1.0000
  S   S193      1.0  0.57224  0.08501  0.69358  1.0000
  S   S194      1.0  0.60472  0.11735  0.64210  1.0000
  H   H715      1.0  0.53433  0.01407  0.55423  1.0000
  H   H716      1.0  0.65294  0.12858  0.64490  1.0000
  C   C446      1.0  0.51386  0.02072  0.61730  1.0000
  H   H717      1.0  0.65483  0.08256  0.71228  1.0000
  C   C447      1.0  0.59124  0.12671  0.50751  1.0000
  C   C448      1.0  0.64384  0.15827  0.52486  1.0000
  N   N45       1.0  0.59013  0.14406  0.50165  1.0000
  C   C449      1.0  0.54044  0.09979  0.61341  1.0000
  C   C450      1.0  0.52560  0.10272  0.60430  1.0000
  C   C451      1.0  0.64727  0.08876  0.69419  1.0000
  H   H718      1.0  0.52074  0.07976  0.80755  1.0000
  C   C452      1.0  0.52522  0.06928  0.62456  1.0000
  C   C453      1.0  0.54017  0.08305  0.62289  1.0000
  H   H719      1.0  0.52572  0.11566  0.59671  1.0000
  H   H720      1.0  0.52523  0.05650  0.63356  1.0000
  H   H721      1.0  0.55133  0.08050  0.63028  1.0000
  H   H722      1.0  0.52739  0.02687  0.62172  1.0000
  C   C454      1.0  0.58203  0.10442  0.88613  1.0000
  C   C455      1.0  0.59842  0.10359  0.88495  1.0000
  C   C456      1.0  0.60755  0.10264  0.84553  1.0000
  C   C457      1.0  0.60031  0.10228  0.80713  1.0000
  C   C458      1.0  0.58384  0.10291  0.80840  1.0000
  C   C459      1.0  0.57479  0.10408  0.84772  1.0000
  H   H723      1.0  0.60413  0.10388  0.91428  1.0000
  H   H724      1.0  0.62028  0.10216  0.84485  1.0000
  H   H725      1.0  0.57818  0.10274  0.77903  1.0000
  H   H726      1.0  0.56215  0.10476  0.84836  1.0000
  H   H727      1.0  0.60891  0.15399  0.54296  1.0000
  C   C460      1.0  0.52411  0.09532  0.97535  1.0000
  C   C461      1.0  0.56147  0.02496  0.62650  1.0000
  H   H728      1.0  0.58740  0.14581  0.56979  1.0000
  H   H729      1.0  0.52278  0.10182  0.79465  1.0000
  C   C462      1.0  0.57322  0.02792  0.58917  1.0000
  C   C463      1.0  0.59559  0.15288  0.53922  1.0000
  H   H730      1.0  0.64449  0.16852  0.54426  1.0000
  H   H731      1.0  0.59497  0.16604  0.53591  1.0000
  H   H732      1.0  0.58271  0.04048  0.57966  1.0000
  C   C464      1.0  0.64612  0.11481  0.65677  1.0000
  H   H733      1.0  0.51319  0.04669  0.56016  1.0000
  S   S195      1.0  0.56099  0.04121  0.65854  1.0000
  C   C465      1.0  0.51361  0.09921  0.71547  1.0000
  H   H734      1.0  0.66802  0.12986  0.70935  1.0000
  H   H735      1.0  0.52653  0.10234  0.69700  1.0000
  C   C466      1.0  0.63827  0.14127  0.54484  1.0000
  H   H736      1.0  0.64374  0.08171  0.66612  1.0000
  H   H737      1.0  0.63524  0.08686  0.71591  1.0000
  N   N46       1.0  0.65675  0.10714  0.68022  1.0000
  C   C467      1.0  0.52299  0.09011  0.78043  1.0000
  H   H738      1.0  0.51893  0.03820  0.51277  1.0000
  H   H739      1.0  0.64936  0.11459  0.74100  1.0000
  C   C468      1.0  0.63768  0.12797  0.52011  1.0000
  C   C469      1.0  0.66106  0.11592  0.71855  1.0000
  H   H740      1.0  0.52539  0.09876  0.93985  1.0000
  H   H741      1.0  0.64225  0.10822  0.62825  1.0000
  C   C470      1.0  0.51086  0.06958  0.73282  1.0000
  C   C471      1.0  0.57271  0.01454  0.56420  1.0000
  H   H742      1.0  0.54103  0.12850  0.94886  1.0000
  H   H743      1.0  0.63433  0.11391  0.67794  1.0000
  H   H744      1.0  0.51288  0.11110  0.72783  1.0000
  N   N47       1.0  0.51190  0.02051  0.57109  1.0000
  H   H745      1.0  0.60442  0.12715  0.51086  1.0000
  H   H746      1.0  0.58282  0.11896  0.53708  1.0000
  H   H747      1.0  0.66908  0.11050  0.73711  1.0000
  H   H748      1.0  0.52364  0.07173  0.71459  1.0000
  C   C472      1.0  0.51025  0.07210  0.61722  1.0000
  N   N48       1.0  0.51012  0.08515  0.75090  1.0000
  H   H749      1.0  0.56360  0.13544  0.52783  1.0000
  H   H750      1.0  0.53608  0.09282  0.76323  1.0000
  H   H751      1.0  0.53337  0.04362  0.55200  1.0000
  C   C473      1.0  0.57235  0.14276  0.49820  1.0000
  C   C474      1.0  0.67249  0.10904  0.65129  1.0000
  H   H752      1.0  0.66952  0.10268  0.62185  1.0000
  H   H753      1.0  0.58186  0.01686  0.53548  1.0000
  C   C475      1.0  0.53939  0.12459  0.98426  1.0000
  C   C476      1.0  0.51972  0.03803  0.54792  1.0000
  H   H754      1.0  0.51238  0.08398  0.98533  1.0000
  H   H755      1.0  0.53516  0.09131  0.98160  1.0000
  H   H756      1.0  0.57101  0.15562  0.49385  1.0000
  H   H757      1.0  0.50920  0.11870  0.95562  1.0000
  H   H758      1.0  0.63262  0.50019  0.43015  1.0000
  H   H759      1.0  0.51643  0.38144  0.07379  1.0000
  H   H760      1.0  0.60302  0.57278  0.45329  1.0000
  H   H761      1.0  0.60142  0.55187  0.47692  1.0000
  C   C477      1.0  0.63830  0.50465  0.14580  1.0000
  C   C478      1.0  0.59389  0.56034  0.46984  1.0000
  S   S196      1.0  0.56168  0.36642  0.39369  1.0000
  C   C479      1.0  0.52203  0.41523  0.07262  1.0000
  S   S197      1.0  0.63161  0.47340  0.35793  1.0000
  C   C480      1.0  0.63885  0.51906  0.20999  1.0000
  Fe  Fe99      1.0  0.64827  0.47207  0.40849  1.0000
  Fe  Fe100     1.0  0.63885  0.45193  0.33312  1.0000
  S   S198      1.0  0.62034  0.43312  0.29792  1.0000
  C   C481      1.0  0.57759  0.38525  0.36713  1.0000
  C   C482      1.0  0.57872  0.39008  0.32288  1.0000
  C   C483      1.0  0.59197  0.40472  0.30209  1.0000
  C   C484      1.0  0.60400  0.41480  0.32548  1.0000
  C   C485      1.0  0.60281  0.41004  0.36980  1.0000
  C   C486      1.0  0.58972  0.39521  0.39046  1.0000
  H   H762      1.0  0.56947  0.38247  0.30460  1.0000
  H   H763      1.0  0.59291  0.40821  0.26772  1.0000
  H   H764      1.0  0.61205  0.41769  0.38805  1.0000
  H   H765      1.0  0.58894  0.39149  0.42468  1.0000
  H   H766      1.0  0.59046  0.35446  0.36417  1.0000
  H   H767      1.0  0.51717  0.38122  0.01650  1.0000
  S   S199      1.0  0.52209  0.37029  0.22193  1.0000
  H   H768      1.0  0.56553  0.56875  0.47658  1.0000
  S   S200      1.0  0.60949  0.52384  0.01540  1.0000
  C   C487      1.0  0.52341  0.41480  0.99563  1.0000
  H   H769      1.0  0.65311  0.48792  0.14340  1.0000
  H   H770      1.0  0.55615  0.52797  0.09423  1.0000
  S   S201      1.0  0.66205  0.46940  0.28964  1.0000
  N   N49       1.0  0.59903  0.45998  0.21158  1.0000
  C   C488      1.0  0.59173  0.46940  0.18165  1.0000
  C   C489      1.0  0.61175  0.45439  0.18669  1.0000
  C   C490      1.0  0.58538  0.44485  0.23561  1.0000
  C   C491      1.0  0.60735  0.47126  0.24250  1.0000
  H   H771      1.0  0.58540  0.46130  0.15772  1.0000
  H   H772      1.0  0.60174  0.48090  0.16303  1.0000
  H   H773      1.0  0.58205  0.47384  0.19915  1.0000
  H   H774      1.0  0.61784  0.44760  0.20839  1.0000
  H   H775      1.0  0.60589  0.44557  0.16363  1.0000
  H   H776      1.0  0.62205  0.46548  0.16743  1.0000
  H   H777      1.0  0.57545  0.44856  0.25439  1.0000
  H   H778      1.0  0.59052  0.43768  0.25895  1.0000
  H   H779      1.0  0.57900  0.43584  0.21348  1.0000
  H   H780      1.0  0.59815  0.47560  0.26227  1.0000
  H   H781      1.0  0.61761  0.48285  0.22551  1.0000
  H   H782      1.0  0.61328  0.46463  0.26505  1.0000
  S   S202      1.0  0.56767  0.50830  0.03549  1.0000
  S   S203      1.0  0.58979  0.48341  0.05366  1.0000
  H   H783      1.0  0.54063  0.58253  0.26507  1.0000
  H   H784      1.0  0.55572  0.54889  0.22170  1.0000
  C   C492      1.0  0.53375  0.46390  0.09351  1.0000
  C   C493      1.0  0.52936  0.46031  0.01928  1.0000
  C   C494      1.0  0.64921  0.51056  0.22667  1.0000
  C   C495      1.0  0.64899  0.49652  0.16209  1.0000
  N   N50       1.0  0.52602  0.40637  0.03635  1.0000
  C   C496      1.0  0.51559  0.61372  0.37411  1.0000
  H   H785      1.0  0.51134  0.45333  0.14093  1.0000
  S   S204      1.0  0.63158  0.50011  0.09560  1.0000
  H   H786      1.0  0.52739  0.56463  0.24285  1.0000
  Fe  Fe101     1.0  0.60904  0.50606  0.07432  1.0000
  S   S205      1.0  0.64043  0.47301  0.47924  1.0000
  H   H787      1.0  0.52718  0.52745  0.12001  1.0000
  C   C497      1.0  0.62315  0.51328  0.47805  1.0000
  H   H788      1.0  0.53051  0.42883  0.06860  1.0000
  H   H789      1.0  0.58325  0.58694  0.48434  1.0000
  C   C498      1.0  0.54020  0.46623  0.04966  1.0000
  Fe  Fe102     1.0  0.53972  0.35316  0.35889  1.0000
  S   S206      1.0  0.54745  0.47233  0.13072  1.0000
  Fe  Fe103     1.0  0.52089  0.35177  0.28026  1.0000
  C   C499      1.0  0.51205  0.45153  0.03265  1.0000
  C   C500      1.0  0.53682  0.53939  0.10546  1.0000
  Fe  Fe104     1.0  0.57067  0.49177  0.09166  1.0000
  S   S207      1.0  0.67205  0.49135  0.37063  1.0000
  S   S208      1.0  0.65395  0.44908  0.38675  1.0000
  Fe  Fe105     1.0  0.65579  0.49062  0.31787  1.0000
  C   C501      1.0  0.54036  0.57051  0.25166  1.0000
  H   H790      1.0  0.56021  0.58846  0.15056  1.0000
  H   H791      1.0  0.55362  0.47246  0.03890  1.0000
  C   C502      1.0  0.65417  0.49922  0.20266  1.0000
  H   H792      1.0  0.58524  0.55440  0.44675  1.0000
  H   H793      1.0  0.55278  0.42074  0.02812  1.0000
  H   H794      1.0  0.54208  0.56167  0.27789  1.0000
  C   C503      1.0  0.55291  0.55771  0.19738  1.0000
  S   S209      1.0  0.65609  0.51438  0.27712  1.0000
  H   H795      1.0  0.62503  0.52232  0.15737  1.0000
  C   C504      1.0  0.55044  0.58542  0.17965  1.0000
  S   S210      1.0  0.54289  0.34365  0.29520  1.0000
  Fe  Fe106     1.0  0.58842  0.50170  0.99864  1.0000
  S   S211      1.0  0.53209  0.61291  0.24833  1.0000
  S   S212      1.0  0.52586  0.60519  0.12761  1.0000
  S   S213      1.0  0.58647  0.55545  0.05380  1.0000
  N   N51       1.0  0.55358  0.57397  0.21378  1.0000
  C   C505      1.0  0.54551  0.56990  0.08403  1.0000
  C   C506      1.0  0.57053  0.58233  0.22623  1.0000
  H   H796      1.0  0.53473  0.60603  0.33854  1.0000
  H   H797      1.0  0.58075  0.58502  0.19824  1.0000
  H   H798      1.0  0.56226  0.55989  0.16769  1.0000
  C   C507      1.0  0.53297  0.55451  0.10273  1.0000
  C   C508      1.0  0.56195  0.57015  0.06888  1.0000
  H   H799      1.0  0.63505  0.52793  0.22832  1.0000
  H   H800      1.0  0.54256  0.58160  0.08140  1.0000
  C   C509      1.0  0.51639  0.45514  0.10704  1.0000
  H   H801      1.0  0.57331  0.57413  0.25222  1.0000
  H   H802      1.0  0.54635  0.40107  0.06410  1.0000
  H   H803      1.0  0.57144  0.59475  0.23822  1.0000
  H   H804      1.0  0.57167  0.58207  0.05465  1.0000
  C   C510      1.0  0.52081  0.61595  0.29559  1.0000
  H   H805      1.0  0.51854  0.61013  0.40545  1.0000
  C   C511      1.0  0.52471  0.61139  0.33627  1.0000
  C   C512      1.0  0.63315  0.51588  0.16992  1.0000
  C   C513      1.0  0.56584  0.55501  0.07228  1.0000
  Fe  Fe107     1.0  0.58859  0.52908  0.05676  1.0000
  C   C514      1.0  0.55323  0.53965  0.09066  1.0000
  S   S214      1.0  0.51948  0.36344  0.34169  1.0000
  H   H806      1.0  0.55063  0.59776  0.19095  1.0000
  H   H807      1.0  0.53780  0.57940  0.16934  1.0000
  H   H808      1.0  0.54008  0.55090  0.18886  1.0000
  S   S215      1.0  0.58984  0.51310  0.11705  1.0000
  C   C515      1.0  0.51471  0.38828  0.04350  1.0000
  H   H809      1.0  0.50994  0.41414  0.99640  1.0000
  H   H810      1.0  0.66227  0.49273  0.21485  1.0000
  H   H811      1.0  0.52363  0.40910  0.10397  1.0000
  H   H812      1.0  0.62036  0.52182  0.45439  1.0000
  H   H813      1.0  0.59905  0.35095  0.31223  1.0000
  C   C516      1.0  0.63015  0.50108  0.46423  1.0000
  C   C517      1.0  0.54395  0.40722  0.03368  1.0000
  C   C518      1.0  0.58730  0.34731  0.33605  1.0000
  S   S216      1.0  0.51269  0.55375  0.12559  1.0000
  H   H814      1.0  0.54743  0.40062  0.00674  1.0000
  Fe  Fe108     1.0  0.51559  0.60650  0.19590  1.0000
  H   H815      1.0  0.57801  0.35206  0.32099  1.0000
  H   H816      1.0  0.53140  0.42860  0.98969  1.0000
  H   H817      1.0  0.50971  0.39418  0.17840  1.0000
  Fe  Fe109     1.0  0.59406  0.52270  0.60563  1.0000
  H   H818      1.0  0.52359  0.62226  0.63862  1.0000
  H   H819      1.0  0.58401  0.45553  0.62568  1.0000
  C   C519      1.0  0.51021  0.44280  0.64951  1.0000
  H   H820      1.0  0.59787  0.47902  0.51264  1.0000
  H   H821      1.0  0.59852  0.56091  0.96067  1.0000
  H   H822      1.0  0.51569  0.65616  0.69761  1.0000
  C   C520      1.0  0.53583  0.46140  0.67191  1.0000
  C   C521      1.0  0.52799  0.47366  0.67735  1.0000
  H   H823      1.0  0.60231  0.55112  0.91394  1.0000
  C   C522      1.0  0.52686  0.44589  0.65831  1.0000
  H   H824      1.0  0.53480  0.48569  0.68767  1.0000
  C   C523      1.0  0.52406  0.57172  0.58759  1.0000
  H   H825      1.0  0.53285  0.43638  0.65375  1.0000
  C   C524      1.0  0.59626  0.56011  0.92645  1.0000
  S   S217      1.0  0.58278  0.49178  0.93519  1.0000
  N   N52       1.0  0.57976  0.45983  0.55984  1.0000
  H   H826      1.0  0.57041  0.53835  0.98374  1.0000
  H   H827      1.0  0.58952  0.57203  0.57027  1.0000
  N   N53       1.0  0.58429  0.56257  0.50980  1.0000
  H   H828      1.0  0.62063  0.50396  0.58662  1.0000
  H   H829      1.0  0.52848  0.65607  0.58167  1.0000
  H   H830      1.0  0.57954  0.44141  0.51572  1.0000
  C   C525      1.0  0.57465  0.57400  0.49931  1.0000
  H   H831      1.0  0.56535  0.54681  0.56153  1.0000
  Fe  Fe110     1.0  0.56934  0.49418  0.67111  1.0000
  C   C526      1.0  0.57234  0.54574  0.53045  1.0000
  H   H832      1.0  0.52658  0.40868  0.96736  1.0000
  S   S218      1.0  0.56110  0.51200  0.71036  1.0000
  H   H833      1.0  0.58237  0.56519  0.85622  1.0000
  C   C527      1.0  0.54391  0.64814  0.67401  1.0000
  H   H834      1.0  0.55655  0.56265  0.93859  1.0000
  H   H835      1.0  0.57645  0.57966  0.92041  1.0000
  Fe  Fe111     1.0  0.51368  0.60636  0.55408  1.0000
  H   H836      1.0  0.51269  0.54428  0.59793  1.0000
  C   C528      1.0  0.58567  0.44627  0.54398  1.0000
  N   N54       1.0  0.53054  0.64884  0.64765  1.0000
  H   H837      1.0  0.63336  0.48272  0.56229  1.0000
  S   S219      1.0  0.55699  0.46571  0.68027  1.0000
  C   C529      1.0  0.62318  0.50318  0.55253  1.0000
  H   H838      1.0  0.57084  0.48679  0.85400  1.0000
  C   C530      1.0  0.63044  0.49119  0.53869  1.0000
  H   H839      1.0  0.60219  0.46963  0.59015  1.0000
  C   C531      1.0  0.63359  0.48982  0.49462  1.0000
  C   C532      1.0  0.51779  0.63156  0.65064  1.0000
  S   S220      1.0  0.56673  0.50684  0.60810  1.0000
  C   C533      1.0  0.58060  0.49928  0.85015  1.0000
  C   C534      1.0  0.58408  0.47429  0.52505  1.0000
  H   H840      1.0  0.60563  0.58279  0.52517  1.0000
  S   S221      1.0  0.59737  0.50827  0.66588  1.0000
  H   H841      1.0  0.56170  0.54924  0.87342  1.0000
  H   H842      1.0  0.51221  0.66165  0.64383  1.0000
  H   H843      1.0  0.51155  0.37400  0.50040  1.0000
  H   H844      1.0  0.60372  0.56173  0.54850  1.0000
  H   H845      1.0  0.58087  0.48527  0.53657  1.0000
  Fe  Fe112     1.0  0.56060  0.52597  0.64646  1.0000
  S   S222      1.0  0.58788  0.54310  0.63960  1.0000
  H   H846      1.0  0.61578  0.54385  0.83546  1.0000
  H   H847      1.0  0.56271  0.53981  0.50955  1.0000
  C   C535      1.0  0.57049  0.56680  0.93956  1.0000
  C   C536      1.0  0.58476  0.50962  0.81009  1.0000
  S   S223      1.0  0.53889  0.60663  0.57312  1.0000
  H   H848      1.0  0.55035  0.63923  0.66257  1.0000
  H   H849      1.0  0.53141  0.67377  0.66285  1.0000
  H   H850      1.0  0.56708  0.57571  0.52878  1.0000
  N   N55       1.0  0.57788  0.55433  0.92298  1.0000
  H   H851      1.0  0.57822  0.50502  0.78339  1.0000
  H   H852      1.0  0.58004  0.54298  0.86468  1.0000
  C   C537      1.0  0.55224  0.56652  0.61890  1.0000
  C   C538      1.0  0.55250  0.58321  0.60606  1.0000
  C   C539      1.0  0.53842  0.58581  0.59019  1.0000
  H   H853      1.0  0.56304  0.56456  0.63149  1.0000
  H   H854      1.0  0.56358  0.59409  0.60852  1.0000
  C   C540      1.0  0.58815  0.46574  0.59751  1.0000
  S   S224      1.0  0.60933  0.52864  0.53876  1.0000
  H   H855      1.0  0.57244  0.56825  0.97381  1.0000
  C   C541      1.0  0.58887  0.50505  0.88527  1.0000
  H   H856      1.0  0.58509  0.47690  0.60825  1.0000
  C   C542      1.0  0.60587  0.53146  0.83964  1.0000
  H   H857      1.0  0.55428  0.44829  0.54554  1.0000
  H   H858      1.0  0.60851  0.52531  0.90642  1.0000
  C   C543      1.0  0.60168  0.52108  0.87984  1.0000
  S   S225      1.0  0.53716  0.53131  0.62956  1.0000
  C   C544      1.0  0.52382  0.55510  0.60024  1.0000
  H   H859      1.0  0.54391  0.64576  0.58826  1.0000
  C   C545      1.0  0.57539  0.55293  0.87736  1.0000
  C   C546      1.0  0.53790  0.55245  0.61574  1.0000
  C   C547      1.0  0.56114  0.45303  0.57287  1.0000
  C   C548      1.0  0.53820  0.65486  0.60207  1.0000
  H   H860      1.0  0.55746  0.44222  0.59943  1.0000
  H   H861      1.0  0.55559  0.53231  0.94602  1.0000
  Fe  Fe113     1.0  0.58897  0.52732  0.70071  1.0000
  S   S226      1.0  0.60175  0.53945  0.75559  1.0000
  H   H862      1.0  0.50973  0.44393  0.80408  1.0000
  C   C549      1.0  0.59726  0.52582  0.80479  1.0000
  H   H863      1.0  0.58279  0.43522  0.56954  1.0000
  H   H864      1.0  0.59972  0.45112  0.53348  1.0000
  H   H865      1.0  0.60311  0.57293  0.90780  1.0000
  H   H866      1.0  0.55637  0.46302  0.58497  1.0000
  H   H867      1.0  0.57724  0.47048  0.49709  1.0000
  H   H868      1.0  0.54834  0.66762  0.59857  1.0000
  C   C550      1.0  0.61934  0.51414  0.52226  1.0000
  C   C551      1.0  0.59631  0.57014  0.53973  1.0000
  C   C552      1.0  0.56937  0.53745  0.94897  1.0000
  C   C553      1.0  0.52215  0.66064  0.66375  1.0000
  H   H869      1.0  0.53451  0.46232  0.98539  1.0000
  H   H870      1.0  0.57913  0.53664  0.53770  1.0000
  H   H871      1.0  0.53850  0.64357  0.70855  1.0000
  H   H872      1.0  0.51309  0.57359  0.57575  1.0000
  C   C554      1.0  0.51110  0.47026  0.67030  1.0000
  H   H873      1.0  0.51163  0.62654  0.68449  1.0000
  H   H874      1.0  0.57512  0.52783  0.93890  1.0000
  S   S227      1.0  0.50990  0.63061  0.52825  1.0000
  H   H875      1.0  0.55383  0.66095  0.67248  1.0000
  H   H876      1.0  0.50887  0.44157  0.74805  1.0000
  C   C555      1.0  0.55553  0.00470  0.09782  1.0000
  H   H877      1.0  0.56250  0.95286  0.37041  1.0000
  Fe  Fe114     1.0  0.52653  0.94743  0.18711  1.0000
  H   H878      1.0  0.52725  0.95613  0.39845  1.0000
  S   S228      1.0  0.54068  0.95547  0.24348  1.0000
  Fe  Fe115     1.0  0.52318  0.96384  0.09992  1.0000
  S   S229      1.0  0.53147  0.98706  0.04964  1.0000
  S   S230      1.0  0.53866  0.94774  0.11922  1.0000
  C   C556      1.0  0.54696  0.00545  0.06227  1.0000
  C   C557      1.0  0.53152  0.94568  0.29623  1.0000
  C   C558      1.0  0.52390  0.92793  0.30550  1.0000
  C   C559      1.0  0.51815  0.92033  0.34855  1.0000
  C   C560      1.0  0.57448  0.95705  0.38505  1.0000
  C   C561      1.0  0.52653  0.94824  0.37281  1.0000
  C   C562      1.0  0.53276  0.95582  0.32996  1.0000
  H   H879      1.0  0.57608  0.98916  0.39751  1.0000
  C   C563      1.0  0.58789  0.96865  0.44551  1.0000
  H   H880      1.0  0.53857  0.96958  0.32281  1.0000
  H   H881      1.0  0.59237  0.95763  0.45187  1.0000
  H   H882      1.0  0.56389  0.98353  0.45046  1.0000
  H   H883      1.0  0.55278  0.99265  0.11793  1.0000
  H   H884      1.0  0.57878  0.94580  0.38920  1.0000
  S   S231      1.0  0.51474  0.90122  0.08487  1.0000
  C   C564      1.0  0.55868  0.94993  0.45682  1.0000
  S   S232      1.0  0.51339  0.92046  0.43609  1.0000
  Fe  Fe116     1.0  0.51512  0.92520  0.11519  1.0000
  N   N56       1.0  0.57185  0.96354  0.42665  1.0000
  H   H885      1.0  0.59819  0.97888  0.42367  1.0000
  H   H886      1.0  0.51281  0.90654  0.35573  1.0000
  H   H887      1.0  0.52306  0.92002  0.27967  1.0000
  H   H888      1.0  0.55435  0.97525  0.40492  1.0000
  C   C565      1.0  0.51966  0.93045  0.38235  1.0000
  H   H889      1.0  0.58417  0.96703  0.36118  1.0000
  H   H890      1.0  0.56231  0.93833  0.46268  1.0000
  C   C566      1.0  0.56631  0.97853  0.41954  1.0000
  H   H891      1.0  0.54631  0.94584  0.44412  1.0000
  H   H892      1.0  0.58620  0.97367  0.47690  1.0000
  S   S233      1.0  0.52229  0.96450  0.48534  1.0000
  S   S234      1.0  0.51276  0.96519  0.16754  1.0000
  H   H893      1.0  0.51465  0.00651  0.00458  1.0000
  H   H894      1.0  0.51400  0.00825  0.08382  1.0000
  H   H895      1.0  0.55656  0.95437  0.48866  1.0000
  C   C567      1.0  0.51277  0.90872  0.89601  1.0000
  S   S235      1.0  0.50981  0.96027  0.59049  1.0000
  Fe  Fe117     1.0  0.53333  0.96191  0.54653  1.0000
  S   S236      1.0  0.55944  0.98169  0.54397  1.0000
  S   S237      1.0  0.52689  0.93323  0.55011  1.0000
  C   C568      1.0  0.54925  0.00862  0.63856  1.0000
  C   C569      1.0  0.54857  0.99537  0.61336  1.0000
  H   H896      1.0  0.52186  0.88688  0.71192  1.0000
  H   H897      1.0  0.53924  0.98281  0.62346  1.0000
  H   H898      1.0  0.52541  0.91495  0.81120  1.0000
  H   H899      1.0  0.52445  0.90900  0.91014  1.0000
  C   C570      1.0  0.52349  0.90198  0.82776  1.0000
  C   C571      1.0  0.52044  0.00930  0.55226  1.0000
  H   H900      1.0  0.51877  0.00838  0.51775  1.0000
  C   C572      1.0  0.56028  0.99826  0.57606  1.0000
  H   H901      1.0  0.53560  0.90221  0.83944  1.0000
  H   H902      1.0  0.51841  0.87899  0.89872  1.0000
  H   H903      1.0  0.51625  0.90796  0.65970  1.0000
  H   H904      1.0  0.52111  0.89302  0.80288  1.0000
  H   H905      1.0  0.51459  0.92198  0.88170  1.0000
  H   H906      1.0  0.54026  0.00617  0.66771  1.0000
  H   H907      1.0  0.51509  0.99608  0.56948  1.0000
  C   C573      1.0  0.50897  0.88665  0.71079  1.0000
  N   N57       1.0  0.50919  0.89664  0.86357  1.0000
  Fe  Fe118     1.0  0.51396  0.93594  0.49190  1.0000
  H   H908      1.0  0.50930  0.00756  0.63507  1.0000
  H   H909      1.0  0.71701  0.24562  0.38254  1.0000
  H   H910      1.0  0.73538  0.23749  0.42968  1.0000
  Fe  Fe119     1.0  0.77557  0.32116  0.30094  1.0000
  H   H911      1.0  0.75271  0.32446  0.21890  1.0000
  S   S238      1.0  0.74748  0.30422  0.30938  1.0000
  H   H912      1.0  0.83472  0.31367  0.31022  1.0000
  Fe  Fe120     1.0  0.81311  0.33646  0.25951  1.0000
  H   H913      1.0  0.83117  0.32760  0.37533  1.0000
  S   S239      1.0  0.79971  0.31831  0.32019  1.0000
  S   S240      1.0  0.70714  0.22739  0.27916  1.0000
  H   H914      1.0  0.72771  0.20577  0.38593  1.0000
  C   C574      1.0  0.73669  0.28282  0.30043  1.0000
  C   C575      1.0  0.74523  0.27235  0.28398  1.0000
  C   C576      1.0  0.73597  0.25549  0.27726  1.0000
  C   C577      1.0  0.71812  0.24889  0.28699  1.0000
  C   C578      1.0  0.70958  0.25938  0.30339  1.0000
  C   C579      1.0  0.71883  0.27622  0.31007  1.0000
  H   H915      1.0  0.75895  0.27725  0.27621  1.0000
  H   H916      1.0  0.74271  0.24753  0.26433  1.0000
  H   H917      1.0  0.69585  0.25455  0.31081  1.0000
  H   H918      1.0  0.71207  0.28420  0.32277  1.0000
  C   C580      1.0  0.72187  0.21535  0.37531  1.0000
  H   H919      1.0  0.73052  0.31673  0.23864  1.0000
  Fe  Fe121     1.0  0.80374  0.34241  0.35120  1.0000
  H   H920      1.0  0.69861  0.23713  0.42327  1.0000
  C   C581      1.0  0.72418  0.22614  0.44421  1.0000
  N   N58       1.0  0.71262  0.22003  0.41221  1.0000
  S   S241      1.0  0.78874  0.33752  0.23794  1.0000
  H   H921      1.0  0.73212  0.22674  0.35697  1.0000
  H   H922      1.0  0.70216  0.19413  0.44418  1.0000
  C   C582      1.0  0.70633  0.23377  0.39678  1.0000
  Fe  Fe122     1.0  0.67926  0.21128  0.30287  1.0000
  H   H923      1.0  0.71319  0.20962  0.35200  1.0000
  C   C583      1.0  0.69804  0.20489  0.43242  1.0000
  C   C584      1.0  0.74060  0.32693  0.21602  1.0000
  H   H924      1.0  0.73776  0.32520  0.18259  1.0000
  H   H925      1.0  0.69061  0.20787  0.46029  1.0000
  H   H926      1.0  0.69817  0.22983  0.37125  1.0000
  H   H927      1.0  0.71759  0.22995  0.47218  1.0000
  H   H928      1.0  0.68903  0.20011  0.40909  1.0000
  S   S242      1.0  0.83455  0.33017  0.22289  1.0000
  H   H929      1.0  0.73555  0.33602  0.29499  1.0000
  H   H930      1.0  0.72903  0.21604  0.45696  1.0000
  H   H931      1.0  0.71478  0.33714  0.24512  1.0000
  H   H932      1.0  0.67998  0.12275  0.64027  1.0000
  H   H933      1.0  0.68077  0.10324  0.66769  1.0000
  C   C585      1.0  0.69712  0.51095  0.24303  1.0000
  Fe  Fe123     1.0  0.79281  0.35969  0.27640  1.0000
  H   H934      1.0  0.77706  0.44515  0.37833  1.0000
  C   C586      1.0  0.83044  0.36037  0.42669  1.0000
  H   H935      1.0  0.80043  0.39648  0.39898  1.0000
  H   H936      1.0  0.83911  0.50884  0.23855  1.0000
  Fe  Fe124     1.0  0.82505  0.48758  0.44621  1.0000
  S   S243      1.0  0.83580  0.47355  0.40027  1.0000
  Fe  Fe125     1.0  0.79845  0.49034  0.38665  1.0000
  S   S244      1.0  0.80799  0.47672  0.33584  1.0000
  S   S245      1.0  0.77506  0.49883  0.38982  1.0000
  Fe  Fe126     1.0  0.80907  0.45890  0.39258  1.0000
  S   S246      1.0  0.80033  0.43019  0.40557  1.0000
  Fe  Fe127     1.0  0.83417  0.49287  0.34792  1.0000
  S   S247      1.0  0.81835  0.36022  0.29203  1.0000
  S   S248      1.0  0.79814  0.47143  0.44231  1.0000
  H   H937      1.0  0.68609  0.50235  0.26603  1.0000
  H   H938      1.0  0.69600  0.54023  0.26942  1.0000
  S   S249      1.0  0.70286  0.46611  0.32588  1.0000
  N   N59       1.0  0.70968  0.52250  0.26611  1.0000
  S   S250      1.0  0.78754  0.38369  0.25517  1.0000
  C   C587      1.0  0.79779  0.41821  0.36191  1.0000
  C   C588      1.0  0.79476  0.42459  0.32197  1.0000
  C   C589      1.0  0.79160  0.41402  0.28894  1.0000
  C   C590      1.0  0.79546  0.39123  0.33506  1.0000
  C   C591      1.0  0.79810  0.40153  0.36829  1.0000
  H   H939      1.0  0.79458  0.43750  0.31673  1.0000
  H   H940      1.0  0.78898  0.41881  0.25832  1.0000
  C   C592      1.0  0.75509  0.48966  0.37150  1.0000
  C   C593      1.0  0.74061  0.49229  0.39212  1.0000
  C   C594      1.0  0.72451  0.48518  0.37878  1.0000
  C   C595      1.0  0.72275  0.47545  0.34432  1.0000
  C   C596      1.0  0.73727  0.47306  0.32325  1.0000
  C   C597      1.0  0.75335  0.48018  0.33656  1.0000
  H   H941      1.0  0.83998  0.36229  0.16505  1.0000
  H   H942      1.0  0.71347  0.48715  0.39534  1.0000
  H   H943      1.0  0.74685  0.35870  0.28011  1.0000
  H   H944      1.0  0.76446  0.47859  0.31931  1.0000
  C   C598      1.0  0.74820  0.41910  0.40307  1.0000
  H   H945      1.0  0.71939  0.54204  0.21153  1.0000
  H   H946      1.0  0.82729  0.39619  0.46825  1.0000
  S   S251      1.0  0.82475  0.50795  0.39479  1.0000
  C   C599      1.0  0.79190  0.39727  0.29557  1.0000
  H   H947      1.0  0.75687  0.37045  0.20379  1.0000
  H   H948      1.0  0.81264  0.40760  0.46346  1.0000
  H   H949      1.0  0.74182  0.49975  0.41889  1.0000
  H   H950      1.0  0.75977  0.41531  0.40283  1.0000
  C   C600      1.0  0.71622  0.51226  0.29590  1.0000
  H   H951      1.0  0.72573  0.52047  0.31409  1.0000
  C   C601      1.0  0.83448  0.36180  0.46882  1.0000
  H   H952      1.0  0.73610  0.46577  0.29615  1.0000
  H   H953      1.0  0.72238  0.50429  0.27839  1.0000
  C   C602      1.0  0.70138  0.53262  0.29089  1.0000
  H   H954      1.0  0.69052  0.52420  0.31493  1.0000
  C   C603      1.0  0.72392  0.53414  0.23451  1.0000
  C   C604      1.0  0.76533  0.44856  0.38003  1.0000
  H   H955      1.0  0.72582  0.35971  0.23057  1.0000
  H   H956      1.0  0.69194  0.51819  0.22000  1.0000
  H   H957      1.0  0.74402  0.41764  0.37070  1.0000
  H   H958      1.0  0.79606  0.37852  0.34041  1.0000
  H   H959      1.0  0.70267  0.50272  0.22480  1.0000
  C   C605      1.0  0.75745  0.43824  0.45598  1.0000
  H   H960      1.0  0.83923  0.46599  0.16420  1.0000
  H   H961      1.0  0.73863  0.45486  0.42030  1.0000
  H   H962      1.0  0.76136  0.44824  0.34733  1.0000
  H   H963      1.0  0.71041  0.54154  0.30878  1.0000
  H   H964      1.0  0.73366  0.54301  0.25087  1.0000
  H   H965      1.0  0.83488  0.43022  0.41297  1.0000
  N   N60       1.0  0.75177  0.43683  0.41305  1.0000
  H   H966      1.0  0.73036  0.52685  0.21520  1.0000
  H   H967      1.0  0.70581  0.50327  0.32006  1.0000
  H   H968      1.0  0.76885  0.46198  0.38744  1.0000
  H   H969      1.0  0.76933  0.43507  0.45684  1.0000
  H   H970      1.0  0.83926  0.36960  0.35946  1.0000
  H   H971      1.0  0.73165  0.44074  0.38100  1.0000
  C   C606      1.0  0.75548  0.35728  0.19632  1.0000
  H   H972      1.0  0.72569  0.43294  0.43757  1.0000
  C   C607      1.0  0.73624  0.44149  0.41302  1.0000
  H   H973      1.0  0.76019  0.45148  0.46454  1.0000
  H   H974      1.0  0.73802  0.40982  0.42732  1.0000
  H   H975      1.0  0.75312  0.35657  0.16222  1.0000
  H   H976      1.0  0.76803  0.35573  0.19856  1.0000
  N   N61       1.0  0.83698  0.42261  0.47870  1.0000
  S   S252      1.0  0.81109  0.34508  0.41842  1.0000
  H   H977      1.0  0.82048  0.43765  0.47804  1.0000
  Fe  Fe128     1.0  0.67680  0.46868  0.34522  1.0000
  C   C608      1.0  0.74552  0.34575  0.27111  1.0000
  H   H978      1.0  0.72212  0.34576  0.18935  1.0000
  C   C609      1.0  0.72538  0.34682  0.22268  1.0000
  H   H979      1.0  0.74762  0.42943  0.48176  1.0000
  N   N62       1.0  0.74174  0.34419  0.22648  1.0000
  C   C610      1.0  0.82286  0.40618  0.48173  1.0000
  H   H980      1.0  0.75768  0.34367  0.27483  1.0000
  S   S253      1.0  0.77851  0.34365  0.33803  1.0000
  C   C611      1.0  0.83050  0.43557  0.49612  1.0000
  H   H981      1.0  0.84079  0.44820  0.49405  1.0000
  S   S254      1.0  0.83299  0.48789  0.51329  1.0000
  H   H982      1.0  0.82492  0.43169  0.53074  1.0000
  H   H983      1.0  0.81701  0.40125  0.51581  1.0000
  H   H984      1.0  0.82538  0.35406  0.49593  1.0000
  H   H985      1.0  0.87216  0.31926  0.36817  1.0000
  H   H986      1.0  0.86785  0.32640  0.09025  1.0000
  C   C612      1.0  0.84421  0.32807  0.38055  1.0000
  C   C613      1.0  0.85316  0.32866  0.14825  1.0000
  C   C614      1.0  0.84499  0.33848  0.16956  1.0000
  H   H987      1.0  0.84288  0.31619  0.40171  1.0000
  H   H988      1.0  0.93521  0.33680  0.04185  1.0000
  H   H989      1.0  0.84716  0.30277  0.33547  1.0000
  H   H990      1.0  0.85239  0.31630  0.16388  1.0000
  C   C615      1.0  0.87242  0.33091  0.34758  1.0000
  C   C616      1.0  0.86202  0.33443  0.10646  1.0000
  N   N63       1.0  0.85516  0.32986  0.33915  1.0000
  H   H991      1.0  0.87824  0.34214  0.36463  1.0000
  H   H992      1.0  0.89936  0.33768  0.03319  1.0000
  H   H993      1.0  0.88100  0.33228  0.31695  1.0000
  H   H994      1.0  0.85545  0.31609  0.28430  1.0000
  C   C617      1.0  0.84785  0.31490  0.31643  1.0000
  H   H995      1.0  0.84941  0.33904  0.39887  1.0000
  H   H996      1.0  0.92038  0.33931  0.08418  1.0000
  H   H997      1.0  0.91413  0.33496  0.99086  1.0000
  C   C618      1.0  0.97911  0.43138  0.00005  1.0000
  S   S255      1.0  0.90197  0.40435  0.02793  1.0000
  H   H998      1.0  0.00025  0.42468  0.38204  1.0000
  H   H999      1.0  0.86166  0.35722  0.32785  1.0000
  C   C619      1.0  0.85548  0.36057  0.10682  1.0000
  H   H1000     1.0  0.00370  0.44816  0.01082  1.0000
  Fe  Fe129     1.0  0.88630  0.38293  0.99565  1.0000
  H   H1001     1.0  0.99924  0.49309  0.12959  1.0000
  H   H1002     1.0  0.95301  0.46830  0.14522  1.0000
  H   H1003     1.0  0.85249  0.48560  0.13168  1.0000
  H   H1004     1.0  0.87337  0.44654  0.16365  1.0000
  C   C620      1.0  0.85830  0.38115  0.39901  1.0000
  H   H1005     1.0  0.00407  0.61003  0.05756  1.0000
  H   H1006     1.0  0.98287  0.50171  0.14589  1.0000
  H   H1007     1.0  0.88209  0.48966  0.10354  1.0000
  H   H1008     1.0  0.98148  0.41983  0.01102  1.0000
  C   C621      1.0  0.91028  0.34462  0.00755  1.0000
  H   H1009     1.0  0.86771  0.45198  0.08895  1.0000
  C   C622      1.0  0.86251  0.38230  0.44100  1.0000
  C   C623      1.0  0.84451  0.42845  0.43298  1.0000
  H   H1010     1.0  0.98138  0.48056  0.16811  1.0000
  C   C624      1.0  0.88533  0.51718  0.18436  1.0000
  H   H1011     1.0  0.86864  0.45893  0.20425  1.0000
  N   N64       1.0  0.86442  0.46658  0.14046  1.0000
  C   C625      1.0  0.93055  0.47076  0.01836  1.0000
  H   H1012     1.0  0.97690  0.45756  0.12156  1.0000
  C   C626      1.0  0.89811  0.47349  0.02574  1.0000
  H   H1013     1.0  0.92924  0.37811  0.06073  1.0000
  N   N65       1.0  0.97605  0.48268  0.10273  1.0000
  C   C627      1.0  0.98133  0.49556  0.06395  1.0000
  C   C628      1.0  0.95753  0.47796  0.11599  1.0000
  C   C629      1.0  0.98525  0.48986  0.13814  1.0000
  H   H1014     1.0  0.99527  0.49984  0.05349  1.0000
  H   H1015     1.0  0.85511  0.44090  0.42939  1.0000
  H   H1016     1.0  0.97277  0.46119  0.06726  1.0000
  H   H1017     1.0  0.99381  0.47057  0.08045  1.0000
  H   H1018     1.0  0.97790  0.50707  0.06964  1.0000
  C   C630      1.0  0.87333  0.51935  0.15902  1.0000
  C   C631      1.0  0.93859  0.36550  0.99036  1.0000
  H   H1019     1.0  0.94313  0.46978  0.01464  1.0000
  H   H1020     1.0  0.95404  0.48935  0.12294  1.0000
  H   H1021     1.0  0.85869  0.46821  0.07542  1.0000
  H   H1022     1.0  0.00227  0.55643  0.06304  1.0000
  C   C632      1.0  0.86334  0.35039  0.08546  1.0000
  S   S256      1.0  0.87452  0.35627  0.03221  1.0000
  C   C633      1.0  0.92214  0.58244  0.17480  1.0000
  C   C634      1.0  0.85659  0.51619  0.17864  1.0000
  C   C635      1.0  0.98004  0.46731  0.09267  1.0000
  H   H1023     1.0  0.88570  0.47479  0.02747  1.0000
  C   C636      1.0  0.90026  0.45825  0.01622  1.0000
  H   H1024     1.0  0.94144  0.35486  0.07144  1.0000
  H   H1025     1.0  0.95031  0.47249  0.08983  1.0000
  H   H1026     1.0  0.84599  0.44877  0.10917  1.0000
  C   C637      1.0  0.84613  0.35452  0.14877  1.0000
  N   N66       1.0  0.92458  0.35631  0.02560  1.0000
  H   H1027     1.0  0.86756  0.38854  0.37180  1.0000
  H   H1028     1.0  0.97507  0.49032  0.03610  1.0000
  H   H1029     1.0  0.92618  0.57852  0.14367  1.0000
  H   H1030     1.0  0.89109  0.47341  0.11714  1.0000
  H   H1031     1.0  0.85165  0.44347  0.18409  1.0000
  Fe  Fe130     1.0  0.93340  0.55849  0.99980  1.0000
  H   H1032     1.0  0.84721  0.51784  0.15920  1.0000
  H   H1033     1.0  0.91019  0.49860  0.04201  1.0000
  S   S257      1.0  0.91621  0.53121  0.00778  1.0000
  C   C638      1.0  0.92835  0.48601  0.02803  1.0000
  C   C639      1.0  0.91207  0.48718  0.03279  1.0000
  C   C640      1.0  0.91752  0.48468  0.48488  1.0000
  H   H1034     1.0  0.00499  0.42436  0.43650  1.0000
  S   S258      1.0  0.88331  0.39492  0.44760  1.0000
  C   C641      1.0  0.88171  0.47937  0.12918  1.0000
  C   C642      1.0  0.85196  0.51105  0.22346  1.0000
  H   H1035     1.0  0.99944  0.57236  0.46720  1.0000
  S   S259      1.0  0.85971  0.50365  0.30509  1.0000
  H   H1036     1.0  0.91531  0.49206  0.45624  1.0000
  H   H1037     1.0  0.91398  0.37637  0.02445  1.0000
  C   C643      1.0  0.00295  0.59543  0.16266  1.0000
  C   C644      1.0  0.99172  0.44741  0.99993  1.0000
  S   S260      1.0  0.95515  0.55308  0.02720  1.0000
  H   H1038     1.0  0.91816  0.44492  0.00644  1.0000
  H   H1039     1.0  0.89016  0.51048  0.24826  1.0000
  C   C645      1.0  0.86412  0.50910  0.24869  1.0000
  H   H1040     1.0  0.89714  0.55672  0.14978  1.0000
  C   C646      1.0  0.98622  0.58375  0.17033  1.0000
  S   S261      1.0  0.92221  0.56383  0.06338  1.0000
  H   H1041     1.0  0.89876  0.58419  0.23787  1.0000
  Fe  Fe131     1.0  0.90682  0.53580  0.07397  1.0000
  H   H1042     1.0  0.85603  0.48096  0.18601  1.0000
  H   H1043     1.0  0.94952  0.37460  0.00276  1.0000
  S   S262      1.0  0.92633  0.52845  0.10613  1.0000
  C   C647      1.0  0.86454  0.45329  0.17464  1.0000
  S   S263      1.0  0.94585  0.50367  0.03392  1.0000
  H   H1044     1.0  0.86042  0.51758  0.46586  1.0000
  Fe  Fe132     1.0  0.93707  0.52609  0.03999  1.0000
  C   C648      1.0  0.88074  0.51208  0.22889  1.0000
  C   C649      1.0  0.98259  0.59060  0.09634  1.0000
  C   C650      1.0  0.97606  0.58121  0.13712  1.0000
  S   S264      1.0  0.87890  0.52568  0.10290  1.0000
  H   H1045     1.0  0.91746  0.59322  0.16714  1.0000
  H   H1046     1.0  0.97477  0.58885  0.07068  1.0000
  C   C651      1.0  0.99916  0.60261  0.08902  1.0000
  S   S265      1.0  0.95523  0.56639  0.14776  1.0000
  H   H1047     1.0  0.93385  0.58739  0.19023  1.0000
  C   C652      1.0  0.89394  0.56154  0.18041  1.0000
  H   H1048     1.0  0.89412  0.56304  0.26542  1.0000
  H   H1049     1.0  0.91513  0.57853  0.26131  1.0000
  Fe  Fe133     1.0  0.94257  0.55608  0.09110  1.0000
  C   C653      1.0  0.90404  0.57370  0.24365  1.0000
  H   H1050     1.0  0.98119  0.57657  0.20201  1.0000
  H   H1051     1.0  0.88367  0.55077  0.20088  1.0000
  H   H1052     1.0  0.92786  0.55867  0.22672  1.0000
  H   H1053     1.0  0.91918  0.54894  0.18192  1.0000
  H   H1054     1.0  0.88855  0.57173  0.17201  1.0000
  N   N67       1.0  0.90901  0.56795  0.20268  1.0000
  C   C654      1.0  0.91594  0.55407  0.21197  1.0000
  H   H1055     1.0  0.90669  0.54325  0.23452  1.0000
  H   H1056     1.0  0.89815  0.51938  0.16977  1.0000
  H   H1057     1.0  0.88621  0.48570  0.15756  1.0000
  C   C655      1.0  0.91644  0.45677  0.01308  1.0000
  H   H1058     1.0  0.91370  0.47101  0.47945  1.0000
  C   C656      1.0  0.85896  0.45854  0.10184  1.0000
  C   C657      1.0  0.93068  0.34636  0.05719  1.0000
  S   S266      1.0  0.88264  0.44122  0.00792  1.0000
  H   H1059     1.0  0.90806  0.36240  0.07400  1.0000
  H   H1060     1.0  0.85633  0.37288  0.09076  1.0000
  C   C658      1.0  0.85041  0.37285  0.47604  1.0000
  C   C659      1.0  0.91875  0.36880  0.04740  1.0000
  H   H1061     1.0  0.00579  0.57027  0.10420  1.0000
  C   C660      1.0  0.85249  0.47512  0.15625  1.0000
  H   H1062     1.0  0.86399  0.34721  0.28000  1.0000
  C   C661      1.0  0.85614  0.34561  0.31198  1.0000
  H   H1063     1.0  0.84332  0.34520  0.30529  1.0000
  H   H1064     1.0  0.84964  0.41900  0.41898  1.0000
  C   C662      1.0  0.84228  0.37040  0.39191  1.0000
  H   H1065     1.0  0.93147  0.48905  0.48618  1.0000
  Fe  Fe134     1.0  0.91970  0.43471  0.53429  1.0000
  S   S267      1.0  0.91642  0.40705  0.53217  1.0000
  H   H1066     1.0  0.94433  0.41399  0.67153  1.0000
  Fe  Fe135     1.0  0.88289  0.42650  0.57525  1.0000
  S   S268      1.0  0.87636  0.39810  0.57741  1.0000
  S   S269      1.0  0.86560  0.44092  0.59482  1.0000
  Fe  Fe136     1.0  0.90213  0.40301  0.59947  1.0000
  S   S270      1.0  0.90951  0.38926  0.65545  1.0000
  C   C663      1.0  0.89235  0.56850  0.63232  1.0000
  S   S271      1.0  0.90725  0.43089  0.60232  1.0000
  H   H1067     1.0  0.90531  0.35175  0.98372  1.0000
  H   H1068     1.0  0.93078  0.42799  0.72325  1.0000
  H   H1069     1.0  0.91873  0.54126  0.82433  1.0000
  H   H1070     1.0  0.87211  0.53560  0.64814  1.0000
  H   H1071     1.0  0.90498  0.47865  0.59323  1.0000
  H   H1072     1.0  0.92758  0.51005  0.53382  1.0000
  H   H1073     1.0  0.95338  0.46774  0.64753  1.0000
  H   H1074     1.0  0.88062  0.57230  0.71224  1.0000
  C   C664      1.0  0.90283  0.45534  0.83316  1.0000
  S   S272      1.0  0.89610  0.52496  0.69636  1.0000
  H   H1075     1.0  0.89917  0.55961  0.64110  1.0000
  Fe  Fe137     1.0  0.89648  0.40449  0.90544  1.0000
  H   H1076     1.0  0.91267  0.46748  0.81718  1.0000
  S   S273      1.0  0.91354  0.42715  0.93164  1.0000
  C   C665      1.0  0.87289  0.45108  0.63918  1.0000
  C   C666      1.0  0.88051  0.44339  0.66834  1.0000
  C   C667      1.0  0.88900  0.45256  0.69942  1.0000
  C   C668      1.0  0.89006  0.46957  0.70091  1.0000
  C   C669      1.0  0.88174  0.47703  0.67310  1.0000
  C   C670      1.0  0.87283  0.46764  0.64288  1.0000
  H   H1077     1.0  0.87992  0.43037  0.66665  1.0000
  H   H1078     1.0  0.89522  0.44666  0.72119  1.0000
  H   H1079     1.0  0.88224  0.49005  0.67467  1.0000
  H   H1080     1.0  0.86649  0.47343  0.62130  1.0000
  C   C671      1.0  0.90400  0.39455  0.70694  1.0000
  H   H1081     1.0  0.95266  0.56829  0.72467  1.0000
  C   C672      1.0  0.90696  0.39456  0.78364  1.0000
  C   C673      1.0  0.89582  0.40381  0.78872  1.0000
  C   C674      1.0  0.88886  0.40837  0.75283  1.0000
  C   C675      1.0  0.89287  0.40370  0.71227  1.0000
  H   H1082     1.0  0.88009  0.41536  0.75654  1.0000
  H   H1083     1.0  0.88708  0.40686  0.68516  1.0000
  H   H1084     1.0  0.97830  0.56077  0.72993  1.0000
  C   C676      1.0  0.85010  0.42022  0.50392  1.0000
  Fe  Fe138     1.0  0.91273  0.50906  0.70539  1.0000
  H   H1085     1.0  0.89644  0.44855  0.80725  1.0000
  H   H1086     1.0  0.90939  0.44718  0.84820  1.0000
  H   H1087     1.0  0.87556  0.46321  0.81718  1.0000
  H   H1088     1.0  0.96536  0.45639  0.70776  1.0000
  H   H1089     1.0  0.89940  0.58109  0.64221  1.0000
  H   H1090     1.0  0.90629  0.46282  0.55937  1.0000
  H   H1091     1.0  0.87200  0.58670  0.65042  1.0000
  S   S274      1.0  0.92611  0.51564  0.63728  1.0000
  H   H1092     1.0  0.85356  0.37356  0.50852  1.0000
  H   H1093     1.0  0.91960  0.38274  0.73890  1.0000
  H   H1094     1.0  0.94147  0.45337  0.61376  1.0000
  H   H1095     1.0  0.93660  0.42252  0.62725  1.0000
  H   H1096     1.0  0.85227  0.53948  0.65439  1.0000
  H   H1097     1.0  0.99514  0.57358  0.75627  1.0000
  H   H1098     1.0  0.97530  0.57244  0.82053  1.0000
  C   C677      1.0  0.91103  0.38993  0.74276  1.0000
  N   N68       1.0  0.94904  0.44111  0.66730  1.0000
  H   H1099     1.0  0.84483  0.41555  0.53852  1.0000
  C   C678      1.0  0.96362  0.44463  0.69184  1.0000
  C   C679      1.0  0.91373  0.50506  0.53158  1.0000
  Fe  Fe139     1.0  0.89104  0.40464  0.51024  1.0000
  H   H1100     1.0  0.88656  0.53715  0.48869  1.0000
  H   H1101     1.0  0.95895  0.42652  0.62507  1.0000
  H   H1102     1.0  0.86797  0.44401  0.90975  1.0000
  C   C680      1.0  0.96484  0.44134  0.52778  1.0000
  H   H1103     1.0  0.89148  0.48196  0.82873  1.0000
  C   C681      1.0  0.96285  0.45692  0.51450  1.0000
  S   S275      1.0  0.90267  0.48173  0.73562  1.0000
  C   C682      1.0  0.00444  0.56760  0.62825  1.0000
  H   H1104     1.0  0.91237  0.39095  0.81113  1.0000
  Fe  Fe140     1.0  0.91744  0.54554  0.71760  1.0000
  H   H1105     1.0  0.92200  0.43575  0.67999  1.0000
  H   H1106     1.0  0.87243  0.47189  0.86674  1.0000
  H   H1107     1.0  0.88341  0.43367  0.90161  1.0000
  S   S276      1.0  0.89032  0.41041  0.83850  1.0000
  C   C683      1.0  0.94721  0.42538  0.64694  1.0000
  H   H1108     1.0  0.96390  0.45784  0.61063  1.0000
  H   H1109     1.0  0.99206  0.58142  0.70403  1.0000
  S   S277      1.0  0.90682  0.38612  0.93981  1.0000
  H   H1110     1.0  0.87064  0.43497  0.86034  1.0000
  C   C684      1.0  0.87750  0.44213  0.88510  1.0000
  C   C685      1.0  0.89938  0.46743  0.89931  1.0000
  C   C686      1.0  0.93335  0.43877  0.69705  1.0000
  H   H1111     1.0  0.90920  0.47995  0.88567  1.0000
  N   N69       1.0  0.89045  0.45858  0.86534  1.0000
  C   C687      1.0  0.96059  0.44523  0.97162  1.0000
  H   H1112     1.0  0.97583  0.48369  0.49209  1.0000
  H   H1113     1.0  0.95109  0.58752  0.74299  1.0000
  H   H1114     1.0  0.97569  0.44652  0.67038  1.0000
  C   C688      1.0  0.88207  0.46938  0.84370  1.0000
  C   C689      1.0  0.85602  0.49912  0.56919  1.0000
  C   C690      1.0  0.95208  0.45566  0.63342  1.0000
  H   H1115     1.0  0.95377  0.42997  0.53742  1.0000
  H   H1116     1.0  0.93414  0.45047  0.71250  1.0000
  H   H1117     1.0  0.96178  0.43385  0.71751  1.0000
  H   H1118     1.0  0.88051  0.55093  0.71150  1.0000
  S   S278      1.0  0.94253  0.45861  0.51382  1.0000
  N   N70       1.0  0.90802  0.48683  0.52509  1.0000
  H   H1119     1.0  0.87375  0.50780  0.61437  1.0000
  C   C691      1.0  0.87399  0.55989  0.70070  1.0000
  N   N71       1.0  0.87447  0.56181  0.65325  1.0000
  C   C692      1.0  0.87093  0.51002  0.58202  1.0000
  C   C693      1.0  0.86582  0.54500  0.63935  1.0000
  S   S279      1.0  0.89572  0.43277  0.50711  1.0000
  C   C694      1.0  0.98889  0.46238  0.98495  1.0000
  C   C695      1.0  0.91938  0.56720  0.80901  1.0000
  H   H1120     1.0  0.89038  0.46985  0.92447  1.0000
  S   S280      1.0  0.00423  0.48278  0.98462  1.0000
  H   H1121     1.0  0.96575  0.58865  0.69575  1.0000
  H   H1122     1.0  0.95783  0.55917  0.79692  1.0000
  S   S281      1.0  0.93113  0.55542  0.65029  1.0000
  H   H1123     1.0  0.98941  0.60761  0.72830  1.0000
  C   C696      1.0  0.87811  0.52646  0.51122  1.0000
  Fe  Fe141     1.0  0.94495  0.53714  0.66314  1.0000
  S   S282      1.0  0.97318  0.54267  0.64743  1.0000
  S   S283      1.0  0.93284  0.52895  0.73230  1.0000
  H   H1124     1.0  0.92805  0.54586  0.89685  1.0000
  S   S284      1.0  0.93822  0.57728  0.93953  1.0000
  S   S285      1.0  0.91275  0.56508  0.75752  1.0000
  Fe  Fe142     1.0  0.92196  0.40847  0.97089  1.0000
  C   C697      1.0  0.92653  0.55624  0.87650  1.0000
  C   C698      1.0  0.93007  0.57241  0.89071  1.0000
  C   C699      1.0  0.92826  0.58580  0.86389  1.0000
  C   C700      1.0  0.92271  0.58316  0.82376  1.0000
  S   S286      1.0  0.87442  0.39903  0.95834  1.0000
  Fe  Fe143     1.0  0.91102  0.53324  0.62996  1.0000
  H   H1125     1.0  0.93105  0.59833  0.87443  1.0000
  H   H1126     1.0  0.92117  0.59364  0.80385  1.0000
  S   S287      1.0  0.90042  0.53834  0.56856  1.0000
  C   C701      1.0  0.98683  0.56379  0.63006  1.0000
  C   C702      1.0  0.92137  0.55368  0.83534  1.0000
  H   H1127     1.0  0.98274  0.42834  0.53837  1.0000
  C   C703      1.0  0.91125  0.47671  0.56207  1.0000
  C   C704      1.0  0.99167  0.59377  0.60711  1.0000
  C   C705      1.0  0.98046  0.57691  0.61926  1.0000
  H   H1128     1.0  0.86071  0.43248  0.50321  1.0000
  C   C706      1.0  0.88961  0.48090  0.52200  1.0000
  C   C707      1.0  0.88195  0.52384  0.55318  1.0000
  H   H1129     1.0  0.96695  0.57408  0.62009  1.0000
  H   H1130     1.0  0.94335  0.35653  0.97301  1.0000
  H   H1131     1.0  0.85559  0.41081  0.49118  1.0000
  H   H1132     1.0  0.98672  0.60389  0.59873  1.0000
  H   H1133     1.0  0.95706  0.57866  0.81562  1.0000
  C   C708      1.0  0.96562  0.57267  0.79910  1.0000
  H   H1134     1.0  0.88211  0.48225  0.55192  1.0000
  C   C709      1.0  0.98124  0.44043  0.52827  1.0000
  N   N72       1.0  0.97359  0.58212  0.75596  1.0000
  H   H1135     1.0  0.86071  0.55488  0.71776  1.0000
  C   C710      1.0  0.96021  0.58166  0.72860  1.0000
  C   C711      1.0  0.99570  0.45507  0.51539  1.0000
  C   C712      1.0  0.98526  0.57410  0.73575  1.0000
  H   H1136     1.0  0.90589  0.45964  0.91618  1.0000
  H   H1137     1.0  0.90691  0.50694  0.56201  1.0000
  H   H1138     1.0  0.92511  0.48024  0.56407  1.0000
  C   C713      1.0  0.98324  0.60009  0.76035  1.0000
  C   C714      1.0  0.85211  0.50176  0.52729  1.0000
  H   H1139     1.0  0.97098  0.47278  0.95951  1.0000
  H   H1140     1.0  0.84739  0.48859  0.59188  1.0000
  H   H1141     1.0  0.99348  0.60092  0.78075  1.0000
  H   H1142     1.0  0.86613  0.54597  0.60362  1.0000
  H   H1143     1.0  0.97481  0.60652  0.77557  1.0000
  H   H1144     1.0  0.89328  0.56999  0.59644  1.0000
  C   C715      1.0  0.97328  0.46123  0.97092  1.0000
  H   H1145     1.0  0.94864  0.44452  0.96064  1.0000
  C   C716      1.0  0.86332  0.51540  0.49817  1.0000
  C   C717      1.0  0.86577  0.57387  0.64050  1.0000
  C   C718      1.0  0.99368  0.47066  0.50246  1.0000
  C   C719      1.0  0.97730  0.47157  0.50209  1.0000
  H   H1146     1.0  0.93443  0.37326  0.96613  1.0000
  H   H1147     1.0  0.86596  0.57561  0.60486  1.0000
  H   H1148     1.0  0.91120  0.51315  0.50488  1.0000
  H   H1149     1.0  0.88480  0.46714  0.51737  1.0000
  Fe  Fe144     1.0  0.89199  0.42074  0.98579  1.0000
  H   H1150     1.0  0.88662  0.48839  0.49482  1.0000
  S   S288      1.0  0.94811  0.40988  0.98564  1.0000
  H   H1151     1.0  0.00472  0.48205  0.49297  1.0000
  H   H1152     1.0  0.85222  0.56920  0.65568  1.0000
  C   C720      1.0  0.96353  0.43023  0.98579  1.0000
