data_image0
_chemical_formula_structural       FeHSFeSHFeH2FeSCS2HSHCH2C3HC2HC3H5CSHSH4FeH2N2H4C2H2C2H2C2SC2HNH5CH2CH2FeH3C2H2CH2CHSFe2S3FeCHCSFeSCSCSHC6H2CSCH2NC2H8SCFeCHCHFeHCNHSCFeSH4C2H3CH5FeSCHSCH2SH2NH2NCH2CSCHCH2CH6S2HC2SHFe2CSFeCFeCS2C4NC6H8CHFeSH2CSCSCHCH4CS2CS2HFeS2CSH2CHFeCH2CH6NHFeH2C2HC2H6NHFeCH4S2H4C2FeH2SHCHCHCH2S2FeHC2SCSHCH9CH2C2HC2H2CHCHSHCH3NH7C6HFeSFeSHFeSFeS3HSH2CFeSH3CH2C7H4CHNC2H2C2H4CHC3H2CSH4SFeHNH3CSHNCSHCFeH2SCFeHCH3CSCH3CH2CHC2HCH2C2H3NCHCH5CSCHCH2CH4C2HC3HFeSFeSCFeSFeS3FeS2FeS2FeSHC6H4CH4C2NH5CHCHC2HCFeCHC2HCH4C2HCH3NH5NH2SCSHC2H4CSHNCH4C2HC2H2SC2H4CH2C2H4NCH3CHNCHCHCSHC2HC3HCH6FeS2FeSFeSFeS2H2C2HCH3C3H2SHNH6C3H3C2S2HC2HC2HCHCH2FeSFeHSHFeH2SCH3SHNCH2CH2CNSH2C2SHC3H3C2H2CFeH3FeSH2SFeHFeSHCH2CHSC2NC3HCS2HCHCHCHCH2SH3CHC2H3C5H2CNH2NH2NH2SHSH3CH3CNSCFeSFeSFeSFeSFeS3H2FeHSC6H4CH3C3HSH2CFeHCHSHCHCH2CHCHCH3FeCHC2HCSHNHCHFeCHCHCHSH2CH3CHSH2SCH3NHCH3CHCH5C3H5CH4CHCFeSCFeS2FeSFeS3H3C7HCH2C5H5SCH2C2HNC4H12CH3CH3NH2CH5CH3FeH2FeS2HSFeS2FeS2FeNFeS3HSHFeC6H4C2HCHC2H2CHCSH4SH2C2HNC3H10CH3NHCNHS3C2HCH2CSFeHC2HCH7CH2CH2C3H6CNHC2HCSHSC2H2C3H2FeSFeSFeS2CNHCSCH2SC2HC2HCFeHC3H2CH4C6H2CHCH6CH4CH2SHSH2CH5CH2CH2NH2C2H3CH2NH2CHFeH2SCNH3C2H2C2FeSFeS2FeS3HSCH3C2SHC6H4CHNC4H11C3H2C2H3FeH2CSH2SH6C6HCHC2H5CNSCH2C2H6CHNHCHC2H2CH3C2H4CHCHCH4SC2SFeS2FeHFeHS2CHS2CHCFeHC4HCH2CS2FeH3NFeH2SHC2H5CHSH2CH3NC4H2CHCHCH4FeC2H4CHCHCH2SHCH5FeH7NSCFeSHCSHCSH2CH4CHCH2S2C3SH2C2NC7HCH3CFeHFeS3H2FeCHCNCHCH2CH4CHCH8NHCHCHSH2CHC3HCHCSHCH2FeNH2FeSHS2FeSFeCSHFeCSCHCNHCH2C3HSHCH2SCH2SH3CHC2SH3SNHC2HFeC3FeSH2CHC2H2FeHCH3C2HSHCSH2SH4CHSCHCSH2FeH3CFeH2SC2H2CH2SHC6H5CHCHSCFeHCHSH4FeHSCHCHCH3CFeS2FeSFeSFeS3HC5H3C6H3CHC3HCH2C2H2CHNC4H13C2HCNSCH2SCH2SH2CH8CH3NH6CNHC2FeSFeSFe2S3C9H7C2H3SH2CHSHCHCNHCH2CH2SH2C2H3C2SCH3CNCH3CHSHSH2NHCH3FeHFeS2FeS3NHFeSCFeS2FeSCS2H2C7H6C2H3FeH2FeHCN2C2HCH2SH2FeC2H8SCNCH2C3H6CH9CFeCHCHC4H7SC2NS2FeSH2CHS3H4C6H4C3HFeHC2SCH3CHCHCHSH2C4SHFeS2FeS2Fe2S3HCFeH2CHS2C6H7CH2SCH3CHFeC2NHC2H2CSH2CHNC4H14SH4C3FeHC2HNHSHC3HC2HC2HNC2H2CSH3NCHFeHCH3C2HCH2CH2S2FeC2SHSCHC4NH6CHSC3H2NSH7CHFeHCFe2SHCH2CHSCH2C2H2CH2CH5CH2SCHCH2CH4CFeSH2SHFeSFeCSHC2NHCNCH2C2H2CFeCHCS2H7NHC2H2CHC2H6CHCHCH5C2HCSCH5C3H3CH4CH2FeS2FeHFeS3HC2H2C2NH3SFeHCSH4C2H2CH2C2HCH2C2H2C2S2HC2HC3H7CHNH2C2HCH2CFeSFe2SHS2HCH3C2H6SH2CHCH3C3HC2H2CH2NC2FeS2H2FeS3FeSFeS3FeHCHNH3NCHCH2CH4CHFeHC6H4SH2CHCNCH4C4SH2CHCH4C2H2CHC2H3C2H2C2FeCH2CNHSH2C4H4CSH6C2H3FeHSFeS2C2HSCH2FeC2SHNC4H11FeSCFeS2FeSHFe2S4HSHNFeSC3SHC2H2C2FeHSFeHC5H5CH3SCH2SCSH3CNC4H9NC4H5CH2CH2CFeH4SHCHCSHC3HSH2CHCH3FeS3FeHFeS5HCSC7H5C4HCH3CH4C3HCH2FeH2SH2C2FeNCHCSH2NC4H12SFe2H4NC2HCHCHC4HSH2SCH2SH2CH7SFeSHFeSFeSFeS3NH3CHC3FeCH4CH2C3H2CH2C3SH2CHC2HCHNCH4CH2CHNH3SH3C2H2CHCHFeSNFeS2FeSFeS4FeSC6H5CH3SCHSH3C3H3CHCNCHC2HNFeH3C3H5SC3H2SHCFeH3CH2SC3H2CFeH3CH3SH6CHC2H2CHCSH10CHCSHC4HFeHFeS2FeSFeSCSH3C2H2NC2HCSH7CNH3C2HCHCH2SCHCHNHFeS2HSHFeSFeSHSCSCSH2CHCH3CH2C6H3NCHC2HFeCSH2CH3CNH2CH5C2FeH2SH5SFeS2FeS2Fe2S3CHCN2C2HC2H2CHCH3C6H6CSH2CH2CH2CHCH2CH8C3HCFeHFeSFeHFeHS2FeS2FeH2FeHSH4SH2CHC2HNHC6H7CH2SCH6SC4H2CH2NCHCNH2SHCHC2SH2SH2CHCH2CHNH2CHC3H2C2HCH3C2HCH2SHSH7FeS2FeS2Fe2CS2FeS2FeS2FeCHS2CH5C3HCH2SCHC6H5C2HCH6NH4CHC2H2C4H4C2HCHFeHC2HC2HNH2CH7CHCH4CSHCNHC2H4SHCH2CH2FeSHCSFeSFeS4FeS2H3CFeSH2C2HNH7C2HC3HSNH2CHSCH2C6H5FeHSHCHFeHCHC2H4C2NHCHC2HNCH3CSHC2HFeSH5SCH3C2HCH2CSFeS2Fe2CS2FeS2FeHFeSFe2H2CHC7H4CH2NSH3CH2C2HCH2SH2CNCHC2HCHSHC2HCHNH3C2H4CHCHCH5S2FeCS2FeS2FeHFeHSHS3HCHFeH2SH3FeC7H4C4NH3CHSH3C2H3SC2HCSHCHNHCH3CFeH2CH2CH6NH2CSH2FeSHFeS2Fe2S3H2FeS2FeS2Fe2S3CH2C10H6CH3SH3CHCHNCH2CSFeCH3CNC4H8CH3CH2CHC2HCSCHCH2C2SHCHNH4CHCH4CSC3HCH3C4SH3SCSFeSFeSC6H3C6SH2SH3NC4H12FeSHSNFeH2CHCH2CH2CH6SHC2H10CNCHCHCH2CSC3FeS2Fe2S2C3H3CH3C6H2SHCH2NH2CH2C4H4CSHNH5FeH2CSHSH3C3H4
_chemical_formula_sum              "Fe256 H2048 S512 C1280 N128"
_cell_length_a       88.1673
_cell_length_b       88.4929
_cell_length_c       38.6514
_cell_angle_alpha    77.6702
_cell_angle_beta     77.9372
_cell_angle_gamma    77.3561

_space_group_name_H-M_alt    "P 1"
_space_group_IT_number       1

loop_
  _space_group_symop_operation_xyz
  'x, y, z'

loop_
  _atom_site_type_symbol
  _atom_site_label
  _atom_site_symmetry_multiplicity
  _atom_site_fract_x
  _atom_site_fract_y
  _atom_site_fract_z
  _atom_site_occupancy
  Fe  Fe1       1.0  0.01056  0.11555  0.19418  1.0000
  H   H1        1.0  0.00977  0.04885  0.05258  1.0000
  S   S1        1.0  0.03314  0.10878  0.21785  1.0000
  Fe  Fe2       1.0  0.13591  0.11578  0.24077  1.0000
  S   S2        1.0  0.15565  0.12788  0.20918  1.0000
  H   H2        1.0  0.22123  0.99194  0.05971  1.0000
  Fe  Fe3       1.0  0.99590  0.12279  0.12695  1.0000
  H   H3        1.0  0.05583  0.12727  0.06657  1.0000
  H   H4        1.0  0.27421  0.10843  0.47172  1.0000
  Fe  Fe4       1.0  0.14210  0.13120  0.16384  1.0000
  S   S3        1.0  0.15323  0.12631  0.10824  1.0000
  C   C1        1.0  0.23286  0.14447  0.34266  1.0000
  S   S4        1.0  0.12351  0.11743  0.19461  1.0000
  S   S5        1.0  0.12076  0.13751  0.25918  1.0000
  H   H5        1.0  0.01275  0.13836  0.23023  1.0000
  S   S6        1.0  0.14018  0.09411  0.28220  1.0000
  H   H6        1.0  0.02792  0.13853  0.31366  1.0000
  C   C2        1.0  0.13966  0.13173  0.07825  1.0000
  H   H7        1.0  0.01083  0.08283  0.01336  1.0000
  H   H8        1.0  0.16889  0.05845  0.11345  1.0000
  C   C3        1.0  0.14404  0.12759  0.04402  1.0000
  C   C4        1.0  0.21962  0.07618  0.25168  1.0000
  C   C5        1.0  0.05584  0.11414  0.00966  1.0000
  H   H9        1.0  0.31995  0.15266  0.21677  1.0000
  C   C6        1.0  0.04796  0.12040  0.21025  1.0000
  C   C7        1.0  0.04564  0.13620  0.19342  1.0000
  H   H10       1.0  0.32017  0.15172  0.29676  1.0000
  C   C8        1.0  0.07098  0.13896  0.20561  1.0000
  C   C9        1.0  0.07351  0.12306  0.22140  1.0000
  C   C10       1.0  0.06197  0.11390  0.22405  1.0000
  H   H11       1.0  0.12925  0.08323  0.10778  1.0000
  H   H12       1.0  0.08418  0.11789  0.23241  1.0000
  H   H13       1.0  0.06387  0.10171  0.23721  1.0000
  H   H14       1.0  0.24337  0.14202  0.32166  1.0000
  H   H15       1.0  0.24692  0.13592  0.40103  1.0000
  C   C11       1.0  0.12445  0.13995  0.08833  1.0000
  S   S7        1.0  0.00416  0.13798  0.15629  1.0000
  H   H16       1.0  0.20974  0.98819  0.00946  1.0000
  S   S8        1.0  0.30651  0.07890  0.31530  1.0000
  H   H17       1.0  0.03312  0.13208  0.27123  1.0000
  H   H18       1.0  0.20322  0.00471  0.07467  1.0000
  H   H19       1.0  0.14449  0.06300  0.32092  1.0000
  H   H20       1.0  0.16668  0.14528  0.27662  1.0000
  Fe  Fe5       1.0  0.13969  0.14997  0.22424  1.0000
  H   H21       1.0  0.16161  0.05843  0.05461  1.0000
  H   H22       1.0  0.00206  0.05355  0.09668  1.0000
  N   N1        1.0  0.20589  0.07086  0.24498  1.0000
  N   N2        1.0  0.15377  0.07730  0.08491  1.0000
  H   H23       1.0  0.16030  0.07466  0.13675  1.0000
  H   H24       1.0  0.18502  0.14468  0.31793  1.0000
  H   H25       1.0  0.04176  0.14473  0.05482  1.0000
  H   H26       1.0  0.30419  0.03576  0.26053  1.0000
  C   C12       1.0  0.11378  0.14430  0.06403  1.0000
  C   C13       1.0  0.27456  0.14593  0.32444  1.0000
  H   H27       1.0  0.16899  0.09364  0.08223  1.0000
  H   H28       1.0  0.15582  0.12132  0.03605  1.0000
  C   C14       1.0  0.14947  0.07634  0.26769  1.0000
  C   C15       1.0  0.11807  0.13998  0.03001  1.0000
  H   H29       1.0  0.19998  0.04957  0.23748  1.0000
  H   H30       1.0  0.24018  0.11446  0.33408  1.0000
  C   C16       1.0  0.00027  0.07748  0.01560  1.0000
  C   C17       1.0  0.15020  0.06257  0.29339  1.0000
  S   S9        1.0  0.00360  0.12363  0.06729  1.0000
  C   C18       1.0  0.21707  0.13424  0.39814  1.0000
  C   C19       1.0  0.15803  0.06742  0.11873  1.0000
  H   H31       1.0  0.22239  0.14817  0.32895  1.0000
  N   N3        1.0  0.32008  0.05008  0.22567  1.0000
  H   H32       1.0  0.32442  0.06964  0.24440  1.0000
  H   H33       1.0  0.19188  0.00107  0.02414  1.0000
  H   H34       1.0  0.24479  0.11561  0.41035  1.0000
  H   H35       1.0  0.21656  0.08861  0.25587  1.0000
  H   H36       1.0  0.31632  0.08684  0.40892  1.0000
  C   C20       1.0  0.00633  0.05863  0.06825  1.0000
  H   H37       1.0  0.14119  0.06076  0.07517  1.0000
  H   H38       1.0  0.00032  0.08966  0.07301  1.0000
  C   C21       1.0  0.15838  0.04823  0.28389  1.0000
  H   H39       1.0  0.15626  0.08635  0.21204  1.0000
  H   H40       1.0  0.30406  0.15010  0.27718  1.0000
  Fe  Fe6       1.0  0.11013  0.14043  0.20955  1.0000
  H   H41       1.0  0.03607  0.12583  0.06431  1.0000
  H   H42       1.0  0.06594  0.10846  0.02387  1.0000
  H   H43       1.0  0.00612  0.12326  0.32767  1.0000
  C   C22       1.0  0.15684  0.07570  0.23199  1.0000
  C   C23       1.0  0.28625  0.10214  0.46968  1.0000
  H   H44       1.0  0.22947  0.07551  0.22853  1.0000
  H   H45       1.0  0.07445  0.13432  0.01076  1.0000
  C   C24       1.0  0.15089  0.06729  0.06168  1.0000
  H   H46       1.0  0.16429  0.09266  0.03980  1.0000
  H   H47       1.0  0.15894  0.03767  0.30413  1.0000
  C   C25       1.0  0.13935  0.08901  0.09321  1.0000
  H   H48       1.0  0.21105  0.98796  0.10488  1.0000
  S   S10       1.0  0.20306  0.04877  0.15109  1.0000
  Fe  Fe7       1.0  0.28693  0.08505  0.28252  1.0000
  Fe  Fe8       1.0  0.19656  0.02810  0.19161  1.0000
  S   S11       1.0  0.17728  0.02936  0.23948  1.0000
  S   S12       1.0  0.27404  0.10438  0.31237  1.0000
  S   S13       1.0  0.27466  0.06514  0.28061  1.0000
  Fe  Fe9       1.0  0.28808  0.12003  0.27119  1.0000
  C   C26       1.0  0.00408  0.12732  0.29945  1.0000
  H   H49       1.0  0.01097  0.11810  0.28371  1.0000
  C   C27       1.0  0.13316  0.13141  0.02025  1.0000
  S   S14       1.0  0.19624  0.01364  0.15087  1.0000
  Fe  Fe10      1.0  0.22159  0.00429  0.15578  1.0000
  S   S15       1.0  0.29925  0.10130  0.23772  1.0000
  C   C28       1.0  0.24540  0.12616  0.38879  1.0000
  S   S16       1.0  0.08453  0.15122  0.20492  1.0000
  C   C29       1.0  0.05700  0.14548  0.19162  1.0000
  S   S17       1.0  0.00392  0.10006  0.16255  1.0000
  H   H50       1.0  0.27987  0.13369  0.32765  1.0000
  C   C30       1.0  0.25310  0.05682  0.18919  1.0000
  C   C31       1.0  0.26010  0.07012  0.18460  1.0000
  C   C32       1.0  0.26655  0.07299  0.21246  1.0000
  C   C33       1.0  0.26627  0.06244  0.24505  1.0000
  C   C34       1.0  0.25939  0.04908  0.24955  1.0000
  C   C35       1.0  0.25280  0.04628  0.22181  1.0000
  H   H51       1.0  0.25918  0.04081  0.27464  1.0000
  H   H52       1.0  0.24760  0.03592  0.22559  1.0000
  C   C36       1.0  0.19270  0.07296  0.27525  1.0000
  S   S18       1.0  0.23068  0.02323  0.11233  1.0000
  C   C37       1.0  0.16687  0.08553  0.06601  1.0000
  H   H53       1.0  0.18238  0.06851  0.27172  1.0000
  H   H54       1.0  0.14845  0.06100  0.13384  1.0000
  N   N4        1.0  0.23130  0.13054  0.37121  1.0000
  C   C38       1.0  0.30737  0.05981  0.20669  1.0000
  C   C39       1.0  0.20931  0.99222  0.07658  1.0000
  H   H55       1.0  0.01718  0.06322  0.06777  1.0000
  H   H56       1.0  0.30695  0.05170  0.27870  1.0000
  H   H57       1.0  0.14115  0.09687  0.11043  1.0000
  H   H58       1.0  0.13575  0.09665  0.06830  1.0000
  H   H59       1.0  0.21777  0.14419  0.41069  1.0000
  H   H60       1.0  0.19609  0.06639  0.30126  1.0000
  H   H61       1.0  0.32227  0.03476  0.27651  1.0000
  H   H62       1.0  0.21977  0.05209  0.21847  1.0000
  S   S19       1.0  0.19373  0.04232  0.06086  1.0000
  C   C40       1.0  0.16528  0.06124  0.22252  1.0000
  Fe  Fe11      1.0  0.20515  0.03336  0.11048  1.0000
  C   C41       1.0  0.20328  0.03357  0.02331  1.0000
  H   H63       1.0  0.17806  0.07701  0.06041  1.0000
  C   C42       1.0  0.30996  0.08998  0.43426  1.0000
  H   H64       1.0  0.19768  0.09299  0.21262  1.0000
  Fe  Fe12      1.0  0.22809  0.03719  0.15640  1.0000
  H   H65       1.0  0.21549  0.12397  0.42003  1.0000
  C   C43       1.0  0.21888  0.02560  0.02152  1.0000
  N   N5        1.0  0.00876  0.14276  0.28417  1.0000
  H   H66       1.0  0.17113  0.06068  0.19521  1.0000
  S   S20       1.0  0.24446  0.05426  0.15390  1.0000
  C   C44       1.0  0.21019  0.05405  0.24170  1.0000
  Fe  Fe13      1.0  0.31805  0.09648  0.27205  1.0000
  S   S21       1.0  0.22139  0.01735  0.20016  1.0000
  H   H67       1.0  0.18858  0.08557  0.27766  1.0000
  H   H68       1.0  0.21081  0.07879  0.18784  1.0000
  H   H69       1.0  0.04605  0.10748  0.02118  1.0000
  H   H70       1.0  0.22421  0.06879  0.27578  1.0000
  C   C45       1.0  0.16616  0.04754  0.24871  1.0000
  C   C46       1.0  0.22983  0.11730  0.35518  1.0000
  H   H71       1.0  0.26033  0.07836  0.15946  1.0000
  H   H72       1.0  0.19080  0.07652  0.20526  1.0000
  H   H73       1.0  0.25635  0.12327  0.36928  1.0000
  C   C47       1.0  0.29439  0.09816  0.43657  1.0000
  H   H74       1.0  0.21428  0.04657  0.26624  1.0000
  H   H75       1.0  0.02723  0.13171  0.00471  1.0000
  H   H76       1.0  0.22543  0.02548  0.04223  1.0000
  H   H77       1.0  0.12089  0.14305  0.11477  1.0000
  H   H78       1.0  0.27174  0.08336  0.20868  1.0000
  Fe  Fe14      1.0  0.29440  0.09964  0.34207  1.0000
  S   S22       1.0  0.28443  0.10359  0.39924  1.0000
  C   C48       1.0  0.04592  0.13225  0.05133  1.0000
  H   H79       1.0  0.29886  0.05267  0.20399  1.0000
  S   S23       1.0  0.30789  0.11642  0.30185  1.0000
  C   C49       1.0  0.20109  0.08023  0.21121  1.0000
  H   H80       1.0  0.21911  0.12015  0.34234  1.0000
  H   H81       1.0  0.20621  0.13774  0.38572  1.0000
  S   S24       1.0  0.27633  0.14485  0.25345  1.0000
  H   H82       1.0  0.10211  0.15086  0.07184  1.0000
  H   H83       1.0  0.22906  0.10645  0.37577  1.0000
  N   N6        1.0  0.05080  0.13092  0.01294  1.0000
  H   H84       1.0  0.14757  0.07438  0.03594  1.0000
  H   H85       1.0  0.30049  0.06927  0.22154  1.0000
  N   N7        1.0  0.99413  0.07118  0.05335  1.0000
  C   C50       1.0  0.00624  0.14747  0.24643  1.0000
  H   H86       1.0  0.17781  0.99572  0.08694  1.0000
  H   H87       1.0  0.32113  0.02990  0.20213  1.0000
  C   C51       1.0  0.19812  0.98860  0.02775  1.0000
  S   S25       1.0  0.10458  0.14593  0.99978  1.0000
  C   C52       1.0  0.31723  0.08567  0.46504  1.0000
  H   H88       1.0  0.27344  0.14678  0.38015  1.0000
  C   C53       1.0  0.31312  0.04269  0.26187  1.0000
  H   H89       1.0  0.03504  0.14136  0.18225  1.0000
  H   H90       1.0  0.31214  0.06560  0.17929  1.0000
  C   C54       1.0  0.02565  0.14151  0.28553  1.0000
  H   H91       1.0  0.00061  0.15152  0.33393  1.0000
  H   H92       1.0  0.06076  0.15202  0.99917  1.0000
  H   H93       1.0  0.00372  0.06816  0.99861  1.0000
  H   H94       1.0  0.99356  0.14922  0.24434  1.0000
  H   H95       1.0  0.02993  0.15266  0.27261  1.0000
  H   H96       1.0  0.00492  0.11654  0.99788  1.0000
  S   S26       1.0  0.28243  0.10810  0.67422  1.0000
  S   S27       1.0  0.13520  0.07762  0.95576  1.0000
  H   H97       1.0  0.00432  0.12346  0.76372  1.0000
  C   C55       1.0  0.13816  0.05042  0.88160  1.0000
  C   C56       1.0  0.00879  0.13132  0.82351  1.0000
  S   S28       1.0  0.01666  0.07953  0.91835  1.0000
  H   H98       1.0  0.16952  0.14744  0.78936  1.0000
  Fe  Fe15      1.0  0.12048  0.10028  0.93262  1.0000
  Fe  Fe16      1.0  0.09038  0.12103  0.90983  1.0000
  C   C57       1.0  0.23798  0.15281  0.64318  1.0000
  S   S29       1.0  0.06444  0.12612  0.90360  1.0000
  Fe  Fe17      1.0  0.12283  0.13010  0.87666  1.0000
  C   C58       1.0  0.13309  0.06241  0.90232  1.0000
  Fe  Fe18      1.0  0.10874  0.13213  0.95504  1.0000
  C   C59       1.0  0.23840  0.13231  0.70919  1.0000
  S   S30       1.0  0.11258  0.10856  0.87879  1.0000
  S   S31       1.0  0.09758  0.11095  0.96374  1.0000
  C   C60       1.0  0.15211  0.03953  0.88587  1.0000
  C   C61       1.0  0.15550  0.05215  0.93293  1.0000
  C   C62       1.0  0.14169  0.06321  0.92824  1.0000
  C   C63       1.0  0.20224  0.02586  0.96703  1.0000
  N   N8        1.0  0.01859  0.11861  0.80499  1.0000
  C   C64       1.0  0.05143  0.11273  0.90954  1.0000
  C   C65       1.0  0.05670  0.09647  0.91304  1.0000
  C   C66       1.0  0.04590  0.08640  0.91618  1.0000
  C   C67       1.0  0.02977  0.09247  0.91608  1.0000
  C   C68       1.0  0.02447  0.10869  0.91366  1.0000
  C   C69       1.0  0.03526  0.11876  0.91012  1.0000
  H   H99       1.0  0.06911  0.09166  0.91266  1.0000
  H   H100      1.0  0.05012  0.07385  0.91823  1.0000
  H   H101      1.0  0.01207  0.11351  0.91459  1.0000
  H   H102      1.0  0.03104  0.13132  0.90776  1.0000
  H   H103      1.0  0.25186  0.06557  0.83783  1.0000
  H   H104      1.0  0.12234  0.07079  0.89887  1.0000
  H   H105      1.0  0.17526  0.07198  0.72256  1.0000
  H   H106      1.0  0.19153  0.07985  0.77741  1.0000
  C   C70       1.0  0.01687  0.12229  0.76670  1.0000
  H   H107      1.0  0.26678  0.15002  0.67252  1.0000
  Fe  Fe19      1.0  0.28935  0.08273  0.66700  1.0000
  S   S32       1.0  0.10017  0.14324  0.90319  1.0000
  H   H108      1.0  0.19982  0.06561  0.74840  1.0000
  H   H109      1.0  0.16686  0.08619  0.75159  1.0000
  C   C71       1.0  0.01332  0.10357  0.82172  1.0000
  S   S33       1.0  0.14085  0.13828  0.82884  1.0000
  C   C72       1.0  0.03531  0.11723  0.80806  1.0000
  S   S34       1.0  0.13213  0.12082  0.92823  1.0000
  C   C73       1.0  0.16083  0.04046  0.91143  1.0000
  H   H110      1.0  0.13134  0.04968  0.86197  1.0000
  C   C74       1.0  0.19505  0.03396  0.99561  1.0000
  H   H111      1.0  0.28187  0.13077  0.73528  1.0000
  H   H112      1.0  0.28709  0.14083  0.66990  1.0000
  H   H113      1.0  0.01231  0.14289  0.81133  1.0000
  H   H114      1.0  0.03965  0.12844  0.79632  1.0000
  C   C75       1.0  0.17854  0.04670  0.77491  1.0000
  S   S35       1.0  0.15878  0.02538  0.85773  1.0000
  S   S36       1.0  0.31831  0.08389  0.53655  1.0000
  C   C76       1.0  0.16849  0.07353  0.74972  1.0000
  S   S37       1.0  0.22837  0.99573  0.84092  1.0000
  S   S38       1.0  0.19614  0.00341  0.80716  1.0000
  H   H115      1.0  0.22912  0.05950  0.88612  1.0000
  Fe  Fe20      1.0  0.18399  0.01303  0.85712  1.0000
  S   S39       1.0  0.20224  0.02722  0.85598  1.0000
  S   S40       1.0  0.25398  0.12989  0.60484  1.0000
  C   C77       1.0  0.25625  0.03884  0.88693  1.0000
  S   S41       1.0  0.27997  0.08643  0.61526  1.0000
  H   H116      1.0  0.24486  0.05715  0.80708  1.0000
  H   H117      1.0  0.28704  0.10087  0.52575  1.0000
  C   C78       1.0  0.19243  0.06738  0.77488  1.0000
  H   H118      1.0  0.18574  0.04430  0.74867  1.0000
  Fe  Fe21      1.0  0.21521  0.01656  0.80797  1.0000
  C   C79       1.0  0.24414  0.13678  0.64414  1.0000
  H   H119      1.0  0.30323  0.14581  0.71058  1.0000
  H   H120      1.0  0.13650  0.12790  0.99428  1.0000
  C   C80       1.0  0.24399  0.12650  0.67707  1.0000
  H   H121      1.0  0.04307  0.10784  0.79408  1.0000
  H   H122      1.0  0.02396  0.11287  0.75190  1.0000
  H   H123      1.0  0.24840  0.11404  0.67778  1.0000
  H   H124      1.0  0.25193  0.02998  0.91005  1.0000
  H   H125      1.0  0.00085  0.10411  0.81927  1.0000
  H   H126      1.0  0.16256  0.13903  0.89915  1.0000
  N   N9        1.0  0.17671  0.06335  0.77834  1.0000
  H   H127      1.0  0.19900  0.05978  0.79588  1.0000
  Fe  Fe22      1.0  0.30408  0.09114  0.58835  1.0000
  H   H128      1.0  0.23815  0.03011  0.82630  1.0000
  H   H129      1.0  0.22191  0.05196  0.85426  1.0000
  C   C81       1.0  0.23996  0.04209  0.74574  1.0000
  C   C82       1.0  0.16737  0.06578  0.81385  1.0000
  H   H130      1.0  0.03700  0.11417  0.83667  1.0000
  C   C83       1.0  0.25414  0.06316  0.71298  1.0000
  C   C84       1.0  0.24013  0.05694  0.72377  1.0000
  H   H131      1.0  0.25410  0.07465  0.69624  1.0000
  H   H132      1.0  0.22940  0.06373  0.71501  1.0000
  H   H133      1.0  0.19573  0.02585  0.94622  1.0000
  H   H134      1.0  0.26864  0.03388  0.87611  1.0000
  H   H135      1.0  0.27882  0.03280  0.75401  1.0000
  H   H136      1.0  0.24306  0.01851  0.86769  1.0000
  N   N10       1.0  0.24616  0.04253  0.85902  1.0000
  H   H137      1.0  0.16574  0.07819  0.81766  1.0000
  Fe  Fe23      1.0  0.21381  0.00551  0.88895  1.0000
  C   C85       1.0  0.25208  0.05437  0.82889  1.0000
  H   H138      1.0  0.16691  0.04315  0.77765  1.0000
  H   H139      1.0  0.06802  0.13863  0.96800  1.0000
  H   H140      1.0  0.17314  0.05811  0.83610  1.0000
  H   H141      1.0  0.18459  0.03872  0.79623  1.0000
  S   S42       1.0  0.31978  0.12997  0.64621  1.0000
  S   S43       1.0  0.22686  0.00616  0.93274  1.0000
  H   H142      1.0  0.17154  0.03204  0.91500  1.0000
  H   H143      1.0  0.22484  0.03994  0.89690  1.0000
  H   H144      1.0  0.16214  0.05270  0.95307  1.0000
  H   H145      1.0  0.26445  0.05007  0.81644  1.0000
  C   C86       1.0  0.22979  0.04878  0.87475  1.0000
  C   C87       1.0  0.27381  0.14214  0.73882  1.0000
  Fe  Fe24      1.0  0.27480  0.11190  0.62051  1.0000
  H   H146      1.0  0.15544  0.06284  0.81724  1.0000
  H   H147      1.0  0.00987  0.12902  0.85242  1.0000
  S   S44       1.0  0.22188  0.03508  0.75954  1.0000
  H   H148      1.0  0.25637  0.04950  0.89770  1.0000
  C   C88       1.0  0.25403  0.03330  0.75604  1.0000
  H   H149      1.0  0.23869  0.12437  0.73467  1.0000
  C   C89       1.0  0.26811  0.05458  0.72421  1.0000
  H   H150      1.0  0.25423  0.02154  0.77138  1.0000
  C   C90       1.0  0.21769  0.01746  0.96613  1.0000
  H   H151      1.0  0.25849  0.02346  0.83168  1.0000
  H   H152      1.0  0.15659  0.07075  0.75158  1.0000
  S   S45       1.0  0.28572  0.06239  0.71336  1.0000
  S   S46       1.0  0.31420  0.08537  0.63958  1.0000
  Fe  Fe25      1.0  0.30643  0.11107  0.64290  1.0000
  H   H153      1.0  0.27372  0.14431  0.76618  1.0000
  C   C91       1.0  0.24649  0.02804  0.84553  1.0000
  C   C92       1.0  0.26798  0.03962  0.74577  1.0000
  S   S47       1.0  0.29803  0.11684  0.58980  1.0000
  C   C93       1.0  0.23295  0.14842  0.70836  1.0000
  S   S48       1.0  0.19427  0.99207  0.89508  1.0000
  H   H154      1.0  0.15770  0.13568  0.94731  1.0000
  C   C94       1.0  0.29351  0.09787  0.50035  1.0000
  H   H155      1.0  0.02063  0.09361  0.80896  1.0000
  H   H156      1.0  0.01413  0.10055  0.85079  1.0000
  H   H157      1.0  0.99606  0.13254  0.82206  1.0000
  H   H158      1.0  0.02076  0.13356  0.75310  1.0000
  H   H159      1.0  0.26171  0.14060  0.73805  1.0000
  H   H160      1.0  0.04076  0.13720  0.96456  1.0000
  H   H161      1.0  0.17540  0.14299  0.92534  1.0000
  H   H162      1.0  0.24657  0.14285  0.50306  1.0000
  H   H163      1.0  0.32352  0.11705  0.52155  1.0000
  C   C95       1.0  0.16281  0.14371  0.92361  1.0000
  H   H164      1.0  0.23804  0.01114  0.99240  1.0000
  H   H165      1.0  0.05966  0.11272  0.98101  1.0000
  C   C96       1.0  0.03739  0.13791  0.99368  1.0000
  C   C97       1.0  0.30899  0.08951  0.49822  1.0000
  H   H166      1.0  0.03313  0.15051  0.99591  1.0000
  C   C98       1.0  0.27861  0.15176  0.67495  1.0000
  C   C99       1.0  0.22605  0.01755  0.99310  1.0000
  H   H167      1.0  0.18298  0.04017  0.99674  1.0000
  H   H168      1.0  0.23120  0.15233  0.55849  1.0000
  C   C100      1.0  0.06407  0.13934  0.99703  1.0000
  H   H169      1.0  0.09930  0.18009  0.17427  1.0000
  C   C101      1.0  0.09171  0.18995  0.18705  1.0000
  H   H170      1.0  0.11989  0.19889  0.22350  1.0000
  S   S49       1.0  0.14539  0.17130  0.24053  1.0000
  H   H171      1.0  0.07993  0.18652  0.19715  1.0000
  C   C102      1.0  0.11430  0.19688  0.20195  1.0000
  H   H172      1.0  0.29268  0.18550  0.25534  1.0000
  H   H173      1.0  0.09291  0.20831  0.25500  1.0000
  H   H174      1.0  0.11376  0.20763  0.18087  1.0000
  N   N11       1.0  0.09851  0.19283  0.21642  1.0000
  H   H175      1.0  0.10543  0.17998  0.26643  1.0000
  H   H176      1.0  0.10751  0.16843  0.23259  1.0000
  H   H177      1.0  0.08678  0.21698  0.21245  1.0000
  H   H178      1.0  0.22701  0.18457  0.47996  1.0000
  H   H179      1.0  0.09036  0.20050  0.16558  1.0000
  H   H180      1.0  0.08830  0.17497  0.25579  1.0000
  H   H181      1.0  0.07611  0.20320  0.24379  1.0000
  C   C103      1.0  0.08810  0.20594  0.23262  1.0000
  C   C104      1.0  0.09994  0.17850  0.24419  1.0000
  C   C105      1.0  0.25184  0.31296  0.28990  1.0000
  C   C106      1.0  0.15852  0.17029  0.27067  1.0000
  C   C107      1.0  0.31428  0.22263  0.20122  1.0000
  C   C108      1.0  0.15993  0.18419  0.28104  1.0000
  H   H182      1.0  0.15285  0.19524  0.27095  1.0000
  Fe  Fe26      1.0  0.20069  0.18681  0.37031  1.0000
  S   S50       1.0  0.22080  0.19841  0.33900  1.0000
  Fe  Fe27      1.0  0.20174  0.19914  0.43974  1.0000
  S   S51       1.0  0.22159  0.21201  0.41283  1.0000
  H   H183      1.0  0.23408  0.15471  0.35367  1.0000
  Fe  Fe28      1.0  0.20881  0.21913  0.36545  1.0000
  S   S52       1.0  0.20445  0.24341  0.33148  1.0000
  Fe  Fe29      1.0  0.23188  0.19045  0.38842  1.0000
  S   S53       1.0  0.25650  0.17739  0.39019  1.0000
  S   S54       1.0  0.18765  0.20805  0.39434  1.0000
  S   S55       1.0  0.21304  0.17707  0.41783  1.0000
  H   H184      1.0  0.32438  0.31570  0.30807  1.0000
  S   S56       1.0  0.29239  0.26883  0.17901  1.0000
  H   H185      1.0  0.30334  0.21935  0.19979  1.0000
  H   H186      1.0  0.25334  0.15673  0.46464  1.0000
  C   C109      1.0  0.27240  0.29449  0.02181  1.0000
  Fe  Fe30      1.0  0.27477  0.28728  0.20554  1.0000
  S   S57       1.0  0.24871  0.28870  0.22849  1.0000
  H   H187      1.0  0.24999  0.31141  0.31971  1.0000
  H   H188      1.0  0.31800  0.28464  0.00304  1.0000
  H   H189      1.0  0.21064  0.24064  0.24988  1.0000
  C   C110      1.0  0.31403  0.23497  0.21884  1.0000
  H   H190      1.0  0.31192  0.31181  0.25946  1.0000
  H   H191      1.0  0.18104  0.22553  0.21743  1.0000
  C   C111      1.0  0.27111  0.15421  0.29104  1.0000
  C   C112      1.0  0.21800  0.25502  0.30398  1.0000
  C   C113      1.0  0.21162  0.27008  0.28763  1.0000
  C   C114      1.0  0.22132  0.27996  0.26481  1.0000
  C   C115      1.0  0.23767  0.27500  0.25755  1.0000
  C   C116      1.0  0.24429  0.25983  0.27360  1.0000
  C   C117      1.0  0.23443  0.24980  0.29687  1.0000
  H   H192      1.0  0.19900  0.27423  0.29277  1.0000
  H   H193      1.0  0.21606  0.29158  0.25262  1.0000
  H   H194      1.0  0.25693  0.25587  0.26824  1.0000
  H   H195      1.0  0.23952  0.23816  0.30928  1.0000
  C   C118      1.0  0.26303  0.16898  0.35146  1.0000
  H   H196      1.0  0.30240  0.25702  0.06347  1.0000
  N   N12       1.0  0.32284  0.23873  0.06648  1.0000
  C   C119      1.0  0.26372  0.17001  0.28782  1.0000
  C   C120      1.0  0.25962  0.17738  0.31810  1.0000
  H   H197      1.0  0.26109  0.17651  0.26204  1.0000
  H   H198      1.0  0.25399  0.18961  0.31555  1.0000
  C   C121      1.0  0.21314  0.22768  0.25060  1.0000
  C   C122      1.0  0.17805  0.15577  0.30770  1.0000
  H   H199      1.0  0.17095  0.19454  0.31318  1.0000
  H   H200      1.0  0.30290  0.24111  0.23128  1.0000
  H   H201      1.0  0.32001  0.21451  0.08165  1.0000
  H   H202      1.0  0.20706  0.19811  0.27633  1.0000
  C   C123      1.0  0.23820  0.18280  0.49053  1.0000
  H   H203      1.0  0.31543  0.18790  0.28047  1.0000
  C   C124      1.0  0.17024  0.18387  0.30481  1.0000
  C   C125      1.0  0.30116  0.17878  0.23590  1.0000
  C   C126      1.0  0.17944  0.16964  0.31812  1.0000
  H   H204      1.0  0.12249  0.18717  0.18975  1.0000
  H   H205      1.0  0.18894  0.24268  0.21700  1.0000
  C   C127      1.0  0.28091  0.29285  0.04988  1.0000
  S   S58       1.0  0.12803  0.15444  0.17533  1.0000
  H   H206      1.0  0.19154  0.21912  0.30821  1.0000
  H   H207      1.0  0.30457  0.18733  0.21133  1.0000
  H   H208      1.0  0.19192  0.19981  0.25062  1.0000
  H   H209      1.0  0.24766  0.18505  0.46699  1.0000
  S   S59       1.0  0.28052  0.30706  0.16006  1.0000
  Fe  Fe31      1.0  0.29803  0.30964  0.19234  1.0000
  H   H210      1.0  0.29472  0.17085  0.22812  1.0000
  N   N13       1.0  0.19867  0.22175  0.25085  1.0000
  H   H211      1.0  0.22234  0.22519  0.22700  1.0000
  H   H212      1.0  0.30599  0.24464  0.03040  1.0000
  H   H213      1.0  0.21164  0.20151  0.22815  1.0000
  C   C128      1.0  0.29739  0.28929  0.04328  1.0000
  S   S60       1.0  0.19292  0.16842  0.34758  1.0000
  H   H214      1.0  0.26075  0.30276  0.28177  1.0000
  N   N14       1.0  0.31512  0.16978  0.25147  1.0000
  C   C129      1.0  0.18699  0.22513  0.28304  1.0000
  S   S61       1.0  0.29103  0.29122  0.23905  1.0000
  H   H215      1.0  0.25965  0.29721  0.02713  1.0000
  C   C130      1.0  0.30525  0.28739  0.00844  1.0000
  Fe  Fe32      1.0  0.29950  0.28888  0.13631  1.0000
  H   H216      1.0  0.21834  0.22228  0.27521  1.0000
  H   H217      1.0  0.31476  0.23347  0.12340  1.0000
  S   S62       1.0  0.31755  0.29317  0.16490  1.0000
  C   C131      1.0  0.16764  0.15607  0.28424  1.0000
  Fe  Fe33      1.0  0.30911  0.27454  0.20910  1.0000
  H   H218      1.0  0.27473  0.29423  0.07664  1.0000
  C   C132      1.0  0.20251  0.20457  0.25145  1.0000
  H   H219      1.0  0.20051  0.22743  0.19338  1.0000
  H   H220      1.0  0.05500  0.15775  0.17918  1.0000
  H   H221      1.0  0.17578  0.22117  0.28379  1.0000
  C   C133      1.0  0.24369  0.15507  0.48810  1.0000
  S   S63       1.0  0.30872  0.28622  0.07782  1.0000
  C   C134      1.0  0.19199  0.22970  0.21820  1.0000
  H   H222      1.0  0.24066  0.31205  0.28201  1.0000
  H   H223      1.0  0.18417  0.23796  0.28405  1.0000
  H   H224      1.0  0.32004  0.25252  0.10783  1.0000
  C   C135      1.0  0.30664  0.24471  0.05883  1.0000
  H   H225      1.0  0.29816  0.23753  0.07650  1.0000
  H   H226      1.0  0.30150  0.16483  0.30436  1.0000
  C   C136      1.0  0.31002  0.15865  0.28396  1.0000
  H   H227      1.0  0.23269  0.15608  0.47730  1.0000
  C   C137      1.0  0.32338  0.18071  0.26120  1.0000
  C   C138      1.0  0.32323  0.24004  0.10377  1.0000
  H   H228      1.0  0.00240  0.16648  0.29439  1.0000
  C   C139      1.0  0.27080  0.15336  0.35441  1.0000
  H   H229      1.0  0.28141  0.31881  0.27505  1.0000
  H   H230      1.0  0.01036  0.15868  0.23342  1.0000
  C   C140      1.0  0.32590  0.16093  0.22484  1.0000
  C   C141      1.0  0.99913  0.15471  0.30522  1.0000
  H   H231      1.0  0.20892  0.21983  0.49718  1.0000
  H   H232      1.0  0.14376  0.20492  0.71659  1.0000
  H   H233      1.0  0.17174  0.23131  0.63063  1.0000
  N   N15       1.0  0.15584  0.22054  0.67456  1.0000
  C   C142      1.0  0.14153  0.18533  0.81395  1.0000
  H   H234      1.0  0.15284  0.19682  0.67654  1.0000
  C   C143      1.0  0.22881  0.16429  0.54193  1.0000
  H   H235      1.0  0.13083  0.22874  0.67878  1.0000
  H   H236      1.0  0.16916  0.21219  0.62669  1.0000
  H   H237      1.0  0.26667  0.16699  0.50315  1.0000
  H   H238      1.0  0.29498  0.16011  0.73929  1.0000
  H   H239      1.0  0.17372  0.17074  0.89297  1.0000
  C   C144      1.0  0.16995  0.21951  0.64615  1.0000
  S   S64       1.0  0.26850  0.31001  0.85054  1.0000
  C   C145      1.0  0.28027  0.29251  0.98701  1.0000
  H   H240      1.0  0.14850  0.15822  0.97970  1.0000
  C   C146      1.0  0.13643  0.17073  0.82495  1.0000
  H   H241      1.0  0.14007  0.22067  0.63892  1.0000
  H   H242      1.0  0.13365  0.19593  0.82054  1.0000
  C   C147      1.0  0.15415  0.20458  0.69449  1.0000
  H   H243      1.0  0.14261  0.23981  0.64274  1.0000
  H   H244      1.0  0.29198  0.31746  0.92913  1.0000
  H   H245      1.0  0.12464  0.17015  0.83964  1.0000
  H   H246      1.0  0.13064  0.17269  0.91559  1.0000
  C   C148      1.0  0.14169  0.22777  0.65802  1.0000
  C   C149      1.0  0.15677  0.18626  0.79446  1.0000
  H   H247      1.0  0.19074  0.18316  0.57627  1.0000
  C   C150      1.0  0.30529  0.23976  0.72085  1.0000
  C   C151      1.0  0.20674  0.21387  0.52478  1.0000
  C   C152      1.0  0.16165  0.15799  0.79640  1.0000
  H   H248      1.0  0.16460  0.19879  0.70738  1.0000
  Fe  Fe34      1.0  0.18853  0.20424  0.75343  1.0000
  S   S65       1.0  0.19957  0.22534  0.72450  1.0000
  Fe  Fe35      1.0  0.21865  0.18152  0.73732  1.0000
  S   S66       1.0  0.23234  0.20011  0.70652  1.0000
  C   C153      1.0  0.16146  0.17026  0.89075  1.0000
  Fe  Fe36      1.0  0.22068  0.21362  0.75130  1.0000
  S   S67       1.0  0.23676  0.22130  0.78131  1.0000
  Fe  Fe37      1.0  0.21053  0.21034  0.68175  1.0000
  S   S68       1.0  0.21239  0.22061  0.62199  1.0000
  S   S69       1.0  0.20847  0.19391  0.78376  1.0000
  S   S70       1.0  0.19798  0.19040  0.70881  1.0000
  Fe  Fe38      1.0  0.28031  0.29351  0.89416  1.0000
  S   S71       1.0  0.30394  0.29987  0.87067  1.0000
  S   S72       1.0  0.26910  0.29504  0.95236  1.0000
  Fe  Fe39      1.0  0.27454  0.28944  0.82106  1.0000
  S   S73       1.0  0.29785  0.29614  0.79201  1.0000
  S   S74       1.0  0.25738  0.28545  0.78821  1.0000
  Fe  Fe40      1.0  0.30731  0.28055  0.83955  1.0000
  S   S75       1.0  0.28451  0.27249  0.86672  1.0000
  H   H249      1.0  0.16823  0.22522  0.71219  1.0000
  C   C154      1.0  0.24158  0.23950  0.78397  1.0000
  C   C155      1.0  0.23593  0.25375  0.76292  1.0000
  C   C156      1.0  0.24056  0.26775  0.76528  1.0000
  C   C157      1.0  0.25093  0.26769  0.78857  1.0000
  C   C158      1.0  0.25647  0.25347  0.80985  1.0000
  C   C159      1.0  0.25184  0.23948  0.80748  1.0000
  H   H250      1.0  0.22804  0.25398  0.74474  1.0000
  H   H251      1.0  0.23619  0.27869  0.74872  1.0000
  H   H252      1.0  0.26438  0.25321  0.82802  1.0000
  H   H253      1.0  0.25625  0.22854  0.82398  1.0000
  C   C160      1.0  0.29464  0.15696  0.71312  1.0000
  H   H254      1.0  0.16218  0.16587  0.86546  1.0000
  H   H255      1.0  0.29899  0.16625  0.69134  1.0000
  H   H256      1.0  0.30561  0.23515  0.69607  1.0000
  H   H257      1.0  0.29018  0.25291  0.77859  1.0000
  C   C161      1.0  0.20101  0.19878  0.59669  1.0000
  C   C162      1.0  0.20795  0.21219  0.58831  1.0000
  N   N16       1.0  0.24183  0.16679  0.51149  1.0000
  H   H258      1.0  0.14734  0.23105  0.72202  1.0000
  H   H259      1.0  0.15472  0.18254  0.88744  1.0000
  H   H260      1.0  0.17861  0.17297  0.77115  1.0000
  H   H261      1.0  0.31344  0.26785  0.69106  1.0000
  H   H262      1.0  0.30786  0.22566  0.80673  1.0000
  C   C163      1.0  0.21091  0.21960  0.55219  1.0000
  H   H263      1.0  0.26660  0.17270  0.74316  1.0000
  C   C164      1.0  0.29675  0.28894  0.98046  1.0000
  H   H264      1.0  0.25554  0.17350  0.54369  1.0000
  C   C165      1.0  0.19926  0.20084  0.53334  1.0000
  C   C166      1.0  0.13747  0.16046  0.91888  1.0000
  H   H265      1.0  0.27079  0.26595  0.71933  1.0000
  C   C167      1.0  0.15416  0.16564  0.95546  1.0000
  Fe  Fe41      1.0  0.29267  0.31516  0.82531  1.0000
  C   C168      1.0  0.30123  0.26672  0.68989  1.0000
  H   H266      1.0  0.23675  0.19198  0.50728  1.0000
  C   C169      1.0  0.31827  0.24349  0.81836  1.0000
  C   C170      1.0  0.31847  0.23049  0.80292  1.0000
  H   H267      1.0  0.21742  0.16560  0.53242  1.0000
  C   C171      1.0  0.16682  0.17250  0.78589  1.0000
  H   H268      1.0  0.25533  0.16913  0.71322  1.0000
  H   H269      1.0  0.23822  0.16081  0.61776  1.0000
  H   H270      1.0  0.30107  0.23099  0.74417  1.0000
  H   H271      1.0  0.30149  0.26297  0.66404  1.0000
  C   C172      1.0  0.15757  0.23031  0.69960  1.0000
  C   C173      1.0  0.27886  0.25437  0.71859  1.0000
  H   H272      1.0  0.27395  0.24582  0.74147  1.0000
  C   C174      1.0  0.19644  0.19332  0.56941  1.0000
  H   H273      1.0  0.27837  0.25045  0.69344  1.0000
  H   H274      1.0  0.28760  0.27281  0.75521  1.0000
  H   H275      1.0  0.18084  0.21418  0.65772  1.0000
  N   N17       1.0  0.15397  0.16003  0.92218  1.0000
  H   H276      1.0  0.29375  0.27866  0.68937  1.0000
  H   H277      1.0  0.30749  0.24872  0.83386  1.0000
  H   H278      1.0  0.22829  0.17114  0.67462  1.0000
  H   H279      1.0  0.21629  0.22997  0.54541  1.0000
  H   H280      1.0  0.15880  0.24246  0.68568  1.0000
  N   N18       1.0  0.29510  0.25543  0.72094  1.0000
  H   H281      1.0  0.30709  0.26176  0.75737  1.0000
  H   H282      1.0  0.27088  0.18017  0.69578  1.0000
  S   S76       1.0  0.16300  0.20468  0.78098  1.0000
  C   C175      1.0  0.23243  0.15866  0.67538  1.0000
  S   S77       1.0  0.22837  0.15579  0.74847  1.0000
  H   H283      1.0  0.30295  0.28731  0.95386  1.0000
  C   C176      1.0  0.29501  0.26094  0.75448  1.0000
  C   C177      1.0  0.14653  0.15697  0.81624  1.0000
  H   H284      1.0  0.19889  0.19278  0.62424  1.0000
  H   H285      1.0  0.22706  0.17299  0.56004  1.0000
  H   H286      1.0  0.31765  0.24011  0.72260  1.0000
  H   H287      1.0  0.14762  0.17794  0.95509  1.0000
  C   C178      1.0  0.26742  0.16996  0.71594  1.0000
  S   S78       1.0  0.19294  0.19372  0.50014  1.0000
  H   H288      1.0  0.13688  0.15538  0.89535  1.0000
  N   N19       1.0  0.27862  0.15522  0.71071  1.0000
  C   C179      1.0  0.25663  0.16501  0.52541  1.0000
  H   H289      1.0  0.16643  0.16537  0.95907  1.0000
  H   H290      1.0  0.28198  0.16143  0.65302  1.0000
  H   H291      1.0  0.13122  0.15359  0.94312  1.0000
  H   H292      1.0  0.25980  0.15297  0.54101  1.0000
  C   C180      1.0  0.31465  0.35040  0.23137  1.0000
  C   C181      1.0  0.31472  0.32316  0.25898  1.0000
  H   H293      1.0  0.31165  0.36020  0.21036  1.0000
  C   C182      1.0  0.32219  0.35249  0.25833  1.0000
  C   C183      1.0  0.31082  0.33576  0.23168  1.0000
  H   H294      1.0  0.27077  0.32769  0.31272  1.0000
  H   H295      1.0  0.31580  0.41113  0.43622  1.0000
  S   S79       1.0  0.30020  0.33386  0.19916  1.0000
  C   C184      1.0  0.27195  0.32860  0.28316  1.0000
  C   C185      1.0  0.32216  0.41188  0.45768  1.0000
  H   H296      1.0  0.32490  0.36386  0.25814  1.0000
  H   H297      1.0  0.23324  0.34119  0.27624  1.0000
  H   H298      1.0  0.31471  0.42087  0.47330  1.0000
  H   H299      1.0  0.24821  0.35278  0.27134  1.0000
  C   C186      1.0  0.32184  0.32537  0.28643  1.0000
  H   H300      1.0  0.26842  0.31988  0.22377  1.0000
  H   H301      1.0  0.26305  0.34073  0.21898  1.0000
  C   C187      1.0  0.32560  0.34003  0.28630  1.0000
  C   C188      1.0  0.24471  0.34123  0.28399  1.0000
  H   H302      1.0  0.24270  0.34051  0.31366  1.0000
  H   H303      1.0  0.24820  0.32880  0.22402  1.0000
  H   H304      1.0  0.27631  0.33970  0.26990  1.0000
  H   H305      1.0  0.32310  0.40029  0.47613  1.0000
  N   N20       1.0  0.25691  0.32807  0.27259  1.0000
  C   C189      1.0  0.25916  0.32951  0.23313  1.0000
  H   H306      1.0  0.30181  0.33236  0.74156  1.0000
  H   H307      1.0  0.29069  0.35985  0.92669  1.0000
  H   H308      1.0  0.30002  0.33088  0.89148  1.0000
  C   C190      1.0  0.32280  0.36169  0.70186  1.0000
  H   H309      1.0  0.31675  0.36462  0.79039  1.0000
  N   N21       1.0  0.27915  0.34114  0.92445  1.0000
  C   C191      1.0  0.31489  0.34913  0.70532  1.0000
  H   H310      1.0  0.25694  0.34669  0.90549  1.0000
  C   C192      1.0  0.31636  0.36015  0.76670  1.0000
  H   H311      1.0  0.31406  0.34497  0.68153  1.0000
  C   C193      1.0  0.27182  0.33928  0.96282  1.0000
  S   S80       1.0  0.29882  0.33967  0.81305  1.0000
  H   H312      1.0  0.27355  0.33925  0.87416  1.0000
  C   C194      1.0  0.26830  0.33822  0.90320  1.0000
  C   C195      1.0  0.30797  0.34193  0.73931  1.0000
  H   H313      1.0  0.28793  0.35886  0.88247  1.0000
  C   C196      1.0  0.28243  0.35726  0.91149  1.0000
  C   C197      1.0  0.29409  0.32973  0.92012  1.0000
  C   C198      1.0  0.30849  0.34755  0.77014  1.0000
  H   H314      1.0  0.26052  0.34771  0.96724  1.0000
  C   C199      1.0  0.32364  0.36709  0.73275  1.0000
  H   H315      1.0  0.26548  0.32619  0.91239  1.0000
  H   H316      1.0  0.27142  0.36622  0.91425  1.0000
  H   H317      1.0  0.30251  0.33138  0.93619  1.0000
  H   H318      1.0  0.26916  0.32719  0.97298  1.0000
  H   H319      1.0  0.27977  0.34113  0.97983  1.0000
  H   H320      1.0  0.26920  0.57973  0.25985  1.0000
  Fe  Fe42      1.0  0.29476  0.62592  0.17513  1.0000
  S   S81       1.0  0.28268  0.60570  0.20056  1.0000
  S   S82       1.0  0.31072  0.61363  0.13244  1.0000
  Fe  Fe43      1.0  0.29129  0.62366  0.09973  1.0000
  S   S83       1.0  0.27925  0.60277  0.11975  1.0000
  Fe  Fe44      1.0  0.26566  0.61649  0.16291  1.0000
  S   S84       1.0  0.24030  0.61530  0.18675  1.0000
  Fe  Fe45      1.0  0.29742  0.59394  0.15604  1.0000
  S   S85       1.0  0.31110  0.56903  0.16546  1.0000
  S   S86       1.0  0.27643  0.63803  0.14090  1.0000
  H   H321      1.0  0.27814  0.57232  0.19907  1.0000
  H   H322      1.0  0.28102  0.60991  0.03986  1.0000
  C   C200      1.0  0.30611  0.56705  0.23910  1.0000
  C   C201      1.0  0.25690  0.58013  0.25642  1.0000
  H   H323      1.0  0.29690  0.57714  0.23551  1.0000
  C   C202      1.0  0.26557  0.57277  0.19771  1.0000
  H   H324      1.0  0.31594  0.60349  0.03572  1.0000
  H   H325      1.0  0.23222  0.56679  0.25715  1.0000
  H   H326      1.0  0.26255  0.54388  0.23431  1.0000
  C   C203      1.0  0.23218  0.64436  0.20908  1.0000
  C   C204      1.0  0.26287  0.55274  0.25061  1.0000
  C   C205      1.0  0.30892  0.56007  0.27388  1.0000
  H   H327      1.0  0.27544  0.55176  0.25316  1.0000
  H   H328      1.0  0.30182  0.56490  0.29678  1.0000
  S   S87       1.0  0.29788  0.63468  0.04110  1.0000
  H   H329      1.0  0.23442  0.58178  0.21791  1.0000
  N   N22       1.0  0.25625  0.56882  0.23383  1.0000
  H   H330      1.0  0.24978  0.57761  0.28369  1.0000
  H   H331      1.0  0.23869  0.56143  0.21334  1.0000
  H   H332      1.0  0.26541  0.56445  0.17997  1.0000
  H   H333      1.0  0.25219  0.59242  0.24429  1.0000
  H   H334      1.0  0.20171  0.62952  0.29028  1.0000
  H   H335      1.0  0.25622  0.54934  0.27803  1.0000
  C   C206      1.0  0.23966  0.56970  0.23046  1.0000
  C   C207      1.0  0.22993  0.62871  0.21523  1.0000
  C   C208      1.0  0.21879  0.62355  0.24434  1.0000
  H   H336      1.0  0.27265  0.63391  0.25382  1.0000
  H   H337      1.0  0.26086  0.58480  0.18418  1.0000
  H   H338      1.0  0.21679  0.61159  0.24901  1.0000
  C   C209      1.0  0.31508  0.56085  0.20930  1.0000
  C   C210      1.0  0.28503  0.61519  0.01249  1.0000
  S   S88       1.0  0.32472  0.53951  0.32343  1.0000
  S   S89       1.0  0.30387  0.63388  0.21672  1.0000
  H   H339      1.0  0.26180  0.63083  0.29877  1.0000
  C   C211      1.0  0.29305  0.62778  0.00570  1.0000
  C   C212      1.0  0.26192  0.63859  0.27201  1.0000
  H   H340      1.0  0.25152  0.63745  0.26133  1.0000
  C   C213      1.0  0.21019  0.63374  0.26766  1.0000
  C   C214      1.0  0.32115  0.54715  0.27922  1.0000
  H   H341      1.0  0.24050  0.64854  0.18610  1.0000
  C   C215      1.0  0.21232  0.64935  0.26182  1.0000
  H   H342      1.0  0.27499  0.64895  0.31757  1.0000
  C   C216      1.0  0.31097  0.65143  0.20129  1.0000
  H   H343      1.0  0.28658  0.65166  0.27328  1.0000
  H   H344      1.0  0.20670  0.62520  0.63524  1.0000
  Fe  Fe46      1.0  0.29509  0.61415  0.85468  1.0000
  S   S90       1.0  0.30466  0.63627  0.83074  1.0000
  Fe  Fe47      1.0  0.30249  0.60282  0.78242  1.0000
  H   H345      1.0  0.31965  0.56981  0.68898  1.0000
  S   S91       1.0  0.30281  0.58494  0.74848  1.0000
  H   H346      1.0  0.32007  0.60571  0.96988  1.0000
  Fe  Fe48      1.0  0.29168  0.63771  0.78558  1.0000
  H   H347      1.0  0.18576  0.62618  0.64088  1.0000
  H   H348      1.0  0.32488  0.57016  0.79674  1.0000
  S   S92       1.0  0.28072  0.61654  0.81125  1.0000
  C   C217      1.0  0.29813  0.63452  0.96987  1.0000
  H   H349      1.0  0.20259  0.64243  0.68081  1.0000
  H   H350      1.0  0.19683  0.63166  0.59697  1.0000
  H   H351      1.0  0.23443  0.62426  0.88478  1.0000
  S   S93       1.0  0.31576  0.59826  0.82825  1.0000
  H   H352      1.0  0.25542  0.61828  0.88077  1.0000
  N   N23       1.0  0.19299  0.64858  0.63177  1.0000
  C   C218      1.0  0.19159  0.64877  0.67049  1.0000
  H   H353      1.0  0.30437  0.64427  0.96432  1.0000
  H   H354      1.0  0.24691  0.62913  0.84241  1.0000
  C   C219      1.0  0.29549  0.62853  0.94111  1.0000
  H   H355      1.0  0.27599  0.59957  0.98934  1.0000
  H   H356      1.0  0.26293  0.63814  0.75223  1.0000
  C   C220      1.0  0.32070  0.57149  0.74322  1.0000
  N   N24       1.0  0.24699  0.64292  0.88197  1.0000
  S   S94       1.0  0.31229  0.62428  0.75309  1.0000
  H   H357      1.0  0.29966  0.63368  0.91371  1.0000
  H   H358      1.0  0.18162  0.64324  0.68681  1.0000
  C   C221      1.0  0.24586  0.62801  0.87204  1.0000
  C   C222      1.0  0.24548  0.64087  0.92146  1.0000
  S   S95       1.0  0.28377  0.60793  0.91302  1.0000
  H   H359      1.0  0.24065  0.64050  0.72026  1.0000
  C   C223      1.0  0.19568  0.63216  0.62598  1.0000
  C   C224      1.0  0.28755  0.61585  0.94802  1.0000
  C   C225      1.0  0.28221  0.60933  0.98378  1.0000
  H   H360      1.0  0.25489  0.63132  0.93162  1.0000
  H   H361      1.0  0.23394  0.63765  0.93538  1.0000
  H   H362      1.0  0.27228  0.63817  0.87420  1.0000
  C   C226      1.0  0.26242  0.64727  0.86484  1.0000
  C   C227      1.0  0.25749  0.64959  0.73962  1.0000
  H   H363      1.0  0.21773  0.64978  0.62051  1.0000
  H   H364      1.0  0.26412  0.64857  0.83507  1.0000
  C   C228      1.0  0.24487  0.65095  0.72142  1.0000
  Fe  Fe49      1.0  0.32418  0.62056  0.80069  1.0000
  H   H365      1.0  0.16787  0.65225  0.63368  1.0000
  H   H366      1.0  0.24653  0.65179  0.92995  1.0000
  H   H367      1.0  0.22240  0.65257  0.88143  1.0000
  Fe  Fe50      1.0  0.09132  0.80061  0.09509  1.0000
  S   S96       1.0  0.10352  0.77543  0.10463  1.0000
  H   H368      1.0  0.30572  0.68580  0.14185  1.0000
  H   H369      1.0  0.23829  0.70630  0.48190  1.0000
  S   S97       1.0  0.13636  0.78876  0.09924  1.0000
  Fe  Fe51      1.0  0.12288  0.78352  0.06175  1.0000
  H   H370      1.0  0.15464  0.73680  0.04916  1.0000
  Fe  Fe52      1.0  0.11593  0.78284  0.14176  1.0000
  S   S98       1.0  0.11922  0.76617  0.19391  1.0000
  H   H371      1.0  0.30350  0.72078  0.46230  1.0000
  C   C229      1.0  0.18094  0.72137  0.46019  1.0000
  H   H372      1.0  0.24558  0.65366  0.32503  1.0000
  H   H373      1.0  0.14819  0.77818  0.16331  1.0000
  C   C230      1.0  0.15856  0.73960  0.23029  1.0000
  H   H374      1.0  0.25245  0.66435  0.22526  1.0000
  S   S99       1.0  0.31266  0.77008  0.25479  1.0000
  C   C231      1.0  0.15913  0.72938  0.07345  1.0000
  C   C232      1.0  0.14273  0.74573  0.22623  1.0000
  N   N25       1.0  0.29407  0.73915  0.49368  1.0000
  C   C233      1.0  0.02533  0.79522  0.08081  1.0000
  C   C234      1.0  0.02900  0.77880  0.08866  1.0000
  C   C235      1.0  0.05525  0.76798  0.18725  1.0000
  H   H375      1.0  0.30071  0.74047  0.27792  1.0000
  C   C236      1.0  0.15098  0.76725  0.18132  1.0000
  S   S100      1.0  0.01488  0.76679  0.09165  1.0000
  S   S101      1.0  0.24646  0.81240  0.33321  1.0000
  H   H376      1.0  0.13348  0.73967  0.24209  1.0000
  C   C237      1.0  0.13892  0.75945  0.20129  1.0000
  H   H377      1.0  0.17751  0.74822  0.08297  1.0000
  C   C238      1.0  0.30766  0.78552  0.49431  1.0000
  H   H378      1.0  0.01356  0.80097  0.07637  1.0000
  C   C239      1.0  0.21372  0.72963  0.48980  1.0000
  H   H379      1.0  0.28234  0.72613  0.46976  1.0000
  C   C240      1.0  0.19649  0.80690  0.26091  1.0000
  H   H380      1.0  0.27846  0.80952  0.39933  1.0000
  H   H381      1.0  0.31024  0.74418  0.21304  1.0000
  S   S102      1.0  0.06601  0.80903  0.08495  1.0000
  H   H382      1.0  0.13273  0.73423  0.12296  1.0000
  H   H383      1.0  0.10512  0.76274  0.04357  1.0000
  H   H384      1.0  0.29250  0.74000  0.20467  1.0000
  C   C241      1.0  0.07744  0.76997  0.21256  1.0000
  H   H385      1.0  0.21118  0.73084  0.42065  1.0000
  C   C242      1.0  0.27522  0.65606  0.29008  1.0000
  C   C243      1.0  0.16456  0.75206  0.09061  1.0000
  H   H386      1.0  0.21939  0.75332  0.43639  1.0000
  H   H387      1.0  0.30127  0.70434  0.21950  1.0000
  H   H388      1.0  0.08545  0.75695  0.01373  1.0000
  C   C244      1.0  0.03684  0.80428  0.07947  1.0000
  C   C245      1.0  0.05216  0.79706  0.08556  1.0000
  C   C246      1.0  0.05594  0.78062  0.09255  1.0000
  C   C247      1.0  0.04438  0.77157  0.09440  1.0000
  C   C248      1.0  0.10765  0.76303  0.01499  1.0000
  H   H389      1.0  0.06774  0.77489  0.09666  1.0000
  H   H390      1.0  0.04736  0.75886  0.10024  1.0000
  C   C249      1.0  0.13927  0.74415  0.11270  1.0000
  N   N26       1.0  0.26158  0.65510  0.27449  1.0000
  H   H391      1.0  0.31134  0.72887  0.18812  1.0000
  H   H392      1.0  0.30303  0.81907  0.37113  1.0000
  N   N27       1.0  0.15638  0.73847  0.10284  1.0000
  H   H393      1.0  0.15301  0.71911  0.08162  1.0000
  H   H394      1.0  0.17192  0.72486  0.06534  1.0000
  N   N28       1.0  0.06217  0.77843  0.20223  1.0000
  H   H395      1.0  0.05356  0.79907  0.16567  1.0000
  H   H396      1.0  0.13420  0.75155  0.08922  1.0000
  S   S103      1.0  0.13573  0.77109  0.01636  1.0000
  H   H397      1.0  0.05279  0.75739  0.20744  1.0000
  S   S104      1.0  0.11007  0.80823  0.04975  1.0000
  H   H398      1.0  0.16012  0.76000  0.06688  1.0000
  H   H399      1.0  0.16142  0.72888  0.24910  1.0000
  H   H400      1.0  0.16028  0.73482  0.15732  1.0000
  C   C250      1.0  0.16251  0.72835  0.13450  1.0000
  H   H401      1.0  0.20166  0.80690  0.28487  1.0000
  H   H402      1.0  0.13678  0.75140  0.13416  1.0000
  H   H403      1.0  0.20038  0.79494  0.25374  1.0000
  C   C251      1.0  0.24076  0.71830  0.46990  1.0000
  N   N29       1.0  0.20132  0.81916  0.23055  1.0000
  S   S105      1.0  0.21795  0.69986  0.24535  1.0000
  C   C252      1.0  0.16676  0.76103  0.18494  1.0000
  Fe  Fe53      1.0  0.22876  0.70561  0.28733  1.0000
  S   S106      1.0  0.25509  0.70262  0.28246  1.0000
  Fe  Fe54      1.0  0.29809  0.77382  0.30861  1.0000
  S   S107      1.0  0.30252  0.75936  0.36176  1.0000
  Fe  Fe55      1.0  0.26729  0.79267  0.34094  1.0000
  S   S108      1.0  0.26882  0.77943  0.39721  1.0000
  Fe  Fe56      1.0  0.29417  0.78188  0.38344  1.0000
  S   S109      1.0  0.30741  0.78642  0.42319  1.0000
  Fe  Fe57      1.0  0.27693  0.75807  0.37136  1.0000
  S   S110      1.0  0.27149  0.73435  0.39775  1.0000
  S   S111      1.0  0.29224  0.79678  0.32890  1.0000
  S   S112      1.0  0.27288  0.77083  0.31652  1.0000
  H   H404      1.0  0.29387  0.70183  0.26701  1.0000
  H   H405      1.0  0.25057  0.71710  0.44681  1.0000
  Fe  Fe58      1.0  0.19742  0.71205  0.33767  1.0000
  H   H406      1.0  0.17548  0.72417  0.12849  1.0000
  S   S113      1.0  0.18378  0.70647  0.30014  1.0000
  C   C253      1.0  0.25918  0.71139  0.31510  1.0000
  C   C254      1.0  0.25243  0.72704  0.31770  1.0000
  C   C255      1.0  0.25629  0.73420  0.34295  1.0000
  C   C256      1.0  0.26648  0.72552  0.36635  1.0000
  C   C257      1.0  0.27289  0.70974  0.36442  1.0000
  C   C258      1.0  0.26949  0.70277  0.33829  1.0000
  H   H407      1.0  0.24446  0.73373  0.29974  1.0000
  H   H408      1.0  0.25120  0.74636  0.34459  1.0000
  H   H409      1.0  0.28077  0.70302  0.38253  1.0000
  H   H410      1.0  0.27466  0.69064  0.33641  1.0000
  C   C259      1.0  0.19252  0.68918  0.47614  1.0000
  H   H411      1.0  0.29575  0.66059  0.16173  1.0000
  H   H412      1.0  0.32035  0.78238  0.48732  1.0000
  H   H413      1.0  0.21873  0.71107  0.44043  1.0000
  C   C260      1.0  0.06474  0.79249  0.17481  1.0000
  C   C261      1.0  0.30487  0.66273  0.17395  1.0000
  C   C262      1.0  0.31047  0.67696  0.16282  1.0000
  H   H414      1.0  0.28038  0.76064  0.47014  1.0000
  S   S114      1.0  0.20134  0.66132  0.29305  1.0000
  H   H415      1.0  0.16275  0.75916  0.11218  1.0000
  H   H416      1.0  0.23127  0.72213  0.40644  1.0000
  C   C263      1.0  0.22174  0.72298  0.43032  1.0000
  Fe  Fe59      1.0  0.12188  0.81301  0.09155  1.0000
  H   H417      1.0  0.08291  0.81740  0.00504  1.0000
  C   C264      1.0  0.21870  0.81627  0.22060  1.0000
  H   H418      1.0  0.15413  0.79691  0.00324  1.0000
  S   S115      1.0  0.18659  0.72290  0.38746  1.0000
  H   H419      1.0  0.04394  0.77415  0.17809  1.0000
  C   C265      1.0  0.30442  0.73449  0.21118  1.0000
  H   H420      1.0  0.22454  0.66691  0.22680  1.0000
  C   C266      1.0  0.29824  0.78785  0.46785  1.0000
  H   H421      1.0  0.17603  0.76703  0.16891  1.0000
  H   H422      1.0  0.22324  0.80477  0.21143  1.0000
  C   C267      1.0  0.22319  0.65474  0.23211  1.0000
  H   H423      1.0  0.27527  0.66844  0.29197  1.0000
  C   C268      1.0  0.26240  0.66486  0.23819  1.0000
  H   H424      1.0  0.23435  0.74958  0.46407  1.0000
  C   C269      1.0  0.29500  0.71069  0.24187  1.0000
  H   H425      1.0  0.27353  0.66083  0.22023  1.0000
  H   H426      1.0  0.28282  0.71586  0.23655  1.0000
  H   H427      1.0  0.03967  0.78982  0.22715  1.0000
  Fe  Fe60      1.0  0.19872  0.72057  0.25631  1.0000
  C   C270      1.0  0.30885  0.74550  0.48545  1.0000
  H   H428      1.0  0.22445  0.81607  0.24381  1.0000
  C   C271      1.0  0.32256  0.67951  0.17805  1.0000
  C   C272      1.0  0.29349  0.73082  0.46482  1.0000
  H   H429      1.0  0.18342  0.80879  0.26912  1.0000
  C   C273      1.0  0.17065  0.74713  0.20920  1.0000
  S   S116      1.0  0.21108  0.72757  0.29409  1.0000
  H   H430      1.0  0.05617  0.79127  0.24604  1.0000
  N   N30       1.0  0.30341  0.72294  0.24503  1.0000
  H   H431      1.0  0.04905  0.77303  0.25544  1.0000
  C   C274      1.0  0.32271  0.65422  0.21717  1.0000
  H   H432      1.0  0.08592  0.76598  0.18914  1.0000
  Fe  Fe61      1.0  0.20408  0.68624  0.29204  1.0000
  C   C275      1.0  0.28042  0.75223  0.49606  1.0000
  H   H433      1.0  0.20262  0.73713  0.48210  1.0000
  C   C276      1.0  0.18643  0.71274  0.43208  1.0000
  H   H434      1.0  0.14217  0.81365  0.02099  1.0000
  C   C277      1.0  0.28186  0.79208  0.47704  1.0000
  H   H435      1.0  0.23926  0.74501  0.41949  1.0000
  S   S117      1.0  0.10196  0.80759  0.13655  1.0000
  H   H436      1.0  0.07603  0.75937  0.23356  1.0000
  H   H437      1.0  0.15679  0.71784  0.14425  1.0000
  C   C278      1.0  0.19225  0.69660  0.44012  1.0000
  H   H438      1.0  0.23623  0.66094  0.28631  1.0000
  H   H439      1.0  0.24632  0.67323  0.30090  1.0000
  H   H440      1.0  0.19644  0.68984  0.41864  1.0000
  C   C279      1.0  0.24681  0.66096  0.29770  1.0000
  H   H441      1.0  0.08321  0.77760  0.22327  1.0000
  S   S118      1.0  0.21620  0.69056  0.33381  1.0000
  H   H442      1.0  0.17632  0.73384  0.45414  1.0000
  H   H443      1.0  0.19689  0.67667  0.48225  1.0000
  S   S119      1.0  0.19077  0.73904  0.20987  1.0000
  C   C280      1.0  0.23006  0.74493  0.44402  1.0000
  H   H444      1.0  0.27442  0.79383  0.45710  1.0000
  H   H445      1.0  0.29406  0.73882  0.43826  1.0000
  H   H446      1.0  0.31923  0.70656  0.27683  1.0000
  N   N31       1.0  0.22658  0.72896  0.45848  1.0000
  H   H447      1.0  0.29389  0.72272  0.30109  1.0000
  C   C281      1.0  0.29475  0.73103  0.27505  1.0000
  H   H448      1.0  0.06333  0.76380  0.16358  1.0000
  H   H449      1.0  0.01896  0.75304  0.02428  1.0000
  H   H450      1.0  0.19804  0.80716  0.19043  1.0000
  C   C282      1.0  0.31950  0.71557  0.25189  1.0000
  H   H451      1.0  0.07304  0.78919  0.15060  1.0000
  C   C283      1.0  0.05128  0.78335  0.23414  1.0000
  H   H452      1.0  0.26191  0.67745  0.23919  1.0000
  H   H453      1.0  0.17678  0.80110  0.02704  1.0000
  H   H454      1.0  0.28251  0.73664  0.27090  1.0000
  H   H455      1.0  0.31941  0.73599  0.48363  1.0000
  H   H456      1.0  0.30969  0.75381  0.45932  1.0000
  C   C284      1.0  0.19421  0.81875  0.19942  1.0000
  C   C285      1.0  0.17260  0.81398  0.02003  1.0000
  C   C286      1.0  0.18147  0.71403  0.49605  1.0000
  H   H457      1.0  0.04381  0.76006  0.02940  1.0000
  H   H458      1.0  0.26787  0.81144  0.26500  1.0000
  H   H459      1.0  0.06981  0.80078  0.18510  1.0000
  H   H460      1.0  0.03378  0.81699  0.07401  1.0000
  H   H461      1.0  0.24499  0.72270  0.49044  1.0000
  C   C287      1.0  0.04817  0.75967  0.00035  1.0000
  H   H462      1.0  0.02186  0.78097  0.01066  1.0000
  H   H463      1.0  0.16477  0.81796  0.04425  1.0000
  H   H464      1.0  0.32608  0.72444  0.25502  1.0000
  H   H465      1.0  0.05531  0.74775  0.99815  1.0000
  C   C288      1.0  0.09653  0.75966  0.99806  1.0000
  H   H466      1.0  0.23527  0.65739  0.83959  1.0000
  C   C289      1.0  0.11398  0.76340  0.94084  1.0000
  Fe  Fe62      1.0  0.09065  0.79429  0.82345  1.0000
  S   S120      1.0  0.10716  0.77156  0.83808  1.0000
  C   C290      1.0  0.12037  0.81048  0.85604  1.0000
  Fe  Fe63      1.0  0.06177  0.77820  0.83291  1.0000
  S   S121      1.0  0.07655  0.75462  0.84794  1.0000
  S   S122      1.0  0.03561  0.77668  0.84554  1.0000
  Fe  Fe64      1.0  0.08677  0.76608  0.88150  1.0000
  S   S123      1.0  0.08504  0.75646  0.94058  1.0000
  Fe  Fe65      1.0  0.09529  0.76235  0.80259  1.0000
  S   S124      1.0  0.10545  0.74452  0.76540  1.0000
  S   S125      1.0  0.07109  0.78934  0.86934  1.0000
  S   S126      1.0  0.07984  0.78550  0.78499  1.0000
  H   H467      1.0  0.15147  0.72101  0.68543  1.0000
  H   H468      1.0  0.12409  0.72311  0.71974  1.0000
  H   H469      1.0  0.08892  0.81300  0.89463  1.0000
  C   C291      1.0  0.14681  0.73014  0.70147  1.0000
  C   C292      1.0  0.17511  0.81261  0.95730  1.0000
  C   C293      1.0  0.24145  0.81498  0.73322  1.0000
  C   C294      1.0  0.12533  0.76636  0.95804  1.0000
  C   C295      1.0  0.14993  0.75269  0.72353  1.0000
  C   C296      1.0  0.12507  0.74324  0.74178  1.0000
  C   C297      1.0  0.13447  0.75387  0.74310  1.0000
  H   H470      1.0  0.13645  0.76897  0.94246  1.0000
  C   C298      1.0  0.13129  0.73138  0.72091  1.0000
  H   H471      1.0  0.12980  0.76307  0.75896  1.0000
  H   H472      1.0  0.11162  0.81508  0.94433  1.0000
  C   C299      1.0  0.00053  0.77442  0.77454  1.0000
  C   C300      1.0  0.01312  0.78254  0.76004  1.0000
  C   C301      1.0  0.02425  0.78300  0.78103  1.0000
  C   C302      1.0  0.02291  0.77528  0.81680  1.0000
  C   C303      1.0  0.01051  0.76692  0.83108  1.0000
  H   H473      1.0  0.26294  0.79072  0.85446  1.0000
  H   H474      1.0  0.01404  0.78883  0.73262  1.0000
  H   H475      1.0  0.03354  0.78976  0.76986  1.0000
  H   H476      1.0  0.00939  0.76091  0.85874  1.0000
  H   H477      1.0  0.05634  0.76820  0.99002  1.0000
  S   S127      1.0  0.31896  0.77372  0.72745  1.0000
  C   C304      1.0  0.29351  0.72810  0.52831  1.0000
  H   H478      1.0  0.20470  0.66831  0.61557  1.0000
  H   H479      1.0  0.30304  0.67385  0.78700  1.0000
  C   C305      1.0  0.09961  0.75996  0.96095  1.0000
  C   C306      1.0  0.30252  0.68929  0.71909  1.0000
  H   H480      1.0  0.11645  0.76358  0.91216  1.0000
  N   N32       1.0  0.05907  0.74408  0.75635  1.0000
  C   C307      1.0  0.06917  0.73751  0.72542  1.0000
  C   C308      1.0  0.06315  0.73407  0.79018  1.0000
  C   C309      1.0  0.04229  0.74464  0.75522  1.0000
  C   C310      1.0  0.06175  0.76014  0.75469  1.0000
  H   H481      1.0  0.08192  0.73692  0.72576  1.0000
  H   H482      1.0  0.06652  0.74490  0.69946  1.0000
  H   H483      1.0  0.06750  0.72538  0.72567  1.0000
  H   H484      1.0  0.05582  0.73879  0.81408  1.0000
  H   H485      1.0  0.06133  0.72183  0.79240  1.0000
  H   H486      1.0  0.07574  0.73345  0.79192  1.0000
  H   H487      1.0  0.03442  0.74920  0.77871  1.0000
  H   H488      1.0  0.03989  0.73277  0.75560  1.0000
  H   H489      1.0  0.03860  0.75249  0.73061  1.0000
  H   H490      1.0  0.05524  0.76506  0.77892  1.0000
  H   H491      1.0  0.05790  0.76834  0.73069  1.0000
  H   H492      1.0  0.07447  0.76022  0.75320  1.0000
  C   C311      1.0  0.12207  0.76635  0.99510  1.0000
  H   H493      1.0  0.26362  0.65860  0.87115  1.0000
  H   H494      1.0  0.29147  0.71586  0.74608  1.0000
  H   H495      1.0  0.18963  0.66101  0.67572  1.0000
  C   C312      1.0  0.02639  0.77948  0.98219  1.0000
  H   H496      1.0  0.06533  0.80446  0.96123  1.0000
  H   H497      1.0  0.14396  0.81278  0.97426  1.0000
  H   H498      1.0  0.04947  0.77019  0.92929  1.0000
  N   N33       1.0  0.16427  0.81788  0.98892  1.0000
  H   H499      1.0  0.29223  0.78710  0.84748  1.0000
  H   H500      1.0  0.28016  0.76751  0.83058  1.0000
  C   C313      1.0  0.18732  0.69792  0.50415  1.0000
  H   H501      1.0  0.17941  0.79969  0.96229  1.0000
  H   H502      1.0  0.17905  0.65771  0.58977  1.0000
  H   H503      1.0  0.17602  0.66994  0.62271  1.0000
  H   H504      1.0  0.28064  0.75899  0.51714  1.0000
  H   H505      1.0  0.29177  0.77024  0.78637  1.0000
  C   C314      1.0  0.15617  0.74085  0.70263  1.0000
  H   H506      1.0  0.15707  0.76105  0.72451  1.0000
  H   H507      1.0  0.20775  0.65636  0.58205  1.0000
  H   H508      1.0  0.28949  0.69299  0.72088  1.0000
  Fe  Fe66      1.0  0.18876  0.72127  0.64548  1.0000
  H   H509      1.0  0.25078  0.81288  0.71076  1.0000
  H   H510      1.0  0.18558  0.81844  0.95004  1.0000
  Fe  Fe67      1.0  0.21950  0.71878  0.59299  1.0000
  S   S128      1.0  0.21412  0.71464  0.65312  1.0000
  S   S129      1.0  0.23817  0.73237  0.56202  1.0000
  H   H511      1.0  0.30388  0.78966  0.80324  1.0000
  S   S130      1.0  0.19441  0.72686  0.58493  1.0000
  Fe  Fe68      1.0  0.26519  0.77764  0.70980  1.0000
  S   S131      1.0  0.28200  0.79370  0.68133  1.0000
  S   S132      1.0  0.24381  0.78267  0.75204  1.0000
  Fe  Fe69      1.0  0.28458  0.75045  0.67322  1.0000
  S   S133      1.0  0.30318  0.76416  0.64249  1.0000
  S   S134      1.0  0.28499  0.72553  0.66907  1.0000
  Fe  Fe70      1.0  0.30085  0.77271  0.69475  1.0000
  N   N34       1.0  0.03498  0.76329  0.98002  1.0000
  Fe  Fe71      1.0  0.28243  0.78354  0.63228  1.0000
  S   S135      1.0  0.27588  0.79817  0.58020  1.0000
  S   S136      1.0  0.28390  0.75725  0.72585  1.0000
  S   S137      1.0  0.26398  0.76916  0.66034  1.0000
  H   H512      1.0  0.32491  0.74396  0.70351  1.0000
  S   S138      1.0  0.18789  0.68842  0.54907  1.0000
  H   H513      1.0  0.10617  0.79907  0.97874  1.0000
  Fe  Fe72      1.0  0.19473  0.70121  0.58662  1.0000
  C   C315      1.0  0.25226  0.72974  0.58958  1.0000
  C   C316      1.0  0.26067  0.74170  0.58710  1.0000
  C   C317      1.0  0.27126  0.74006  0.61063  1.0000
  C   C318      1.0  0.27333  0.72654  0.63689  1.0000
  C   C319      1.0  0.26529  0.71435  0.63863  1.0000
  C   C320      1.0  0.25469  0.71598  0.61505  1.0000
  H   H514      1.0  0.25861  0.75246  0.56789  1.0000
  H   H515      1.0  0.27775  0.74935  0.60859  1.0000
  H   H516      1.0  0.26688  0.70385  0.65885  1.0000
  H   H517      1.0  0.24831  0.70662  0.61683  1.0000
  C   C321      1.0  0.26299  0.66303  0.74136  1.0000
  C   C322      1.0  0.30081  0.78757  0.52967  1.0000
  H   H518      1.0  0.30820  0.78615  0.54968  1.0000
  C   C323      1.0  0.28452  0.79256  0.53838  1.0000
  H   H519      1.0  0.17714  0.72080  0.51748  1.0000
  C   C324      1.0  0.22331  0.80527  0.78511  1.0000
  C   C325      1.0  0.23563  0.80233  0.75659  1.0000
  H   H520      1.0  0.04788  0.74988  0.93929  1.0000
  H   H521      1.0  0.21865  0.79556  0.80311  1.0000
  C   C326      1.0  0.20642  0.65599  0.61150  1.0000
  H   H522      1.0  0.30347  0.71793  0.52733  1.0000
  C   C327      1.0  0.04121  0.76192  0.94198  1.0000
  S   S139      1.0  0.22186  0.66692  0.68227  1.0000
  H   H523      1.0  0.07938  0.79304  0.98878  1.0000
  H   H524      1.0  0.30851  0.71554  0.76530  1.0000
  H   H525      1.0  0.28234  0.72334  0.53575  1.0000
  H   H526      1.0  0.26221  0.81000  0.82708  1.0000
  S   S140      1.0  0.27844  0.66181  0.76502  1.0000
  H   H527      1.0  0.26904  0.74786  0.50277  1.0000
  H   H528      1.0  0.28723  0.69045  0.78611  1.0000
  C   C328      1.0  0.30440  0.71143  0.74416  1.0000
  C   C329      1.0  0.99941  0.76639  0.81005  1.0000
  H   H529      1.0  0.26007  0.68827  0.72580  1.0000
  N   N35       1.0  0.21607  0.75847  0.67814  1.0000
  C   C330      1.0  0.20766  0.76144  0.64733  1.0000
  C   C331      1.0  0.21758  0.77363  0.68621  1.0000
  C   C332      1.0  0.20708  0.74976  0.70991  1.0000
  H   H530      1.0  0.19546  0.76818  0.65350  1.0000
  H   H531      1.0  0.21397  0.76814  0.62292  1.0000
  H   H532      1.0  0.20647  0.75024  0.64030  1.0000
  H   H533      1.0  0.20582  0.78106  0.69311  1.0000
  H   H534      1.0  0.22438  0.78049  0.66288  1.0000
  H   H535      1.0  0.22387  0.77184  0.70939  1.0000
  H   H536      1.0  0.19489  0.75637  0.71693  1.0000
  H   H537      1.0  0.21294  0.74750  0.73385  1.0000
  H   H538      1.0  0.20582  0.73820  0.70487  1.0000
  H   H539      1.0  0.03155  0.76457  0.92580  1.0000
  C   C333      1.0  0.29227  0.79382  0.81963  1.0000
  H   H540      1.0  0.23880  0.74683  0.69139  1.0000
  H   H541      1.0  0.23809  0.69056  0.69295  1.0000
  H   H542      1.0  0.27067  0.77272  0.79177  1.0000
  N   N36       1.0  0.27907  0.79165  0.80419  1.0000
  H   H543      1.0  0.30957  0.75207  0.50646  1.0000
  C   C334      1.0  0.23195  0.74907  0.66909  1.0000
  N   N37       1.0  0.30816  0.69409  0.74782  1.0000
  H   H544      1.0  0.23133  0.73744  0.66340  1.0000
  S   S141      1.0  0.18667  0.69624  0.64664  1.0000
  S   S142      1.0  0.22047  0.69379  0.58962  1.0000
  S   S143      1.0  0.17563  0.74005  0.67829  1.0000
  C   C335      1.0  0.30029  0.68694  0.78327  1.0000
  C   C336      1.0  0.25589  0.67781  0.72456  1.0000
  H   H545      1.0  0.26248  0.79870  0.51859  1.0000
  C   C337      1.0  0.27508  0.79473  0.51200  1.0000
  H   H546      1.0  0.27830  0.81357  0.76687  1.0000
  H   H547      1.0  0.23886  0.75515  0.64469  1.0000
  C   C338      1.0  0.23781  0.66570  0.70447  1.0000
  S   S144      1.0  0.09802  0.81816  0.81122  1.0000
  Fe  Fe73      1.0  0.21258  0.69019  0.64930  1.0000
  H   H548      1.0  0.31006  0.71721  0.71756  1.0000
  C   C339      1.0  0.17831  0.65744  0.61904  1.0000
  C   C340      1.0  0.28048  0.77478  0.80324  1.0000
  H   H549      1.0  0.01403  0.75444  0.98082  1.0000
  C   C341      1.0  0.24341  0.67914  0.70594  1.0000
  H   H550      1.0  0.23469  0.66691  0.87659  1.0000
  H   H551      1.0  0.11723  0.79893  0.86333  1.0000
  H   H552      1.0  0.13647  0.80556  0.89378  1.0000
  H   H553      1.0  0.30412  0.69047  0.80559  1.0000
  H   H554      1.0  0.30794  0.69473  0.69191  1.0000
  H   H555      1.0  0.29423  0.73398  0.55052  1.0000
  H   H556      1.0  0.01610  0.78244  0.96787  1.0000
  C   C342      1.0  0.07810  0.79978  0.96136  1.0000
  H   H557      1.0  0.10882  0.79754  0.93226  1.0000
  H   H558      1.0  0.29113  0.79701  0.74991  1.0000
  C   C343      1.0  0.23425  0.65550  0.86941  1.0000
  H   H559      1.0  0.08204  0.79127  0.94237  1.0000
  H   H560      1.0  0.30520  0.67628  0.72081  1.0000
  C   C344      1.0  0.10423  0.80577  0.95171  1.0000
  C   C345      1.0  0.13130  0.81426  0.87319  1.0000
  C   C346      1.0  0.27971  0.80073  0.76730  1.0000
  H   H561      1.0  0.21685  0.73456  0.51101  1.0000
  H   H562      1.0  0.27012  0.79903  0.75468  1.0000
  H   H563      1.0  0.21113  0.71771  0.50222  1.0000
  H   H564      1.0  0.03414  0.78828  0.96993  1.0000
  H   H565      1.0  0.29165  0.80644  0.82051  1.0000
  H   H566      1.0  0.25372  0.79557  0.81525  1.0000
  C   C347      1.0  0.26385  0.79723  0.82631  1.0000
  N   N38       1.0  0.08739  0.81256  0.95118  1.0000
  H   H567      1.0  0.16921  0.81544  0.93331  1.0000
  C   C348      1.0  0.32541  0.68871  0.74484  1.0000
  C   C349      1.0  0.02407  0.75211  0.99571  1.0000
  H   H568      1.0  0.03017  0.73974  0.99497  1.0000
  C   C350      1.0  0.15053  0.80992  0.99725  1.0000
  S   S145      1.0  0.13452  0.83382  0.07573  1.0000
  H   H569      1.0  0.26539  0.85630  0.00953  1.0000
  S   S146      1.0  0.16951  0.85476  0.18121  1.0000
  C   C351      1.0  0.14481  0.83890  0.10508  1.0000
  C   C352      1.0  0.14322  0.83218  0.14154  1.0000
  H   H570      1.0  0.26665  0.82798  0.20472  1.0000
  H   H571      1.0  0.15590  0.85541  0.06336  1.0000
  C   C353      1.0  0.17383  0.89536  0.00166  1.0000
  C   C354      1.0  0.15457  0.85019  0.09155  1.0000
  C   C355      1.0  0.15095  0.83708  0.16447  1.0000
  H   H572      1.0  0.14932  0.83212  0.19282  1.0000
  H   H573      1.0  0.19743  0.82802  0.17618  1.0000
  Fe  Fe74      1.0  0.22140  0.87046  0.16553  1.0000
  S   S147      1.0  0.24388  0.85395  0.17798  1.0000
  Fe  Fe75      1.0  0.20866  0.88580  0.09657  1.0000
  S   S148      1.0  0.21599  0.89077  0.03645  1.0000
  Fe  Fe76      1.0  0.19816  0.90179  0.16156  1.0000
  S   S149      1.0  0.19007  0.92612  0.17672  1.0000
  S   S150      1.0  0.22195  0.89413  0.13007  1.0000
  C   C356      1.0  0.21217  0.87700  0.01446  1.0000
  N   N39       1.0  0.25965  0.86277  0.06193  1.0000
  H   H574      1.0  0.20137  0.86330  0.06260  1.0000
  C   C357      1.0  0.20489  0.86449  0.03386  1.0000
  S   S151      1.0  0.20999  0.86158  0.12931  1.0000
  C   C358      1.0  0.16048  0.84857  0.15111  1.0000
  H   H575      1.0  0.16979  0.86378  0.10382  1.0000
  H   H576      1.0  0.22403  0.92556  0.15237  1.0000
  S   S152      1.0  0.18468  0.89501  0.12529  1.0000
  C   C359      1.0  0.19586  0.83478  0.24129  1.0000
  C   C360      1.0  0.26232  0.86696  0.02229  1.0000
  H   H577      1.0  0.26078  0.82289  0.41306  1.0000
  C   C361      1.0  0.25558  0.87729  0.07753  1.0000
  C   C362      1.0  0.24654  0.85392  0.07392  1.0000
  H   H578      1.0  0.13571  0.82351  0.15228  1.0000
  C   C363      1.0  0.16246  0.85495  0.11441  1.0000
  Fe  Fe77      1.0  0.18707  0.87127  0.16109  1.0000
  H   H579      1.0  0.28421  0.85925  0.06570  1.0000
  C   C364      1.0  0.24448  0.84269  0.22144  1.0000
  C   C365      1.0  0.23241  0.84566  0.25035  1.0000
  C   C366      1.0  0.23316  0.83632  0.28456  1.0000
  H   H580      1.0  0.19899  0.97848  0.18090  1.0000
  H   H581      1.0  0.20087  0.83555  0.26487  1.0000
  C   C367      1.0  0.25726  0.83034  0.22695  1.0000
  H   H582      1.0  0.22260  0.85526  0.24647  1.0000
  H   H583      1.0  0.22385  0.83874  0.30690  1.0000
  H   H584      1.0  0.29261  0.84104  0.42728  1.0000
  H   H585      1.0  0.19637  0.84383  0.03109  1.0000
  C   C368      1.0  0.20227  0.94029  0.17106  1.0000
  C   C369      1.0  0.19535  0.95530  0.17910  1.0000
  C   C370      1.0  0.20449  0.96704  0.17434  1.0000
  C   C371      1.0  0.22072  0.96387  0.16161  1.0000
  C   C372      1.0  0.22770  0.94880  0.15389  1.0000
  C   C373      1.0  0.21852  0.93708  0.15843  1.0000
  H   H586      1.0  0.18283  0.95785  0.18924  1.0000
  H   H587      1.0  0.24025  0.94622  0.14413  1.0000
  C   C374      1.0  0.25797  0.82096  0.26109  1.0000
  H   H588      1.0  0.30338  0.83977  0.36237  1.0000
  C   C375      1.0  0.28571  0.83196  0.42695  1.0000
  H   H589      1.0  0.25320  0.87458  0.10748  1.0000
  H   H590      1.0  0.24420  0.85056  0.10375  1.0000
  H   H591      1.0  0.27900  0.85871  0.37969  1.0000
  H   H592      1.0  0.27746  0.84181  0.06318  1.0000
  H   H593      1.0  0.19938  0.84428  0.21901  1.0000
  H   H594      1.0  0.29294  0.83190  0.33702  1.0000
  C   C376      1.0  0.27171  0.82161  0.39259  1.0000
  H   H595      1.0  0.18555  0.97898  0.11766  1.0000
  H   H596      1.0  0.26111  0.85163  0.40118  1.0000
  H   H597      1.0  0.18275  0.83753  0.24836  1.0000
  H   H598      1.0  0.16219  0.89375  0.01839  1.0000
  C   C377      1.0  0.27406  0.85294  0.07417  1.0000
  H   H599      1.0  0.27512  0.83311  0.44839  1.0000
  H   H600      1.0  0.27205  0.87378  0.01223  1.0000
  S   S153      1.0  0.23248  0.97860  0.15344  1.0000
  H   H601      1.0  0.27225  0.84972  0.10411  1.0000
  S   S154      1.0  0.19852  0.87864  0.20036  1.0000
  H   H602      1.0  0.26800  0.82258  0.36624  1.0000
  H   H603      1.0  0.22048  0.96503  0.05259  1.0000
  C   C378      1.0  0.20190  0.85356  0.01594  1.0000
  H   H604      1.0  0.17487  0.92452  0.00975  1.0000
  H   H605      1.0  0.20994  0.96111  0.09752  1.0000
  H   H606      1.0  0.26527  0.88420  0.06951  1.0000
  H   H607      1.0  0.24913  0.84292  0.06252  1.0000
  H   H608      1.0  0.22279  0.82564  0.19858  1.0000
  C   C379      1.0  0.29580  0.83099  0.36424  1.0000
  H   H609      1.0  0.23545  0.86104  0.06539  1.0000
  H   H610      1.0  0.20192  0.95839  0.06090  1.0000
  C   C380      1.0  0.27210  0.84939  0.38126  1.0000
  H   H611      1.0  0.18181  0.89567  0.02026  1.0000
  H   H612      1.0  0.15489  0.92306  0.00948  1.0000
  N   N40       1.0  0.28133  0.83351  0.39128  1.0000
  H   H613      1.0  0.25152  0.87435  0.01257  1.0000
  H   H614      1.0  0.29315  0.82027  0.43464  1.0000
  C   C381      1.0  0.24593  0.82394  0.29003  1.0000
  C   C382      1.0  0.20847  0.96604  0.06919  1.0000
  H   H615      1.0  0.24486  0.88509  0.06847  1.0000
  H   H616      1.0  0.26851  0.85083  0.35456  1.0000
  H   H617      1.0  0.15039  0.83940  0.00414  1.0000
  C   C383      1.0  0.18442  0.98339  0.08890  1.0000
  H   H618      1.0  0.17711  0.97616  0.08164  1.0000
  H   H619      1.0  0.19118  0.98163  0.01840  1.0000
  N   N41       1.0  0.20007  0.98255  0.06557  1.0000
  H   H620      1.0  0.18108  0.82095  0.20603  1.0000
  H   H621      1.0  0.18304  0.81986  0.01434  1.0000
  C   C384      1.0  0.13549  0.82923  0.86408  1.0000
  H   H622      1.0  0.16250  0.94229  0.85230  1.0000
  Fe  Fe78      1.0  0.16535  0.85047  0.87098  1.0000
  H   H623      1.0  0.13181  0.85197  0.83027  1.0000
  H   H624      1.0  0.19692  0.91129  0.96866  1.0000
  S   S155      1.0  0.14743  0.83408  0.89017  1.0000
  C   C385      1.0  0.23509  0.83048  0.73879  1.0000
  N   N42       1.0  0.17245  0.90985  0.97425  1.0000
  H   H625      1.0  0.16880  0.84148  0.97535  1.0000
  H   H626      1.0  0.15262  0.83851  0.95748  1.0000
  H   H627      1.0  0.17868  0.88471  0.98905  1.0000
  C   C386      1.0  0.11762  0.83667  0.82064  1.0000
  C   C387      1.0  0.12881  0.84035  0.83727  1.0000
  H   H628      1.0  0.11217  0.84549  0.80064  1.0000
  H   H629      1.0  0.20729  0.82281  0.81226  1.0000
  C   C388      1.0  0.16128  0.90921  0.95113  1.0000
  C   C389      1.0  0.20569  0.85542  0.97846  1.0000
  Fe  Fe79      1.0  0.19263  0.85288  0.90547  1.0000
  S   S156      1.0  0.20183  0.84166  0.95660  1.0000
  Fe  Fe80      1.0  0.19704  0.85604  0.82452  1.0000
  S   S157      1.0  0.17197  0.86858  0.82239  1.0000
  S   S158      1.0  0.21519  0.85293  0.77442  1.0000
  Fe  Fe81      1.0  0.17657  0.88223  0.86123  1.0000
  S   S159      1.0  0.16833  0.90862  0.85883  1.0000
  S   S160      1.0  0.20192  0.87077  0.86032  1.0000
  S   S161      1.0  0.19016  0.83706  0.86994  1.0000
  H   H630      1.0  0.22173  0.88845  0.96188  1.0000
  S   S162      1.0  0.21435  0.95723  0.84130  1.0000
  C   C390      1.0  0.21261  0.86813  0.95890  1.0000
  H   H631      1.0  0.09289  0.83034  0.90518  1.0000
  H   H632      1.0  0.22573  0.90307  0.70405  1.0000
  H   H633      1.0  0.20543  0.90433  0.70065  1.0000
  C   C391      1.0  0.22283  0.83341  0.76756  1.0000
  C   C392      1.0  0.21610  0.87877  0.97698  1.0000
  S   S163      1.0  0.16757  0.86540  0.90948  1.0000
  H   H634      1.0  0.23963  0.84023  0.72066  1.0000
  C   C393      1.0  0.18115  0.92196  0.85554  1.0000
  C   C394      1.0  0.19728  0.91678  0.85589  1.0000
  C   C395      1.0  0.20723  0.92773  0.85184  1.0000
  C   C396      1.0  0.20113  0.94397  0.84815  1.0000
  C   C397      1.0  0.18491  0.94912  0.84893  1.0000
  C   C398      1.0  0.17499  0.93815  0.85245  1.0000
  H   H635      1.0  0.20211  0.90435  0.85924  1.0000
  H   H636      1.0  0.21975  0.92365  0.85160  1.0000
  H   H637      1.0  0.18006  0.96158  0.84604  1.0000
  H   H638      1.0  0.16530  0.89885  0.93728  1.0000
  C   C399      1.0  0.15879  0.83507  0.98107  1.0000
  H   H639      1.0  0.21563  0.86954  0.92994  1.0000
  N   N43       1.0  0.20957  0.90312  0.75415  1.0000
  C   C400      1.0  0.21457  0.89897  0.71787  1.0000
  C   C401      1.0  0.22193  0.89552  0.77614  1.0000
  C   C402      1.0  0.19472  0.89748  0.77115  1.0000
  C   C403      1.0  0.20703  0.92038  0.75151  1.0000
  H   H640      1.0  0.21663  0.88597  0.71924  1.0000
  H   H641      1.0  0.21862  0.89846  0.80361  1.0000
  H   H642      1.0  0.22394  0.88245  0.77916  1.0000
  H   H643      1.0  0.23338  0.89933  0.76388  1.0000
  H   H644      1.0  0.19081  0.89997  0.79895  1.0000
  H   H645      1.0  0.19614  0.88456  0.77271  1.0000
  H   H646      1.0  0.18496  0.90323  0.75591  1.0000
  H   H647      1.0  0.21804  0.92507  0.73931  1.0000
  H   H648      1.0  0.20299  0.92387  0.77848  1.0000
  H   H649      1.0  0.19784  0.92650  0.73488  1.0000
  H   H650      1.0  0.16540  0.93482  0.97228  1.0000
  C   C404      1.0  0.18808  0.91117  0.95194  1.0000
  C   C405      1.0  0.21692  0.82074  0.79053  1.0000
  C   C406      1.0  0.08182  0.82354  0.97706  1.0000
  H   H651      1.0  0.19264  0.90114  0.93716  1.0000
  H   H652      1.0  0.16011  0.91987  0.92977  1.0000
  C   C407      1.0  0.08543  0.82109  0.91458  1.0000
  C   C408      1.0  0.11323  0.82179  0.83019  1.0000
  H   H653      1.0  0.08874  0.83321  0.97049  1.0000
  H   H654      1.0  0.18753  0.92217  0.93147  1.0000
  H   H655      1.0  0.14931  0.90836  0.96687  1.0000
  Fe  Fe82      1.0  0.20798  0.98340  0.84484  1.0000
  H   H656      1.0  0.06918  0.82900  0.97720  1.0000
  H   H657      1.0  0.07298  0.82689  0.91326  1.0000
  C   C409      1.0  0.16663  0.92368  0.99224  1.0000
  S   S164      1.0  0.34391  0.09091  0.24842  1.0000
  H   H658      1.0  0.33568  0.12441  0.21519  1.0000
  H   H659      1.0  0.34050  0.05337  0.24373  1.0000
  S   S165      1.0  0.38758  0.13910  0.15648  1.0000
  H   H660      1.0  0.42839  0.14350  0.23234  1.0000
  H   H661      1.0  0.42126  0.13708  0.19859  1.0000
  H   H662      1.0  0.37684  0.08857  0.22565  1.0000
  H   H663      1.0  0.33870  0.03022  0.21852  1.0000
  H   H664      1.0  0.39374  0.10717  0.18992  1.0000
  H   H665      1.0  0.33429  0.04292  0.17754  1.0000
  C   C410      1.0  0.37452  0.12655  0.18189  1.0000
  C   C411      1.0  0.35806  0.13141  0.18910  1.0000
  C   C412      1.0  0.34835  0.12075  0.20995  1.0000
  C   C413      1.0  0.35512  0.10522  0.22323  1.0000
  C   C414      1.0  0.37150  0.10051  0.21569  1.0000
  C   C415      1.0  0.38110  0.11108  0.19540  1.0000
  H   H666      1.0  0.35288  0.14327  0.17824  1.0000
  C   C416      1.0  0.42890  0.14482  0.20286  1.0000
  H   H667      1.0  0.44123  0.14026  0.19081  1.0000
  C   C417      1.0  0.32895  0.03772  0.20504  1.0000
  C   C418      1.0  0.33083  0.06016  0.22914  1.0000
  H   H668      1.0  0.32920  0.07917  0.46322  1.0000
  H   H669      1.0  0.33633  0.06604  0.20250  1.0000
  H   H670      1.0  0.33722  0.12719  0.48867  1.0000
  H   H671      1.0  0.34008  0.10603  0.49697  1.0000
  H   H672      1.0  0.36710  0.10475  0.50864  1.0000
  C   C419      1.0  0.33672  0.14487  0.67578  1.0000
  N   N44       1.0  0.35852  0.12297  0.86785  1.0000
  S   S166      1.0  0.36430  0.13386  0.75348  1.0000
  C   C420      1.0  0.35243  0.13466  0.89200  1.0000
  H   H673      1.0  0.37203  0.13812  0.82880  1.0000
  H   H674      1.0  0.33329  0.10644  0.70329  1.0000
  C   C421      1.0  0.34699  0.12397  0.84425  1.0000
  C   C422      1.0  0.33626  0.11665  0.51001  1.0000
  H   H675      1.0  0.34635  0.12963  0.57741  1.0000
  H   H676      1.0  0.35136  0.11553  0.82515  1.0000
  H   H677      1.0  0.32720  0.13094  0.56738  1.0000
  H   H678      1.0  0.34995  0.10414  0.90676  1.0000
  H   H679      1.0  0.37858  0.11776  0.82674  1.0000
  H   H680      1.0  0.35050  0.14687  0.87652  1.0000
  C   C423      1.0  0.35157  0.13294  0.72425  1.0000
  H   H681      1.0  0.33148  0.10175  0.57803  1.0000
  N   N45       1.0  0.34565  0.11593  0.53807  1.0000
  H   H682      1.0  0.35077  0.10839  0.74445  1.0000
  C   C424      1.0  0.36110  0.10701  0.88952  1.0000
  H   H683      1.0  0.38410  0.15066  0.95295  1.0000
  C   C425      1.0  0.33688  0.11749  0.70212  1.0000
  C   C426      1.0  0.37363  0.12624  0.84557  1.0000
  H   H684      1.0  0.34479  0.13589  0.82748  1.0000
  H   H685      1.0  0.33544  0.12150  0.85998  1.0000
  C   C427      1.0  0.36244  0.11531  0.52164  1.0000
  H   H686      1.0  0.36414  0.12587  0.50072  1.0000
  H   H687      1.0  0.36092  0.13433  0.90997  1.0000
  H   H688      1.0  0.34122  0.14103  0.53557  1.0000
  C   C428      1.0  0.34677  0.11865  0.72547  1.0000
  C   C429      1.0  0.33990  0.13002  0.55522  1.0000
  H   H689      1.0  0.36981  0.10589  0.90748  1.0000
  H   H690      1.0  0.34101  0.13264  0.90920  1.0000
  H   H691      1.0  0.38259  0.12591  0.86234  1.0000
  H   H692      1.0  0.36982  0.11474  0.54218  1.0000
  C   C430      1.0  0.33194  0.13059  0.67692  1.0000
  H   H693      1.0  0.35071  0.10077  0.58751  1.0000
  C   C431      1.0  0.34400  0.10167  0.56551  1.0000
  H   H694      1.0  0.36571  0.09793  0.87203  1.0000
  C   C432      1.0  0.34636  0.14609  0.69950  1.0000
  H   H695      1.0  0.34808  0.09075  0.55363  1.0000
  H   H696      1.0  0.47562  0.24912  0.43140  1.0000
  H   H697      1.0  0.37801  0.29024  0.23861  1.0000
  H   H698      1.0  0.39036  0.27507  0.18881  1.0000
  S   S167      1.0  0.45453  0.27757  0.30764  1.0000
  C   C433      1.0  0.45331  0.26007  0.41473  1.0000
  C   C434      1.0  0.52392  0.25115  0.38892  1.0000
  S   S168      1.0  0.35907  0.17408  0.10121  1.0000
  Fe  Fe83      1.0  0.38799  0.19616  0.12811  1.0000
  S   S169      1.0  0.36852  0.20882  0.09742  1.0000
  S   S170      1.0  0.40714  0.20758  0.13870  1.0000
  Fe  Fe84      1.0  0.35382  0.19264  0.13538  1.0000
  H   H699      1.0  0.53886  0.26217  0.45213  1.0000
  Fe  Fe85      1.0  0.37517  0.18946  0.06443  1.0000
  H   H700      1.0  0.57331  0.29882  0.44565  1.0000
  S   S171      1.0  0.37242  0.18169  0.16930  1.0000
  S   S172      1.0  0.39599  0.17797  0.09193  1.0000
  C   C435      1.0  0.50386  0.29466  0.16983  1.0000
  H   H701      1.0  0.51922  0.28258  0.37415  1.0000
  S   S173      1.0  0.44339  0.30340  0.22011  1.0000
  S   S174      1.0  0.41993  0.27349  0.29556  1.0000
  C   C436      1.0  0.39967  0.21999  0.23800  1.0000
  H   H702      1.0  0.38777  0.20833  0.21052  1.0000
  C   C437      1.0  0.41243  0.22755  0.23586  1.0000
  Fe  Fe86      1.0  0.44155  0.28153  0.26168  1.0000
  H   H703      1.0  0.51437  0.25631  0.37266  1.0000
  C   C438      1.0  0.34277  0.21927  0.18631  1.0000
  C   C439      1.0  0.40851  0.21550  0.17636  1.0000
  C   C440      1.0  0.42126  0.22304  0.17425  1.0000
  C   C441      1.0  0.42317  0.22912  0.20369  1.0000
  H   H704      1.0  0.46976  0.28027  0.18826  1.0000
  C   C442      1.0  0.39766  0.21407  0.20842  1.0000
  H   H705      1.0  0.42974  0.22422  0.14960  1.0000
  H   H706      1.0  0.43301  0.23493  0.20154  1.0000
  C   C443      1.0  0.43513  0.27575  0.45525  1.0000
  S   S175      1.0  0.42444  0.27387  0.39501  1.0000
  S   S176      1.0  0.45233  0.25813  0.24505  1.0000
  Fe  Fe87      1.0  0.43141  0.24951  0.28223  1.0000
  H   H707      1.0  0.39128  0.21868  0.26277  1.0000
  H   H708      1.0  0.36402  0.28235  0.27511  1.0000
  H   H709      1.0  0.50777  0.26952  0.22238  1.0000
  N   N46       1.0  0.63908  0.28033  0.21237  1.0000
  Fe  Fe88      1.0  0.46402  0.25362  0.29393  1.0000
  H   H710      1.0  0.35339  0.23524  0.20428  1.0000
  H   H711      1.0  0.35389  0.21346  0.17323  1.0000
  S   S177      1.0  0.44416  0.24264  0.33008  1.0000
  H   H712      1.0  0.33371  0.24757  0.01289  1.0000
  C   C444      1.0  0.34251  0.23153  0.20414  1.0000
  C   C445      1.0  0.46093  0.26293  0.46978  1.0000
  H   H713      1.0  0.48716  0.27577  0.30212  1.0000
  H   H714      1.0  0.53517  0.24894  0.36974  1.0000
  H   H715      1.0  0.36702  0.24524  0.24147  1.0000
  H   H716      1.0  0.42382  0.28316  0.46203  1.0000
  H   H717      1.0  0.63201  0.26606  0.18205  1.0000
  C   C446      1.0  0.49849  0.27002  0.20633  1.0000
  H   H718      1.0  0.47499  0.28842  0.24175  1.0000
  S   S178      1.0  0.41408  0.23512  0.27381  1.0000
  H   H719      1.0  0.64835  0.17257  0.22110  1.0000
  H   H720      1.0  0.45610  0.25523  0.39023  1.0000
  C   C447      1.0  0.64910  0.28806  0.18096  1.0000
  H   H721      1.0  0.35742  0.25619  0.27636  1.0000
  H   H722      1.0  0.55907  0.31537  0.45876  1.0000
  H   H723      1.0  0.37815  0.24776  0.27316  1.0000
  N   N47       1.0  0.37261  0.26833  0.23354  1.0000
  C   C448      1.0  0.38730  0.26444  0.20799  1.0000
  C   C449      1.0  0.36864  0.25374  0.25724  1.0000
  C   C450      1.0  0.35960  0.27598  0.21341  1.0000
  C   C451      1.0  0.37491  0.27913  0.25560  1.0000
  H   H724      1.0  0.62403  0.28604  0.26106  1.0000
  H   H725      1.0  0.65833  0.17410  0.25601  1.0000
  C   C452      1.0  0.32863  0.21504  0.18429  1.0000
  H   H726      1.0  0.47813  0.30683  0.21439  1.0000
  C   C453      1.0  0.61851  0.31073  0.34975  1.0000
  H   H727      1.0  0.38461  0.27364  0.27130  1.0000
  C   C454      1.0  0.62677  0.27485  0.20006  1.0000
  H   H728      1.0  0.34833  0.27910  0.23190  1.0000
  H   H729      1.0  0.38626  0.25571  0.19205  1.0000
  H   H730      1.0  0.33057  0.26074  0.04430  1.0000
  H   H731      1.0  0.49973  0.27001  0.42262  1.0000
  Fe  Fe89      1.0  0.43407  0.26714  0.34043  1.0000
  C   C455      1.0  0.46438  0.25667  0.43802  1.0000
  C   C456      1.0  0.43860  0.26951  0.42349  1.0000
  H   H732      1.0  0.36215  0.28701  0.19511  1.0000
  H   H733      1.0  0.49301  0.29516  0.23956  1.0000
  H   H734      1.0  0.42086  0.17488  0.13441  1.0000
  H   H735      1.0  0.35740  0.26806  0.19685  1.0000
  C   C457      1.0  0.61691  0.26583  0.46042  1.0000
  H   H736      1.0  0.39746  0.25926  0.22232  1.0000
  C   C458      1.0  0.58515  0.26924  0.49245  1.0000
  H   H737      1.0  0.51323  0.29480  0.18511  1.0000
  C   C459      1.0  0.42445  0.16248  0.14762  1.0000
  H   H738      1.0  0.38210  0.16525  0.00250  1.0000
  H   H739      1.0  0.49891  0.30710  0.15931  1.0000
  S   S179      1.0  0.49015  0.24325  0.29312  1.0000
  H   H740      1.0  0.60830  0.31556  0.44779  1.0000
  C   C460      1.0  0.50964  0.26449  0.43759  1.0000
  H   H741      1.0  0.54923  0.25198  0.41640  1.0000
  H   H742      1.0  0.58613  0.31643  0.39483  1.0000
  H   H743      1.0  0.33997  0.21729  0.06649  1.0000
  H   H744      1.0  0.50663  0.25330  0.45436  1.0000
  H   H745      1.0  0.64998  0.19155  0.22780  1.0000
  Fe  Fe90      1.0  0.37911  0.16429  0.13187  1.0000
  H   H746      1.0  0.53531  0.24302  0.45131  1.0000
  H   H747      1.0  0.60200  0.29905  0.43858  1.0000
  H   H748      1.0  0.43355  0.17100  0.22172  1.0000
  H   H749      1.0  0.40297  0.17930  0.19173  1.0000
  H   H750      1.0  0.50401  0.26341  0.18403  1.0000
  H   H751      1.0  0.33516  0.23522  0.11092  1.0000
  H   H752      1.0  0.33651  0.15388  0.23574  1.0000
  N   N48       1.0  0.49144  0.28643  0.19279  1.0000
  S   S180      1.0  0.57549  0.25466  0.34021  1.0000
  C   C461      1.0  0.53759  0.25438  0.43415  1.0000
  Fe  Fe91      1.0  0.59870  0.25820  0.30457  1.0000
  S   S181      1.0  0.61903  0.23914  0.28825  1.0000
  H   H753      1.0  0.62368  0.30190  0.22352  1.0000
  C   C462      1.0  0.49942  0.27033  0.29990  1.0000
  S   S182      1.0  0.64309  0.22639  0.12891  1.0000
  H   H754      1.0  0.61890  0.26914  0.22321  1.0000
  C   C463      1.0  0.43398  0.17138  0.19257  1.0000
  S   S183      1.0  0.57003  0.29247  0.34385  1.0000
  H   H755      1.0  0.61240  0.30096  0.36073  1.0000
  H   H756      1.0  0.50986  0.27236  0.45637  1.0000
  C   C464      1.0  0.63150  0.29162  0.23681  1.0000
  H   H757      1.0  0.60905  0.26176  0.41456  1.0000
  H   H758      1.0  0.41650  0.15538  0.14214  1.0000
  H   H759      1.0  0.43026  0.18394  0.18039  1.0000
  H   H760      1.0  0.33005  0.16896  0.19993  1.0000
  C   C465      1.0  0.62764  0.31516  0.37043  1.0000
  H   H761      1.0  0.47339  0.29866  0.16171  1.0000
  C   C466      1.0  0.64122  0.22978  0.23280  1.0000
  H   H762      1.0  0.53989  0.27515  0.37284  1.0000
  H   H763      1.0  0.50964  0.28883  0.14639  1.0000
  S   S184      1.0  0.54054  0.28477  0.29501  1.0000
  S   S185      1.0  0.58830  0.28009  0.26942  1.0000
  C   C467      1.0  0.62526  0.23582  0.24378  1.0000
  C   C468      1.0  0.61482  0.23905  0.21932  1.0000
  C   C469      1.0  0.59878  0.30843  0.45535  1.0000
  S   S186      1.0  0.37386  0.19896  0.00519  1.0000
  H   H764      1.0  0.60244  0.24356  0.22771  1.0000
  H   H765      1.0  0.52895  0.28522  0.40847  1.0000
  C   C470      1.0  0.52834  0.27685  0.39124  1.0000
  C   C471      1.0  0.58956  0.26625  0.45730  1.0000
  N   N49       1.0  0.52486  0.26172  0.41300  1.0000
  C   C472      1.0  0.48413  0.29458  0.22346  1.0000
  C   C473      1.0  0.52685  0.27253  0.29692  1.0000
  C   C474      1.0  0.51078  0.27932  0.29971  1.0000
  C   C475      1.0  0.40726  0.16683  0.20335  1.0000
  C   C476      1.0  0.50401  0.25449  0.29654  1.0000
  C   C477      1.0  0.52008  0.24761  0.29424  1.0000
  C   C478      1.0  0.53147  0.25656  0.29459  1.0000
  H   H766      1.0  0.50708  0.29165  0.30166  1.0000
  C   C479      1.0  0.63643  0.23030  0.17294  1.0000
  H   H767      1.0  0.52378  0.23535  0.29158  1.0000
  H   H768      1.0  0.54383  0.25121  0.29217  1.0000
  H   H769      1.0  0.41450  0.31056  0.27148  1.0000
  C   C480      1.0  0.62038  0.23609  0.18408  1.0000
  Fe  Fe92      1.0  0.58157  0.26971  0.37339  1.0000
  H   H770      1.0  0.62920  0.26452  0.44788  1.0000
  Fe  Fe93      1.0  0.56546  0.27760  0.30792  1.0000
  S   S187      1.0  0.32882  0.20069  0.15946  1.0000
  S   S188      1.0  0.57479  0.26563  0.43358  1.0000
  S   S189      1.0  0.60554  0.27130  0.34102  1.0000
  H   H771      1.0  0.64031  0.29626  0.24647  1.0000
  H   H772      1.0  0.64204  0.29839  0.16582  1.0000
  Fe  Fe94      1.0  0.59364  0.29291  0.30866  1.0000
  C   C481      1.0  0.60549  0.26440  0.44139  1.0000
  H   H773      1.0  0.61224  0.23831  0.16535  1.0000
  C   C482      1.0  0.64888  0.26674  0.23174  1.0000
  N   N50       1.0  0.42367  0.16137  0.18663  1.0000
  C   C483      1.0  0.64684  0.22736  0.19733  1.0000
  H   H774      1.0  0.64932  0.22722  0.25169  1.0000
  C   C484      1.0  0.44636  0.27268  0.47799  1.0000
  H   H775      1.0  0.62863  0.30865  0.39716  1.0000
  H   H776      1.0  0.52141  0.23957  0.40434  1.0000
  C   C485      1.0  0.47925  0.28646  0.17164  1.0000
  H   H777      1.0  0.48430  0.28053  0.14807  1.0000
  H   H778      1.0  0.64162  0.26062  0.25555  1.0000
  H   H779      1.0  0.40322  0.30426  0.41803  1.0000
  H   H780      1.0  0.48945  0.26351  0.22407  1.0000
  C   C486      1.0  0.33380  0.24813  0.04135  1.0000
  H   H781      1.0  0.43217  0.30381  0.40205  1.0000
  C   C487      1.0  0.42951  0.31688  0.39830  1.0000
  H   H782      1.0  0.65473  0.25793  0.21413  1.0000
  H   H783      1.0  0.33378  0.17427  0.27368  1.0000
  H   H784      1.0  0.32775  0.18899  0.23713  1.0000
  H   H785      1.0  0.43660  0.15820  0.13410  1.0000
  H   H786      1.0  0.41709  0.30499  0.35476  1.0000
  H   H787      1.0  0.44647  0.16764  0.18027  1.0000
  H   H788      1.0  0.61917  0.28475  0.18515  1.0000
  H   H789      1.0  0.34615  0.24383  0.04630  1.0000
  N   N51       1.0  0.58325  0.31825  0.45056  1.0000
  H   H790      1.0  0.39914  0.15959  0.19913  1.0000
  C   C488      1.0  0.57097  0.30834  0.46185  1.0000
  H   H791      1.0  0.40618  0.16616  0.23280  1.0000
  C   C489      1.0  0.41465  0.31806  0.35165  1.0000
  H   H792      1.0  0.65494  0.27982  0.16195  1.0000
  S   S190      1.0  0.60517  0.31441  0.28896  1.0000
  H   H793      1.0  0.59883  0.30255  0.48376  1.0000
  H   H794      1.0  0.65854  0.29233  0.18924  1.0000
  C   C490      1.0  0.65637  0.17918  0.22802  1.0000
  H   H795      1.0  0.65823  0.27044  0.24161  1.0000
  C   C491      1.0  0.32810  0.23961  0.21965  1.0000
  C   C492      1.0  0.40142  0.31736  0.41310  1.0000
  C   C493      1.0  0.32764  0.22206  0.06206  1.0000
  H   H796      1.0  0.57040  0.30265  0.49068  1.0000
  C   C494      1.0  0.61716  0.31909  0.31513  1.0000
  H   H797      1.0  0.65917  0.22303  0.18906  1.0000
  C   C495      1.0  0.61239  0.26943  0.49510  1.0000
  S   S191      1.0  0.32746  0.25678  0.23552  1.0000
  H   H798      1.0  0.32708  0.22059  0.03448  1.0000
  C   C496      1.0  0.40904  0.18594  0.84738  1.0000
  H   H799      1.0  0.38643  0.21143  0.83598  1.0000
  H   H800      1.0  0.39916  0.18349  0.83693  1.0000
  Fe  Fe95      1.0  0.44949  0.26659  0.62586  1.0000
  N   N52       1.0  0.41126  0.20242  0.83457  1.0000
  H   H801      1.0  0.41900  0.23437  0.51940  1.0000
  H   H802      1.0  0.40544  0.20363  0.78259  1.0000
  Fe  Fe96      1.0  0.37452  0.17073  0.82293  1.0000
  S   S192      1.0  0.37516  0.19486  0.79008  1.0000
  H   H803      1.0  0.48314  0.30031  0.67439  1.0000
  S   S193      1.0  0.60394  0.31081  0.54964  1.0000
  S   S194      1.0  0.36987  0.18018  0.72113  1.0000
  Fe  Fe97      1.0  0.39008  0.18258  0.74591  1.0000
  S   S195      1.0  0.41374  0.18864  0.71609  1.0000
  Fe  Fe98      1.0  0.35504  0.19087  0.76765  1.0000
  C   C497      1.0  0.65286  0.23023  0.69242  1.0000
  S   S196      1.0  0.47480  0.25798  0.49914  1.0000
  H   H804      1.0  0.64661  0.22567  0.75011  1.0000
  Fe  Fe99      1.0  0.46863  0.26844  0.54997  1.0000
  C   C498      1.0  0.33243  0.22365  0.78295  1.0000
  S   S197      1.0  0.47327  0.25372  0.60327  1.0000
  C   C499      1.0  0.48309  0.31679  0.60782  1.0000
  H   H805      1.0  0.61383  0.24640  0.61608  1.0000
  C   C500      1.0  0.41507  0.20546  0.79486  1.0000
  N   N53       1.0  0.42810  0.23820  0.56375  1.0000
  H   H806      1.0  0.40621  0.18319  0.87726  1.0000
  C   C501      1.0  0.42456  0.23867  0.67788  1.0000
  H   H807      1.0  0.40009  0.24652  0.69897  1.0000
  H   H808      1.0  0.41977  0.17746  0.83852  1.0000
  C   C502      1.0  0.33203  0.24959  0.81390  1.0000
  C   C503      1.0  0.41753  0.20803  0.70144  1.0000
  C   C504      1.0  0.40576  0.22118  0.70660  1.0000
  H   H809      1.0  0.64695  0.27794  0.77450  1.0000
  S   S198      1.0  0.42808  0.25813  0.66266  1.0000
  H   H810      1.0  0.64154  0.24104  0.58779  1.0000
  C   C505      1.0  0.43283  0.21027  0.68459  1.0000
  H   H811      1.0  0.39393  0.21962  0.71949  1.0000
  H   H812      1.0  0.44203  0.20014  0.68075  1.0000
  S   S199      1.0  0.45944  0.28610  0.63717  1.0000
  C   C506      1.0  0.34623  0.22967  0.77870  1.0000
  H   H813      1.0  0.61796  0.22589  0.53927  1.0000
  H   H814      1.0  0.35692  0.22468  0.76246  1.0000
  S   S200      1.0  0.59413  0.31078  0.63582  1.0000
  H   H815      1.0  0.35668  0.24739  0.79079  1.0000
  H   H816      1.0  0.44994  0.24672  0.55267  1.0000
  H   H817      1.0  0.43785  0.22242  0.52609  1.0000
  C   C507      1.0  0.43043  0.23427  0.52745  1.0000
  H   H818      1.0  0.41692  0.21775  0.78407  1.0000
  C   C508      1.0  0.37681  0.17131  0.91487  1.0000
  C   C509      1.0  0.37202  0.18766  0.90957  1.0000
  S   S201      1.0  0.48012  0.28796  0.55481  1.0000
  H   H819      1.0  0.36899  0.19394  0.88398  1.0000
  H   H820      1.0  0.47816  0.31687  0.69730  1.0000
  H   H821      1.0  0.42592  0.19741  0.78469  1.0000
  S   S202      1.0  0.35290  0.16802  0.80466  1.0000
  N   N54       1.0  0.62447  0.22677  0.58929  1.0000
  H   H822      1.0  0.42353  0.26311  0.54413  1.0000
  C   C510      1.0  0.34606  0.24258  0.79443  1.0000
  C   C511      1.0  0.38037  0.16330  0.94858  1.0000
  H   H823      1.0  0.65319  0.29140  0.67548  1.0000
  Fe  Fe100     1.0  0.48291  0.27445  0.60979  1.0000
  C   C512      1.0  0.64861  0.28553  0.70298  1.0000
  C   C513      1.0  0.44357  0.23822  0.57276  1.0000
  C   C514      1.0  0.43636  0.22552  0.67288  1.0000
  Fe  Fe101     1.0  0.45605  0.29823  0.58152  1.0000
  S   S203      1.0  0.44430  0.27988  0.57204  1.0000
  H   H824      1.0  0.42773  0.21444  0.59189  1.0000
  H   H825      1.0  0.46450  0.31338  0.67256  1.0000
  C   C515      1.0  0.42027  0.22640  0.59041  1.0000
  H   H826      1.0  0.44223  0.24163  0.59947  1.0000
  C   C516      1.0  0.40929  0.23641  0.69495  1.0000
  C   C517      1.0  0.41813  0.25396  0.56442  1.0000
  H   H827      1.0  0.43558  0.19718  0.84109  1.0000
  H   H828      1.0  0.42634  0.21745  0.84050  1.0000
  Fe  Fe102     1.0  0.36910  0.15731  0.75985  1.0000
  H   H829      1.0  0.44822  0.22707  0.66027  1.0000
  C   C518      1.0  0.42434  0.20511  0.84959  1.0000
  H   H830      1.0  0.39780  0.22573  0.83716  1.0000
  H   H831      1.0  0.39342  0.21124  0.87641  1.0000
  H   H832      1.0  0.42183  0.20291  0.87954  1.0000
  C   C519      1.0  0.39661  0.21318  0.84654  1.0000
  C   C520      1.0  0.37110  0.19591  0.93759  1.0000
  H   H833      1.0  0.36743  0.20857  0.93325  1.0000
  S   S204      1.0  0.56026  0.31146  0.57418  1.0000
  H   H834      1.0  0.37157  0.30726  0.71077  1.0000
  C   C521      1.0  0.63886  0.23321  0.57176  1.0000
  S   S205      1.0  0.39084  0.15855  0.78026  1.0000
  H   H835      1.0  0.43649  0.24286  0.50676  1.0000
  H   H836      1.0  0.40623  0.25433  0.55850  1.0000
  S   S206      1.0  0.33170  0.26634  0.83122  1.0000
  H   H837      1.0  0.63488  0.31753  0.65033  1.0000
  H   H838      1.0  0.65024  0.30243  0.50613  1.0000
  H   H839      1.0  0.60011  0.23553  0.60925  1.0000
  H   H840      1.0  0.44065  0.31791  0.64156  1.0000
  C   C522      1.0  0.59648  0.27108  0.51106  1.0000
  H   H841      1.0  0.41782  0.22937  0.61784  1.0000
  S   S207      1.0  0.50482  0.27215  0.63427  1.0000
  C   C523      1.0  0.62633  0.25457  0.69421  1.0000
  H   H842      1.0  0.62317  0.24722  0.75171  1.0000
  C   C524      1.0  0.64365  0.23303  0.72536  1.0000
  S   S208      1.0  0.62863  0.29046  0.60188  1.0000
  H   H843      1.0  0.40878  0.22569  0.58384  1.0000
  H   H844      1.0  0.63731  0.20620  0.61878  1.0000
  Fe  Fe103     1.0  0.60721  0.28566  0.64243  1.0000
  H   H845      1.0  0.41651  0.25745  0.59124  1.0000
  H   H846      1.0  0.64935  0.22371  0.56800  1.0000
  H   H847      1.0  0.60923  0.24840  0.57201  1.0000
  C   C525      1.0  0.37926  0.17154  0.97674  1.0000
  Fe  Fe104     1.0  0.58403  0.30410  0.59312  1.0000
  H   H848      1.0  0.48865  0.30418  0.60925  1.0000
  H   H849      1.0  0.34999  0.15714  0.69822  1.0000
  S   S209      1.0  0.59517  0.27866  0.60428  1.0000
  C   C526      1.0  0.61132  0.23983  0.59697  1.0000
  C   C527      1.0  0.63561  0.25177  0.66135  1.0000
  H   H850      1.0  0.63752  0.24040  0.54480  1.0000
  H   H851      1.0  0.63018  0.22238  0.64246  1.0000
  C   C528      1.0  0.62728  0.21609  0.62333  1.0000
  H   H852      1.0  0.61668  0.21094  0.63713  1.0000
  H   H853      1.0  0.63262  0.25896  0.63662  1.0000
  S   S210      1.0  0.62656  0.27247  0.51768  1.0000
  H   H854      1.0  0.45133  0.22645  0.57345  1.0000
  C   C529      1.0  0.52083  0.28214  0.61508  1.0000
  C   C530      1.0  0.52087  0.29303  0.58291  1.0000
  C   C531      1.0  0.53308  0.30184  0.57053  1.0000
  C   C532      1.0  0.54560  0.29954  0.58956  1.0000
  C   C533      1.0  0.54583  0.28829  0.62104  1.0000
  C   C534      1.0  0.53344  0.27975  0.63385  1.0000
  H   H855      1.0  0.51145  0.29480  0.56773  1.0000
  H   H856      1.0  0.63012  0.20822  0.55821  1.0000
  H   H857      1.0  0.55536  0.28644  0.63603  1.0000
  H   H858      1.0  0.53354  0.27136  0.65873  1.0000
  H   H859      1.0  0.57285  0.27064  0.50500  1.0000
  C   C535      1.0  0.37471  0.18792  0.97131  1.0000
  H   H860      1.0  0.59275  0.27398  0.53755  1.0000
  C   C536      1.0  0.62036  0.21804  0.56499  1.0000
  H   H861      1.0  0.47056  0.31779  0.60542  1.0000
  S   S211      1.0  0.61034  0.27039  0.69595  1.0000
  C   C537      1.0  0.64885  0.23964  0.66049  1.0000
  Fe  Fe105     1.0  0.61541  0.28572  0.56289  1.0000
  H   H862      1.0  0.60960  0.21293  0.57739  1.0000
  C   C538      1.0  0.63034  0.24513  0.72621  1.0000
  H   H863      1.0  0.65616  0.23761  0.63514  1.0000
  S   S212      1.0  0.33248  0.20791  0.76235  1.0000
  H   H864      1.0  0.50770  0.30943  0.64395  1.0000
  H   H865      1.0  0.35638  0.31884  0.73814  1.0000
  H   H866      1.0  0.53285  0.31045  0.54605  1.0000
  H   H867      1.0  0.64117  0.27742  0.69996  1.0000
  Fe  Fe106     1.0  0.61512  0.31509  0.59297  1.0000
  H   H868      1.0  0.64066  0.29472  0.71729  1.0000
  S   S213      1.0  0.37897  0.16045  0.87994  1.0000
  C   C539      1.0  0.47722  0.31291  0.67251  1.0000
  H   H869      1.0  0.37676  0.31758  0.74066  1.0000
  C   C540      1.0  0.36848  0.31836  0.72193  1.0000
  H   H870      1.0  0.44372  0.27791  0.50177  1.0000
  C   C541      1.0  0.65618  0.31009  0.51625  1.0000
  H   H871      1.0  0.64847  0.31346  0.54113  1.0000
  H   H872      1.0  0.33296  0.15508  0.65641  1.0000
  H   H873      1.0  0.64791  0.26050  0.75691  1.0000
  C   C542      1.0  0.65491  0.26928  0.75869  1.0000
  Fe  Fe107     1.0  0.36844  0.36372  0.37641  1.0000
  S   S214      1.0  0.37867  0.38336  0.33902  1.0000
  S   S215      1.0  0.37476  0.35352  0.43119  1.0000
  Fe  Fe108     1.0  0.34832  0.36012  0.32404  1.0000
  S   S216      1.0  0.35658  0.37996  0.28230  1.0000
  Fe  Fe109     1.0  0.38057  0.36910  0.29625  1.0000
  S   S217      1.0  0.40226  0.36861  0.25350  1.0000
  Fe  Fe110     1.0  0.35407  0.39277  0.32840  1.0000
  S   S218      1.0  0.34323  0.41865  0.32746  1.0000
  S   S219      1.0  0.37265  0.34849  0.33473  1.0000
  S   S220      1.0  0.38356  0.47214  0.31086  1.0000
  H   H874      1.0  0.43029  0.36062  0.20404  1.0000
  C   C543      1.0  0.41319  0.35015  0.24508  1.0000
  C   C544      1.0  0.38349  0.39230  0.45805  1.0000
  C   C545      1.0  0.38247  0.38111  0.43815  1.0000
  C   C546      1.0  0.37678  0.36739  0.45562  1.0000
  C   C547      1.0  0.63463  0.33594  0.32166  1.0000
  H   H875      1.0  0.38786  0.40291  0.44440  1.0000
  H   H876      1.0  0.38618  0.38308  0.40937  1.0000
  H   H877      1.0  0.64065  0.34579  0.31083  1.0000
  C   C548      1.0  0.35453  0.43320  0.32548  1.0000
  C   C549      1.0  0.37093  0.42952  0.32304  1.0000
  C   C550      1.0  0.37964  0.44154  0.31906  1.0000
  C   C551      1.0  0.37203  0.45727  0.31872  1.0000
  C   C552      1.0  0.35557  0.46086  0.32260  1.0000
  C   C553      1.0  0.34689  0.44889  0.32556  1.0000
  H   H878      1.0  0.37695  0.41749  0.32353  1.0000
  H   H879      1.0  0.39237  0.43866  0.31633  1.0000
  H   H880      1.0  0.34957  0.47294  0.32210  1.0000
  C   C554      1.0  0.58367  0.32552  0.41225  1.0000
  H   H881      1.0  0.36222  0.46054  0.48775  1.0000
  C   C555      1.0  0.42679  0.34975  0.21885  1.0000
  C   C556      1.0  0.33622  0.43121  0.41780  1.0000
  C   C557      1.0  0.57961  0.33065  0.47288  1.0000
  H   H882      1.0  0.39798  0.33620  0.28335  1.0000
  C   C558      1.0  0.34595  0.41667  0.47157  1.0000
  H   H883      1.0  0.42396  0.32253  0.33010  1.0000
  H   H884      1.0  0.34137  0.40243  0.40021  1.0000
  C   C559      1.0  0.41801  0.32147  0.25701  1.0000
  C   C560      1.0  0.62534  0.33163  0.30110  1.0000
  H   H885      1.0  0.64575  0.34387  0.45860  1.0000
  H   H886      1.0  0.38972  0.32198  0.40451  1.0000
  C   C561      1.0  0.43160  0.32116  0.23060  1.0000
  H   H887      1.0  0.42087  0.34547  0.35980  1.0000
  N   N55       1.0  0.38512  0.41649  0.22040  1.0000
  C   C562      1.0  0.38442  0.40348  0.20264  1.0000
  C   C563      1.0  0.39221  0.42876  0.19369  1.0000
  C   C564      1.0  0.39488  0.41039  0.24890  1.0000
  C   C565      1.0  0.36900  0.42333  0.23645  1.0000
  H   H888      1.0  0.37893  0.39414  0.22202  1.0000
  H   H889      1.0  0.39643  0.39768  0.19125  1.0000
  H   H890      1.0  0.37739  0.40762  0.18054  1.0000
  H   H891      1.0  0.39295  0.43871  0.20639  1.0000
  H   H892      1.0  0.40438  0.42397  0.18107  1.0000
  H   H893      1.0  0.38511  0.43369  0.17185  1.0000
  H   H894      1.0  0.40702  0.40475  0.23796  1.0000
  H   H895      1.0  0.38977  0.40124  0.26966  1.0000
  H   H896      1.0  0.39588  0.41989  0.26263  1.0000
  H   H897      1.0  0.36901  0.43346  0.24929  1.0000
  H   H898      1.0  0.36347  0.41452  0.25760  1.0000
  H   H899      1.0  0.36113  0.42763  0.21598  1.0000
  H   H900      1.0  0.56804  0.33842  0.46967  1.0000
  C   C566      1.0  0.34732  0.40357  0.42196  1.0000
  C   C567      1.0  0.63562  0.32785  0.35662  1.0000
  H   H901      1.0  0.44627  0.33519  0.19081  1.0000
  C   C568      1.0  0.43586  0.33533  0.21141  1.0000
  N   N56       1.0  0.41425  0.32323  0.38580  1.0000
  S   S221      1.0  0.34350  0.37391  0.36915  1.0000
  C   C569      1.0  0.41141  0.34061  0.38012  1.0000
  H   H902      1.0  0.41071  0.34492  0.40557  1.0000
  H   H903      1.0  0.35796  0.41949  0.46093  1.0000
  S   S222      1.0  0.64580  0.33378  0.38482  1.0000
  C   C570      1.0  0.40870  0.33598  0.26390  1.0000
  H   H904      1.0  0.58879  0.33818  0.46574  1.0000
  H   H905      1.0  0.33420  0.45188  0.32743  1.0000
  S   S223      1.0  0.33323  0.34245  0.32325  1.0000
  H   H906      1.0  0.33924  0.42582  0.48751  1.0000
  H   H907      1.0  0.62434  0.33817  0.27437  1.0000
  C   C571      1.0  0.37239  0.36478  0.49307  1.0000
  H   H908      1.0  0.37432  0.44120  0.49282  1.0000
  H   H909      1.0  0.40004  0.34578  0.37046  1.0000
  H   H910      1.0  0.63791  0.32613  0.46784  1.0000
  H   H911      1.0  0.34913  0.39183  0.43964  1.0000
  H   H912      1.0  0.34793  0.43443  0.40529  1.0000
  H   H913      1.0  0.35913  0.40636  0.40900  1.0000
  H   H914      1.0  0.57225  0.33325  0.40755  1.0000
  H   H915      1.0  0.33014  0.43098  0.39542  1.0000
  C   C572      1.0  0.64395  0.33324  0.47928  1.0000
  H   H916      1.0  0.38541  0.47244  0.48448  1.0000
  H   H917      1.0  0.32928  0.44083  0.43212  1.0000
  H   H918      1.0  0.43942  0.32124  0.37856  1.0000
  N   N57       1.0  0.33791  0.41585  0.44227  1.0000
  H   H919      1.0  0.39763  0.45326  0.48946  1.0000
  H   H920      1.0  0.40063  0.32117  0.43919  1.0000
  H   H921      1.0  0.59310  0.33278  0.40262  1.0000
  H   H922      1.0  0.42949  0.32023  0.42450  1.0000
  H   H923      1.0  0.40316  0.32228  0.34205  1.0000
  H   H924      1.0  0.34742  0.40526  0.49058  1.0000
  C   C573      1.0  0.37877  0.38985  0.49546  1.0000
  N   N58       1.0  0.65910  0.32413  0.48904  1.0000
  H   H925      1.0  0.35665  0.46325  0.56833  1.0000
  C   C574      1.0  0.41561  0.35313  0.64468  1.0000
  C   C575      1.0  0.38974  0.46221  0.50457  1.0000
  Fe  Fe111     1.0  0.35024  0.38537  0.64586  1.0000
  S   S224      1.0  0.36225  0.39241  0.68418  1.0000
  Fe  Fe112     1.0  0.37317  0.39806  0.57977  1.0000
  S   S225      1.0  0.38748  0.40527  0.61313  1.0000
  Fe  Fe113     1.0  0.38462  0.38235  0.65007  1.0000
  Fe  Fe114     1.0  0.36398  0.41483  0.64358  1.0000
  S   S226      1.0  0.35723  0.44022  0.65246  1.0000
  S   S227      1.0  0.37259  0.37425  0.61376  1.0000
  S   S228      1.0  0.34975  0.40867  0.60823  1.0000
  C   C576      1.0  0.38275  0.44211  0.55491  1.0000
  C   C577      1.0  0.42466  0.33855  0.65681  1.0000
  C   C578      1.0  0.64230  0.32635  0.64167  1.0000
  C   C579      1.0  0.39300  0.47300  0.63538  1.0000
  C   C580      1.0  0.37698  0.47911  0.63511  1.0000
  C   C581      1.0  0.36616  0.46892  0.64048  1.0000
  C   C582      1.0  0.37130  0.45254  0.64520  1.0000
  C   C583      1.0  0.38737  0.44643  0.64458  1.0000
  C   C584      1.0  0.39815  0.45663  0.63984  1.0000
  H   H926      1.0  0.35376  0.47374  0.64062  1.0000
  H   H927      1.0  0.39146  0.43383  0.64840  1.0000
  H   H928      1.0  0.41053  0.45179  0.64001  1.0000
  H   H929      1.0  0.32959  0.37683  0.73042  1.0000
  H   H930      1.0  0.37334  0.47245  0.56387  1.0000
  H   H931      1.0  0.36935  0.37414  0.54162  1.0000
  H   H932      1.0  0.39031  0.44546  0.57070  1.0000
  C   C585      1.0  0.47603  0.33921  0.63779  1.0000
  C   C586      1.0  0.36412  0.47537  0.73922  1.0000
  H   H933      1.0  0.38645  0.34152  0.65015  1.0000
  H   H934      1.0  0.35343  0.34755  0.72662  1.0000
  H   H935      1.0  0.64981  0.35650  0.57339  1.0000
  S   S229      1.0  0.37874  0.40471  0.51935  1.0000
  H   H936      1.0  0.36492  0.35743  0.68825  1.0000
  H   H937      1.0  0.42632  0.35380  0.55458  1.0000
  C   C587      1.0  0.43398  0.32927  0.63208  1.0000
  H   H938      1.0  0.48117  0.34687  0.61335  1.0000
  S   S230      1.0  0.62816  0.33554  0.58088  1.0000
  H   H939      1.0  0.57891  0.32547  0.50202  1.0000
  C   C588      1.0  0.36524  0.34667  0.70924  1.0000
  H   H940      1.0  0.39423  0.33076  0.68929  1.0000
  C   C589      1.0  0.36642  0.46793  0.54860  1.0000
  N   N59       1.0  0.36930  0.33228  0.69308  1.0000
  H   H941      1.0  0.63578  0.33726  0.50305  1.0000
  C   C590      1.0  0.37323  0.37605  0.51291  1.0000
  H   H942      1.0  0.38996  0.43237  0.54118  1.0000
  H   H943      1.0  0.35813  0.34353  0.64736  1.0000
  C   C591      1.0  0.64121  0.33670  0.60902  1.0000
  H   H944      1.0  0.37256  0.46754  0.75600  1.0000
  H   H945      1.0  0.40928  0.36979  0.59820  1.0000
  S   S231      1.0  0.40304  0.36410  0.67581  1.0000
  H   H946      1.0  0.42419  0.33431  0.68535  1.0000
  H   H947      1.0  0.35211  0.47283  0.75108  1.0000
  C   C592      1.0  0.35802  0.33299  0.66910  1.0000
  C   C593      1.0  0.65068  0.34832  0.59838  1.0000
  H   H948      1.0  0.34573  0.33379  0.68411  1.0000
  H   H949      1.0  0.37304  0.43725  0.57445  1.0000
  H   H950      1.0  0.36800  0.35418  0.50673  1.0000
  C   C594      1.0  0.41617  0.35854  0.60780  1.0000
  C   C595      1.0  0.42583  0.34947  0.58312  1.0000
  S   S232      1.0  0.40681  0.48537  0.63146  1.0000
  C   C596      1.0  0.36706  0.45053  0.50775  1.0000
  H   H951      1.0  0.39702  0.46638  0.51967  1.0000
  H   H952      1.0  0.46332  0.34024  0.63646  1.0000
  H   H953      1.0  0.36106  0.47816  0.52986  1.0000
  C   C597      1.0  0.43465  0.33478  0.59515  1.0000
  N   N60       1.0  0.37650  0.45570  0.52895  1.0000
  C   C598      1.0  0.65267  0.32776  0.66359  1.0000
  H   H954      1.0  0.38900  0.32044  0.65945  1.0000
  H   H955      1.0  0.37404  0.34703  0.72582  1.0000
  H   H956      1.0  0.36728  0.47186  0.71224  1.0000
  C   C599      1.0  0.38544  0.33115  0.67207  1.0000
  H   H957      1.0  0.47662  0.34408  0.66164  1.0000
  S   S233      1.0  0.33136  0.37021  0.65839  1.0000
  H   H958      1.0  0.35699  0.44554  0.52546  1.0000
  S   S234      1.0  0.44673  0.32386  0.56332  1.0000
  H   H959      1.0  0.36080  0.32242  0.65609  1.0000
  H   H960      1.0  0.48886  0.32346  0.58255  1.0000
  N   N61       1.0  0.48441  0.32271  0.63982  1.0000
  H   H961      1.0  0.50269  0.32667  0.66424  1.0000
  C   C600      1.0  0.50123  0.32182  0.64108  1.0000
  H   H962      1.0  0.50729  0.32845  0.61610  1.0000
  H   H963      1.0  0.65315  0.32005  0.68922  1.0000
  H   H964      1.0  0.65915  0.33804  0.52833  1.0000
  Fe  Fe115     1.0  0.45401  0.60547  0.42227  1.0000
  H   H965      1.0  0.36343  0.56615  0.33015  1.0000
  Fe  Fe116     1.0  0.46073  0.60991  0.34125  1.0000
  S   S235      1.0  0.47713  0.58636  0.34115  1.0000
  S   S236      1.0  0.45602  0.62575  0.28868  1.0000
  Fe  Fe117     1.0  0.45789  0.57781  0.38418  1.0000
  S   S237      1.0  0.44931  0.55487  0.39110  1.0000
  S   S238      1.0  0.44123  0.60084  0.38228  1.0000
  S   S239      1.0  0.47206  0.61693  0.38123  1.0000
  N   N62       1.0  0.33854  0.60163  0.00112  1.0000
  H   H966      1.0  0.36280  0.59779  0.27907  1.0000
  Fe  Fe118     1.0  0.34790  0.52418  0.33558  1.0000
  S   S240      1.0  0.36981  0.51958  0.29486  1.0000
  C   C601      1.0  0.43444  0.64204  0.24609  1.0000
  Fe  Fe119     1.0  0.36525  0.50880  0.39896  1.0000
  S   S241      1.0  0.38839  0.50337  0.36263  1.0000
  S   S242      1.0  0.36506  0.50085  0.45863  1.0000
  Fe  Fe120     1.0  0.38188  0.52773  0.33176  1.0000
  S   S243      1.0  0.39528  0.54812  0.31276  1.0000
  C   C602      1.0  0.60101  0.58056  0.31796  1.0000
  S   S244      1.0  0.35968  0.53361  0.37040  1.0000
  S   S245      1.0  0.35117  0.49968  0.36832  1.0000
  H   H967      1.0  0.35709  0.53496  0.44383  1.0000
  H   H968      1.0  0.37772  0.58046  0.27567  1.0000
  C   C603      1.0  0.36217  0.53145  0.46803  1.0000
  C   C604      1.0  0.43317  0.55348  0.37215  1.0000
  C   C605      1.0  0.42418  0.56677  0.35435  1.0000
  C   C606      1.0  0.41216  0.56504  0.33731  1.0000
  C   C607      1.0  0.40891  0.55008  0.33844  1.0000
  C   C608      1.0  0.41737  0.53691  0.35777  1.0000
  C   C609      1.0  0.42950  0.53862  0.37441  1.0000
  H   H969      1.0  0.42662  0.57833  0.35324  1.0000
  H   H970      1.0  0.40545  0.57529  0.32294  1.0000
  H   H971      1.0  0.41494  0.52533  0.35888  1.0000
  H   H972      1.0  0.43628  0.52829  0.38844  1.0000
  H   H973      1.0  0.42422  0.57435  0.43325  1.0000
  H   H974      1.0  0.34837  0.58331  0.33404  1.0000
  C   C610      1.0  0.43687  0.63125  0.27768  1.0000
  C   C611      1.0  0.42411  0.62495  0.29933  1.0000
  H   H975      1.0  0.34316  0.56494  0.33262  1.0000
  H   H976      1.0  0.42580  0.61659  0.32357  1.0000
  H   H977      1.0  0.62508  0.64362  0.45553  1.0000
  Fe  Fe121     1.0  0.37399  0.49558  0.33000  1.0000
  H   H978      1.0  0.33951  0.58802  0.24168  1.0000
  H   H979      1.0  0.43841  0.55276  0.47335  1.0000
  Fe  Fe122     1.0  0.62385  0.62764  0.37076  1.0000
  H   H980      1.0  0.45073  0.57908  0.30672  1.0000
  C   C612      1.0  0.40664  0.64027  0.25795  1.0000
  N   N63       1.0  0.41494  0.56544  0.48796  1.0000
  N   N64       1.0  0.35399  0.57666  0.28178  1.0000
  C   C613      1.0  0.36701  0.51547  0.48117  1.0000
  C   C614      1.0  0.35461  0.59229  0.00155  1.0000
  H   H981      1.0  0.32935  0.57805  0.28232  1.0000
  C   C615      1.0  0.33876  0.58521  0.27141  1.0000
  H   H982      1.0  0.44427  0.64689  0.22903  1.0000
  H   H983      1.0  0.42274  0.58735  0.46420  1.0000
  S   S246      1.0  0.44207  0.61255  0.47513  1.0000
  H   H984      1.0  0.32753  0.58408  0.03973  1.0000
  H   H985      1.0  0.65173  0.55983  0.30888  1.0000
  Fe  Fe123     1.0  0.60290  0.62413  0.44501  1.0000
  C   C616      1.0  0.47143  0.61692  0.47958  1.0000
  C   C617      1.0  0.41687  0.57861  0.45760  1.0000
  H   H986      1.0  0.43886  0.56082  0.28517  1.0000
  H   H987      1.0  0.60270  0.54946  0.32372  1.0000
  H   H988      1.0  0.63696  0.64749  0.48401  1.0000
  H   H989      1.0  0.46873  0.57425  0.27655  1.0000
  H   H990      1.0  0.41445  0.54924  0.45392  1.0000
  H   H991      1.0  0.42502  0.59043  0.23733  1.0000
  H   H992      1.0  0.43818  0.56295  0.23837  1.0000
  H   H993      1.0  0.47490  0.61512  0.45215  1.0000
  S   S247      1.0  0.46900  0.58165  0.42775  1.0000
  C   C618      1.0  0.40909  0.62934  0.28931  1.0000
  N   N65       1.0  0.44792  0.58080  0.25194  1.0000
  C   C619      1.0  0.57702  0.57063  0.34449  1.0000
  H   H994      1.0  0.39929  0.62439  0.30616  1.0000
  H   H995      1.0  0.60583  0.57440  0.38667  1.0000
  C   C620      1.0  0.44529  0.56444  0.25765  1.0000
  C   C621      1.0  0.65131  0.55540  0.33733  1.0000
  C   C622      1.0  0.43259  0.59170  0.25585  1.0000
  H   H996      1.0  0.57647  0.56647  0.31964  1.0000
  H   H997      1.0  0.61480  0.55276  0.35244  1.0000
  H   H998      1.0  0.45913  0.59443  0.27545  1.0000
  H   H999      1.0  0.45916  0.59719  0.21055  1.0000
  H   H1000     1.0  0.43422  0.60418  0.24979  1.0000
  H   H1001     1.0  0.33482  0.59648  0.28182  1.0000
  C   C623      1.0  0.45686  0.58494  0.21545  1.0000
  H   H1002     1.0  0.45664  0.55594  0.25457  1.0000
  H   H1003     1.0  0.46851  0.57697  0.21150  1.0000
  H   H1004     1.0  0.64947  0.53930  0.43924  1.0000
  H   H1005     1.0  0.45028  0.58417  0.19444  1.0000
  H   H1006     1.0  0.37076  0.55572  0.27202  1.0000
  H   H1007     1.0  0.42593  0.58961  0.28370  1.0000
  H   H1008     1.0  0.33968  0.53092  0.25333  1.0000
  H   H1009     1.0  0.35939  0.55524  0.47689  1.0000
  H   H1010     1.0  0.34334  0.62111  0.01969  1.0000
  C   C624      1.0  0.45702  0.58220  0.27879  1.0000
  Fe  Fe124     1.0  0.48684  0.59264  0.38489  1.0000
  C   C625      1.0  0.35894  0.56207  0.26639  1.0000
  H   H1011     1.0  0.59695  0.54535  0.37175  1.0000
  C   C626      1.0  0.43060  0.55749  0.49676  1.0000
  H   H1012     1.0  0.33409  0.54274  0.19177  1.0000
  C   C627      1.0  0.65948  0.58088  0.48529  1.0000
  C   C628      1.0  0.65010  0.54394  0.41083  1.0000
  C   C629      1.0  0.35215  0.57262  0.32138  1.0000
  C   C630      1.0  0.40731  0.55409  0.47783  1.0000
  H   H1013     1.0  0.40529  0.58493  0.45032  1.0000
  H   H1014     1.0  0.35065  0.55379  0.27814  1.0000
  H   H1015     1.0  0.35947  0.56447  0.23676  1.0000
  H   H1016     1.0  0.49460  0.61984  0.48350  1.0000
  H   H1017     1.0  0.49505  0.56783  0.47372  1.0000
  H   H1018     1.0  0.57022  0.58289  0.34275  1.0000
  H   H1019     1.0  0.39538  0.55963  0.47136  1.0000
  S   S248      1.0  0.64568  0.63710  0.33892  1.0000
  C   C631      1.0  0.59359  0.57500  0.38245  1.0000
  C   C632      1.0  0.32714  0.54771  0.21463  1.0000
  N   N66       1.0  0.59350  0.56994  0.34848  1.0000
  S   S249      1.0  0.51109  0.58523  0.40219  1.0000
  S   S250      1.0  0.59374  0.60364  0.43685  1.0000
  Fe  Fe125     1.0  0.61884  0.59506  0.41280  1.0000
  S   S251      1.0  0.63043  0.57010  0.43158  1.0000
  H   H1020     1.0  0.48901  0.58708  0.48484  1.0000
  H   H1021     1.0  0.58728  0.58734  0.38250  1.0000
  C   C633      1.0  0.60236  0.55366  0.34908  1.0000
  H   H1022     1.0  0.57070  0.56329  0.36775  1.0000
  S   S252      1.0  0.61632  0.60727  0.35668  1.0000
  S   S253      1.0  0.57129  0.61872  0.35247  1.0000
  S   S254      1.0  0.62813  0.61444  0.42536  1.0000
  H   H1023     1.0  0.59472  0.59301  0.31718  1.0000
  H   H1024     1.0  0.61350  0.58025  0.31986  1.0000
  H   H1025     1.0  0.58774  0.56749  0.40612  1.0000
  H   H1026     1.0  0.60093  0.57727  0.29180  1.0000
  C   C634      1.0  0.55394  0.61042  0.36882  1.0000
  C   C635      1.0  0.55231  0.59937  0.40062  1.0000
  C   C636      1.0  0.53903  0.59194  0.41064  1.0000
  C   C637      1.0  0.52701  0.59576  0.38963  1.0000
  C   C638      1.0  0.52842  0.60712  0.35841  1.0000
  C   C639      1.0  0.54189  0.61425  0.34790  1.0000
  H   H1027     1.0  0.56135  0.59638  0.41723  1.0000
  H   H1028     1.0  0.53804  0.58318  0.43485  1.0000
  H   H1029     1.0  0.51933  0.61013  0.34188  1.0000
  H   H1030     1.0  0.54302  0.62275  0.32324  1.0000
  C   C640      1.0  0.36336  0.54292  0.48695  1.0000
  C   C641      1.0  0.64253  0.56477  0.36244  1.0000
  C   C642      1.0  0.64181  0.55899  0.39928  1.0000
  H   H1031     1.0  0.36787  0.58984  0.23820  1.0000
  Fe  Fe126     1.0  0.59166  0.61740  0.38163  1.0000
  H   H1032     1.0  0.63634  0.57641  0.35328  1.0000
  C   C643      1.0  0.49426  0.57474  0.49516  1.0000
  C   C644      1.0  0.36613  0.58665  0.26803  1.0000
  S   S255      1.0  0.59901  0.63892  0.39129  1.0000
  C   C645      1.0  0.65919  0.53474  0.38577  1.0000
  H   H1033     1.0  0.35971  0.59406  0.02410  1.0000
  H   H1034     1.0  0.33239  0.59890  0.05881  1.0000
  H   H1035     1.0  0.35462  0.57948  0.00474  1.0000
  C   C646      1.0  0.32819  0.59678  0.03532  1.0000
  H   H1036     1.0  0.64902  0.64026  0.40925  1.0000
  C   C647      1.0  0.33031  0.54098  0.24947  1.0000
  H   H1037     1.0  0.65437  0.59259  0.49302  1.0000
  C   C648      1.0  0.65273  0.65031  0.41627  1.0000
  H   H1038     1.0  0.65369  0.57988  0.46306  1.0000
  S   S256      1.0  0.38752  0.64587  0.24679  1.0000
  H   H1039     1.0  0.65820  0.55101  0.48306  1.0000
  H   H1040     1.0  0.32743  0.64546  0.23830  1.0000
  C   C649      1.0  0.41937  0.64663  0.23637  1.0000
  C   C650      1.0  0.45595  0.61645  0.49727  1.0000
  C   C651      1.0  0.48263  0.61957  0.49745  1.0000
  C   C652      1.0  0.65973  0.54040  0.34897  1.0000
  S   S257      1.0  0.59449  0.63371  0.49693  1.0000
  H   H1041     1.0  0.52361  0.63839  0.71270  1.0000
  Fe  Fe127     1.0  0.38133  0.53715  0.67114  1.0000
  S   S258      1.0  0.40644  0.52422  0.66670  1.0000
  S   S259      1.0  0.36903  0.53968  0.72746  1.0000
  Fe  Fe128     1.0  0.38215  0.54202  0.59096  1.0000
  S   S260      1.0  0.40703  0.52924  0.58075  1.0000
  S   S261      1.0  0.37075  0.55293  0.54266  1.0000
  Fe  Fe129     1.0  0.39935  0.51175  0.62910  1.0000
  Fe  Fe130     1.0  0.41135  0.54313  0.61900  1.0000
  S   S262      1.0  0.43089  0.55750  0.60012  1.0000
  S   S263      1.0  0.37397  0.52361  0.63656  1.0000
  S   S264      1.0  0.38673  0.55699  0.62636  1.0000
  H   H1042     1.0  0.35565  0.49920  0.68711  1.0000
  C   C653      1.0  0.64015  0.56874  0.52999  1.0000
  Fe  Fe131     1.0  0.47097  0.63929  0.67883  1.0000
  H   H1043     1.0  0.59143  0.64254  0.56582  1.0000
  H   H1044     1.0  0.56382  0.61716  0.55820  1.0000
  C   C654      1.0  0.54700  0.64170  0.71503  1.0000
  H   H1045     1.0  0.40348  0.56201  0.54311  1.0000
  S   S265      1.0  0.45614  0.58623  0.70998  1.0000
  S   S266      1.0  0.46182  0.62540  0.64819  1.0000
  C   C655      1.0  0.43675  0.56616  0.63130  1.0000
  C   C656      1.0  0.44572  0.57813  0.61850  1.0000
  C   C657      1.0  0.45161  0.58442  0.64239  1.0000
  C   C658      1.0  0.44844  0.57889  0.67941  1.0000
  C   C659      1.0  0.43903  0.56728  0.69234  1.0000
  C   C660      1.0  0.43318  0.56094  0.66838  1.0000
  H   H1046     1.0  0.44811  0.58261  0.58999  1.0000
  H   H1047     1.0  0.45868  0.59349  0.63210  1.0000
  H   H1048     1.0  0.43654  0.56293  0.72090  1.0000
  H   H1049     1.0  0.42630  0.55170  0.67854  1.0000
  H   H1050     1.0  0.60996  0.63742  0.60916  1.0000
  H   H1051     1.0  0.45372  0.61518  0.79119  1.0000
  H   H1052     1.0  0.41456  0.60345  0.80502  1.0000
  C   C661      1.0  0.37446  0.52252  0.53205  1.0000
  H   H1053     1.0  0.38182  0.50738  0.71842  1.0000
  H   H1054     1.0  0.37924  0.51897  0.55672  1.0000
  S   S267      1.0  0.62069  0.64949  0.67563  1.0000
  C   C662      1.0  0.46300  0.62111  0.55117  1.0000
  H   H1055     1.0  0.36912  0.57289  0.74955  1.0000
  H   H1056     1.0  0.43980  0.61813  0.54707  1.0000
  H   H1057     1.0  0.45966  0.62261  0.57882  1.0000
  C   C663      1.0  0.35373  0.62625  0.83024  1.0000
  H   H1058     1.0  0.34725  0.62243  0.97176  1.0000
  Fe  Fe132     1.0  0.48597  0.62287  0.61514  1.0000
  C   C664      1.0  0.52781  0.63984  0.54972  1.0000
  C   C665      1.0  0.36943  0.53847  0.51907  1.0000
  N   N67       1.0  0.36474  0.49214  0.73673  1.0000
  H   H1059     1.0  0.39268  0.59404  0.71103  1.0000
  C   C666      1.0  0.34997  0.55105  0.73346  1.0000
  C   C667      1.0  0.34390  0.55599  0.76651  1.0000
  H   H1060     1.0  0.35058  0.55213  0.78831  1.0000
  H   H1061     1.0  0.37657  0.63162  0.80496  1.0000
  C   C668      1.0  0.35809  0.63786  0.88866  1.0000
  S   S268      1.0  0.57658  0.64545  0.72074  1.0000
  H   H1062     1.0  0.38895  0.59522  0.66642  1.0000
  H   H1063     1.0  0.34573  0.55204  0.68000  1.0000
  C   C669      1.0  0.34116  0.55588  0.70556  1.0000
  H   H1064     1.0  0.55138  0.62794  0.61345  1.0000
  N   N68       1.0  0.43076  0.61873  0.77678  1.0000
  C   C670      1.0  0.44446  0.60839  0.79122  1.0000
  C   C671      1.0  0.43597  0.62621  0.73941  1.0000
  C   C672      1.0  0.42389  0.63101  0.79911  1.0000
  C   C673      1.0  0.41880  0.60927  0.77724  1.0000
  H   H1065     1.0  0.52523  0.63471  0.52810  1.0000
  H   H1066     1.0  0.45004  0.59907  0.77478  1.0000
  H   H1067     1.0  0.44099  0.60245  0.81931  1.0000
  H   H1068     1.0  0.46836  0.56221  0.50318  1.0000
  H   H1069     1.0  0.44049  0.61735  0.72141  1.0000
  H   H1070     1.0  0.41374  0.63928  0.78861  1.0000
  H   H1071     1.0  0.43275  0.63816  0.79968  1.0000
  H   H1072     1.0  0.41962  0.62584  0.82742  1.0000
  H   H1073     1.0  0.40564  0.54398  0.50016  1.0000
  H   H1074     1.0  0.36270  0.59572  0.97611  1.0000
  H   H1075     1.0  0.42376  0.59985  0.76067  1.0000
  H   H1076     1.0  0.36425  0.57472  0.68684  1.0000
  H   H1077     1.0  0.37099  0.59040  0.76381  1.0000
  H   H1078     1.0  0.38065  0.64142  0.85726  1.0000
  S   S269      1.0  0.47965  0.61834  0.71898  1.0000
  H   H1079     1.0  0.32739  0.62602  0.99495  1.0000
  H   H1080     1.0  0.36966  0.61558  0.72170  1.0000
  H   H1081     1.0  0.37716  0.49879  0.52336  1.0000
  H   H1082     1.0  0.34095  0.50041  0.72671  1.0000
  C   C674      1.0  0.33224  0.59896  0.97078  1.0000
  C   C675      1.0  0.34237  0.62589  0.86155  1.0000
  C   C676      1.0  0.36090  0.49625  0.77307  1.0000
  Fe  Fe133     1.0  0.47169  0.60444  0.68568  1.0000
  H   H1083     1.0  0.39007  0.57682  0.69702  1.0000
  C   C677      1.0  0.36514  0.58588  0.74625  1.0000
  C   C678      1.0  0.36351  0.61070  0.70540  1.0000
  H   H1084     1.0  0.34888  0.49425  0.78664  1.0000
  N   N69       1.0  0.48484  0.56832  0.52938  1.0000
  H   H1085     1.0  0.36583  0.61688  0.67710  1.0000
  S   S270      1.0  0.35000  0.62115  0.79194  1.0000
  H   H1086     1.0  0.33961  0.60273  0.94448  1.0000
  C   C679      1.0  0.36991  0.63724  0.85830  1.0000
  C   C680      1.0  0.34450  0.63178  0.89073  1.0000
  C   C681      1.0  0.58990  0.57476  0.80764  1.0000
  H   H1087     1.0  0.50427  0.55082  0.54590  1.0000
  C   C682      1.0  0.33917  0.61850  0.99674  1.0000
  C   C683      1.0  0.45173  0.61857  0.53313  1.0000
  H   H1088     1.0  0.54215  0.60547  0.60092  1.0000
  C   C684      1.0  0.47849  0.62161  0.53333  1.0000
  C   C685      1.0  0.36772  0.63148  0.82899  1.0000
  H   H1089     1.0  0.35062  0.61378  0.71560  1.0000
  N   N70       1.0  0.65720  0.56801  0.51621  1.0000
  C   C686      1.0  0.38585  0.58977  0.69512  1.0000
  C   C687      1.0  0.65005  0.54150  0.78340  1.0000
  H   H1090     1.0  0.64973  0.53090  0.80343  1.0000
  H   H1091     1.0  0.52238  0.61625  0.60434  1.0000
  C   C688      1.0  0.65083  0.56907  0.73213  1.0000
  S   S271      1.0  0.49317  0.62367  0.55565  1.0000
  H   H1092     1.0  0.55946  0.63633  0.53184  1.0000
  H   H1093     1.0  0.33169  0.58634  0.97296  1.0000
  H   H1094     1.0  0.48509  0.54655  0.56692  1.0000
  N   N71       1.0  0.36868  0.59349  0.70826  1.0000
  C   C689      1.0  0.35321  0.50207  0.71464  1.0000
  H   H1095     1.0  0.46270  0.58143  0.51525  1.0000
  Fe  Fe134     1.0  0.63484  0.64334  0.72099  1.0000
  H   H1096     1.0  0.56025  0.58943  0.80081  1.0000
  C   C690      1.0  0.37320  0.51106  0.51321  1.0000
  H   H1097     1.0  0.55297  0.62010  0.52204  1.0000
  H   H1098     1.0  0.44567  0.63262  0.73778  1.0000
  H   H1099     1.0  0.53132  0.60837  0.56442  1.0000
  C   C691      1.0  0.48450  0.57767  0.55708  1.0000
  C   C692      1.0  0.53368  0.61404  0.58538  1.0000
  H   H1100     1.0  0.38989  0.48735  0.73523  1.0000
  C   C693      1.0  0.64183  0.56971  0.76651  1.0000
  H   H1101     1.0  0.33529  0.63234  0.91405  1.0000
  H   H1102     1.0  0.36211  0.59342  0.65767  1.0000
  C   C694      1.0  0.60294  0.63528  0.56031  1.0000
  H   H1103     1.0  0.56628  0.57443  0.77328  1.0000
  H   H1104     1.0  0.56378  0.59482  0.75284  1.0000
  S   S272      1.0  0.61421  0.61298  0.69609  1.0000
  S   S273      1.0  0.64237  0.62053  0.60605  1.0000
  Fe  Fe135     1.0  0.62870  0.60976  0.73913  1.0000
  C   C695      1.0  0.40505  0.57161  0.51960  1.0000
  C   C696      1.0  0.61342  0.63242  0.58485  1.0000
  S   S274      1.0  0.61602  0.63195  0.75958  1.0000
  H   H1105     1.0  0.33176  0.62142  0.86303  1.0000
  S   S275      1.0  0.52853  0.60889  0.68505  1.0000
  C   C697      1.0  0.56331  0.63583  0.70849  1.0000
  H   H1106     1.0  0.40836  0.61672  0.76626  1.0000
  C   C698      1.0  0.53614  0.63387  0.70712  1.0000
  C   C699      1.0  0.54153  0.61995  0.69313  1.0000
  C   C700      1.0  0.55784  0.61424  0.68608  1.0000
  C   C701      1.0  0.56868  0.62222  0.69330  1.0000
  N   N72       1.0  0.53963  0.62881  0.56943  1.0000
  H   H1107     1.0  0.56213  0.60356  0.67491  1.0000
  H   H1108     1.0  0.58117  0.61778  0.68725  1.0000
  H   H1109     1.0  0.63456  0.55628  0.81850  1.0000
  H   H1110     1.0  0.47821  0.57267  0.58373  1.0000
  H   H1111     1.0  0.34722  0.58955  0.69639  1.0000
  H   H1112     1.0  0.53142  0.63829  0.61828  1.0000
  C   C702      1.0  0.64145  0.55589  0.79192  1.0000
  H   H1113     1.0  0.58282  0.57781  0.83344  1.0000
  S   S276      1.0  0.49443  0.63883  0.64180  1.0000
  C   C703      1.0  0.62229  0.61956  0.52178  1.0000
  C   C704      1.0  0.60740  0.62899  0.52852  1.0000
  C   C705      1.0  0.58650  0.60209  0.77934  1.0000
  H   H1114     1.0  0.57911  0.60594  0.80410  1.0000
  H   H1115     1.0  0.58878  0.56261  0.80638  1.0000
  N   N73       1.0  0.58476  0.58618  0.77646  1.0000
  S   S277      1.0  0.63107  0.58740  0.77971  1.0000
  H   H1116     1.0  0.59372  0.56969  0.74012  1.0000
  H   H1117     1.0  0.60251  0.57446  0.80864  1.0000
  H   H1118     1.0  0.41043  0.58027  0.52784  1.0000
  H   H1119     1.0  0.35223  0.58820  0.75681  1.0000
  H   H1120     1.0  0.59109  0.58999  0.71884  1.0000
  H   H1121     1.0  0.59894  0.60250  0.78019  1.0000
  H   H1122     1.0  0.35354  0.51481  0.71185  1.0000
  C   C706      1.0  0.62852  0.62348  0.57733  1.0000
  H   H1123     1.0  0.64454  0.61009  0.54006  1.0000
  Fe  Fe136     1.0  0.63277  0.62592  0.66178  1.0000
  H   H1124     1.0  0.37292  0.49168  0.63074  1.0000
  C   C707      1.0  0.56804  0.58619  0.77587  1.0000
  Fe  Fe137     1.0  0.60301  0.63607  0.71309  1.0000
  Fe  Fe138     1.0  0.50261  0.61676  0.67927  1.0000
  S   S278      1.0  0.64841  0.62071  0.70369  1.0000
  H   H1125     1.0  0.58294  0.61101  0.75608  1.0000
  C   C708      1.0  0.59464  0.58168  0.74300  1.0000
  H   H1126     1.0  0.60734  0.58162  0.74252  1.0000
  H   H1127     1.0  0.42625  0.63485  0.72808  1.0000
  C   C709      1.0  0.63289  0.61703  0.54581  1.0000
  H   H1128     1.0  0.65111  0.57972  0.71227  1.0000
  S   S279      1.0  0.49527  0.60071  0.65023  1.0000
  C   C710      1.0  0.46854  0.56907  0.52404  1.0000
  H   H1129     1.0  0.51637  0.64267  0.56787  1.0000
  H   H1130     1.0  0.46112  0.56421  0.54928  1.0000
  C   C711      1.0  0.54239  0.63592  0.59835  1.0000
  C   C712      1.0  0.55460  0.62544  0.54431  1.0000
  H   H1131     1.0  0.50653  0.57477  0.49818  1.0000
  H   H1132     1.0  0.42959  0.54749  0.51964  1.0000
  C   C713      1.0  0.38079  0.49494  0.71996  1.0000
  H   H1133     1.0  0.63802  0.55911  0.55322  1.0000
  H   H1134     1.0  0.63966  0.64914  0.80721  1.0000
  C   C714      1.0  0.36017  0.58757  0.68632  1.0000
  H   H1135     1.0  0.49658  0.57825  0.56037  1.0000
  H   H1136     1.0  0.47830  0.58995  0.54989  1.0000
  H   H1137     1.0  0.36120  0.50890  0.77186  1.0000
  H   H1138     1.0  0.38392  0.49242  0.69214  1.0000
  H   H1139     1.0  0.63381  0.56756  0.50886  1.0000
  C   C715      1.0  0.65933  0.54075  0.74951  1.0000
  H   H1140     1.0  0.63463  0.58012  0.53909  1.0000
  H   H1141     1.0  0.39302  0.57742  0.51418  1.0000
  S   S280      1.0  0.35973  0.64725  0.92281  1.0000
  C   C716      1.0  0.49202  0.55178  0.54131  1.0000
  H   H1142     1.0  0.36946  0.48914  0.79039  1.0000
  C   C717      1.0  0.32942  0.56635  0.77122  1.0000
  H   H1143     1.0  0.49253  0.54442  0.52091  1.0000
  H   H1144     1.0  0.43659  0.56574  0.50472  1.0000
  C   C718      1.0  0.32644  0.56597  0.71062  1.0000
  H   H1145     1.0  0.54666  0.64722  0.58748  1.0000
  H   H1146     1.0  0.53190  0.65110  0.53701  1.0000
  H   H1147     1.0  0.54271  0.65226  0.72662  1.0000
  H   H1148     1.0  0.62574  0.61437  0.49793  1.0000
  C   C719      1.0  0.65965  0.55455  0.72365  1.0000
  Fe  Fe139     1.0  0.35479  0.69194  0.17585  1.0000
  S   S281      1.0  0.36900  0.71099  0.15459  1.0000
  H   H1149     1.0  0.33071  0.66674  0.10131  1.0000
  H   H1150     1.0  0.39620  0.69327  0.34546  1.0000
  S   S282      1.0  0.39782  0.68654  0.19074  1.0000
  H   H1151     1.0  0.63532  0.67528  0.37931  1.0000
  Fe  Fe140     1.0  0.37675  0.70439  0.20838  1.0000
  S   S283      1.0  0.37645  0.72032  0.24690  1.0000
  Fe  Fe141     1.0  0.38830  0.69127  0.13890  1.0000
  C   C720      1.0  0.41624  0.68955  0.26161  1.0000
  S   S284      1.0  0.36091  0.68681  0.23103  1.0000
  H   H1152     1.0  0.42878  0.67386  0.31947  1.0000
  C   C721      1.0  0.41769  0.67058  0.31646  1.0000
  C   C722      1.0  0.35235  0.74117  0.21838  1.0000
  N   N74       1.0  0.34894  0.67568  0.06097  1.0000
  H   H1153     1.0  0.34734  0.66905  0.11825  1.0000
  C   C723      1.0  0.39334  0.69919  0.04739  1.0000
  N   N75       1.0  0.40752  0.68400  0.29751  1.0000
  C   C724      1.0  0.37883  0.70950  0.05127  1.0000
  H   H1154     1.0  0.42114  0.66056  0.30155  1.0000
  H   H1155     1.0  0.37393  0.71334  0.07664  1.0000
  C   C725      1.0  0.35900  0.73452  0.24922  1.0000
  C   C726      1.0  0.35157  0.73911  0.28211  1.0000
  H   H1156     1.0  0.64054  0.69580  0.15687  1.0000
  H   H1157     1.0  0.35672  0.73408  0.30602  1.0000
  C   C727      1.0  0.40296  0.69697  0.31836  1.0000
  Fe  Fe142     1.0  0.38146  0.66923  0.21009  1.0000
  C   C728      1.0  0.62972  0.65306  0.46264  1.0000
  H   H1158     1.0  0.35952  0.72303  0.02525  1.0000
  C   C729      1.0  0.39318  0.67893  0.29349  1.0000
  S   S285      1.0  0.37352  0.67247  0.15694  1.0000
  S   S286      1.0  0.40337  0.69145  0.08409  1.0000
  H   H1159     1.0  0.37099  0.67713  0.07464  1.0000
  H   H1160     1.0  0.42709  0.69356  0.26355  1.0000
  H   H1161     1.0  0.63437  0.68295  0.45170  1.0000
  H   H1162     1.0  0.33030  0.67292  0.03597  1.0000
  H   H1163     1.0  0.35816  0.73794  0.19278  1.0000
  H   H1164     1.0  0.40885  0.69963  0.24648  1.0000
  H   H1165     1.0  0.65242  0.68486  0.21188  1.0000
  N   N76       1.0  0.63896  0.66145  0.43079  1.0000
  H   H1166     1.0  0.65192  0.66952  0.46242  1.0000
  C   C730      1.0  0.36635  0.67344  0.05366  1.0000
  C   C731      1.0  0.33841  0.75244  0.22031  1.0000
  H   H1167     1.0  0.65231  0.67981  0.13579  1.0000
  H   H1168     1.0  0.38503  0.68883  0.28016  1.0000
  C   C732      1.0  0.37070  0.71502  0.02208  1.0000
  H   H1169     1.0  0.33165  0.75351  0.30967  1.0000
  C   C733      1.0  0.33734  0.75008  0.28424  1.0000
  C   C734      1.0  0.34225  0.69235  0.06331  1.0000
  H   H1170     1.0  0.41993  0.68004  0.24514  1.0000
  H   H1171     1.0  0.38654  0.67418  0.31990  1.0000
  H   H1172     1.0  0.39612  0.66961  0.27674  1.0000
  H   H1173     1.0  0.65166  0.68063  0.41772  1.0000
  H   H1174     1.0  0.41349  0.70108  0.32200  1.0000
  H   H1175     1.0  0.34827  0.65885  0.02873  1.0000
  C   C735      1.0  0.64911  0.65621  0.31798  1.0000
  H   H1176     1.0  0.65303  0.69979  0.11404  1.0000
  C   C736      1.0  0.32872  0.66813  0.20507  1.0000
  H   H1177     1.0  0.33810  0.67003  0.21680  1.0000
  C   C737      1.0  0.65219  0.69179  0.14063  1.0000
  H   H1178     1.0  0.41157  0.66614  0.34378  1.0000
  H   H1179     1.0  0.33353  0.75776  0.19614  1.0000
  H   H1180     1.0  0.37186  0.66094  0.05263  1.0000
  H   H1181     1.0  0.61932  0.66109  0.47468  1.0000
  H   H1182     1.0  0.62474  0.66731  0.31937  1.0000
  C   C738      1.0  0.64447  0.67421  0.44114  1.0000
  C   C739      1.0  0.63687  0.66898  0.31174  1.0000
  H   H1183     1.0  0.63084  0.69379  0.29052  1.0000
  C   C740      1.0  0.64035  0.68397  0.29536  1.0000
  S   S287      1.0  0.33046  0.69661  0.16237  1.0000
  C   C741      1.0  0.34377  0.66565  0.09539  1.0000
  H   H1184     1.0  0.61801  0.67607  0.41345  1.0000
  H   H1185     1.0  0.39537  0.70730  0.30447  1.0000
  H   H1186     1.0  0.62530  0.65883  0.39312  1.0000
  H   H1187     1.0  0.32918  0.69430  0.07107  1.0000
  H   H1188     1.0  0.41768  0.65487  0.21184  1.0000
  C   C742      1.0  0.39974  0.69462  0.01400  1.0000
  C   C743      1.0  0.33073  0.75675  0.25329  1.0000
  C   C744      1.0  0.34340  0.67133  0.03147  1.0000
  H   H1189     1.0  0.37063  0.68049  0.02739  1.0000
  H   H1190     1.0  0.41104  0.68679  0.01070  1.0000
  H   H1191     1.0  0.34512  0.70018  0.03709  1.0000
  C   C745      1.0  0.62893  0.66822  0.40300  1.0000
  H   H1192     1.0  0.34717  0.67874  0.00511  1.0000
  H   H1193     1.0  0.34694  0.69635  0.08379  1.0000
  H   H1194     1.0  0.65358  0.71215  0.18285  1.0000
  H   H1195     1.0  0.32649  0.70969  0.22930  1.0000
  C   C746      1.0  0.65607  0.68630  0.28497  1.0000
  H   H1196     1.0  0.65958  0.65609  0.39121  1.0000
  H   H1197     1.0  0.34894  0.65302  0.09514  1.0000
  Fe  Fe143     1.0  0.36626  0.69836  0.83693  1.0000
  S   S288      1.0  0.35282  0.69274  0.89280  1.0000
  S   S289      1.0  0.35585  0.70606  0.78553  1.0000
  Fe  Fe144     1.0  0.39796  0.68355  0.86031  1.0000
  H   H1198     1.0  0.41190  0.73753  0.70639  1.0000
  Fe  Fe145     1.0  0.37208  0.70065  0.91071  1.0000
  S   S290      1.0  0.36515  0.71515  0.95492  1.0000
  S   S291      1.0  0.38099  0.67410  0.83895  1.0000
  S   S292      1.0  0.38431  0.70834  0.85433  1.0000
  H   H1199     1.0  0.33551  0.76251  0.78792  1.0000
  C   C747      1.0  0.34431  0.73768  0.78828  1.0000
  C   C748      1.0  0.39141  0.69981  0.98506  1.0000
  H   H1200     1.0  0.34964  0.73594  0.81198  1.0000
  H   H1201     1.0  0.38145  0.72431  0.78267  1.0000
  C   C749      1.0  0.37673  0.70983  0.98922  1.0000
  C   C750      1.0  0.34552  0.72502  0.77088  1.0000
  N   N77       1.0  0.40038  0.71909  0.73944  1.0000
  H   H1202     1.0  0.41719  0.72358  0.76755  1.0000
  H   H1203     1.0  0.40963  0.67701  0.78314  1.0000
  H   H1204     1.0  0.39831  0.73137  0.68580  1.0000
  S   S293      1.0  0.42429  0.67706  0.84357  1.0000
  Fe  Fe146     1.0  0.36907  0.66935  0.89629  1.0000
  H   H1205     1.0  0.42296  0.70557  0.74993  1.0000
  C   C751      1.0  0.40725  0.72715  0.70391  1.0000
  S   S294      1.0  0.38726  0.67674  0.91816  1.0000
  H   H1206     1.0  0.38452  0.70922  0.71902  1.0000
  H   H1207     1.0  0.38951  0.69882  0.76130  1.0000
  H   H1208     1.0  0.40813  0.70695  0.78908  1.0000
  H   H1209     1.0  0.37790  0.73472  0.73943  1.0000
  C   C752      1.0  0.43188  0.67129  0.80165  1.0000
  C   C753      1.0  0.39431  0.70547  0.73487  1.0000
  H   H1210     1.0  0.39638  0.69607  0.95959  1.0000
  H   H1211     1.0  0.39138  0.74041  0.76128  1.0000
  C   C754      1.0  0.33628  0.75269  0.77469  1.0000
  H   H1212     1.0  0.40373  0.69714  0.72097  1.0000
  H   H1213     1.0  0.41722  0.71913  0.69037  1.0000
  C   C755      1.0  0.41268  0.71360  0.76244  1.0000
  C   C756      1.0  0.38726  0.73015  0.75640  1.0000
  H   H1214     1.0  0.46713  0.65734  0.75224  1.0000
  C   C757      1.0  0.33863  0.72744  0.74009  1.0000
  H   H1215     1.0  0.45564  0.66416  0.81262  1.0000
  H   H1216     1.0  0.32861  0.67565  0.74809  1.0000
  C   C758      1.0  0.65065  0.66171  0.83456  1.0000
  C   C759      1.0  0.42214  0.67283  0.77639  1.0000
  H   H1217     1.0  0.58592  0.70797  0.74156  1.0000
  H   H1218     1.0  0.42124  0.67102  0.72206  1.0000
  C   C760      1.0  0.44495  0.66392  0.73310  1.0000
  C   C761      1.0  0.65262  0.66542  0.76956  1.0000
  S   S295      1.0  0.64752  0.66188  0.73010  1.0000
  S   S296      1.0  0.45290  0.66101  0.68893  1.0000
  H   H1219     1.0  0.64609  0.65588  0.86108  1.0000
  C   C762      1.0  0.42871  0.66941  0.74196  1.0000
  C   C763      1.0  0.59010  0.67688  0.74243  1.0000
  H   H1220     1.0  0.58120  0.67372  0.76649  1.0000
  C   C764      1.0  0.60958  0.67558  0.77905  1.0000
  C   C765      1.0  0.59243  0.70021  0.76249  1.0000
  C   C766      1.0  0.61277  0.68927  0.71757  1.0000
  H   H1221     1.0  0.58364  0.69778  0.78730  1.0000
  H   H1222     1.0  0.61913  0.67847  0.70682  1.0000
  H   H1223     1.0  0.61624  0.66432  0.77090  1.0000
  H   H1224     1.0  0.60129  0.67257  0.80436  1.0000
  H   H1225     1.0  0.61834  0.68154  0.78525  1.0000
  H   H1226     1.0  0.33987  0.71783  0.72597  1.0000
  H   H1227     1.0  0.59639  0.66570  0.73330  1.0000
  C   C767      1.0  0.32912  0.75497  0.74427  1.0000
  H   H1228     1.0  0.60699  0.69726  0.69578  1.0000
  N   N78       1.0  0.60121  0.68549  0.75038  1.0000
  H   H1229     1.0  0.58362  0.68389  0.72071  1.0000
  H   H1230     1.0  0.62195  0.69493  0.72298  1.0000
  C   C768      1.0  0.45458  0.66152  0.75898  1.0000
  C   C769      1.0  0.44807  0.66542  0.79305  1.0000
  H   H1231     1.0  0.33173  0.69369  0.71823  1.0000
  C   C770      1.0  0.33022  0.74226  0.72721  1.0000
  H   H1232     1.0  0.33010  0.69233  0.76588  1.0000
  H   H1233     1.0  0.60054  0.70696  0.76860  1.0000
  C   C771      1.0  0.64698  0.65785  0.80402  1.0000
  Fe  Fe147     1.0  0.79481  0.11646  0.25753  1.0000
  S   S297      1.0  0.77127  0.12318  0.29201  1.0000
  Fe  Fe148     1.0  0.80737  0.14349  0.26993  1.0000
  Fe  Fe149     1.0  0.78579  0.12652  0.33030  1.0000
  S   S298      1.0  0.77860  0.11738  0.38947  1.0000
  H   H1234     1.0  0.90029  0.08996  0.04423  1.0000
  S   S299      1.0  0.80914  0.11827  0.29752  1.0000
  S   S300      1.0  0.79512  0.14104  0.22676  1.0000
  H   H1235     1.0  0.83336  0.13114  0.30819  1.0000
  C   C772      1.0  0.81342  0.12253  0.43810  1.0000
  H   H1236     1.0  0.81429  0.07760  0.39575  1.0000
  H   H1237     1.0  0.79341  0.08301  0.39570  1.0000
  H   H1238     1.0  0.83007  0.10017  0.23925  1.0000
  C   C773      1.0  0.78951  0.11889  0.42165  1.0000
  C   C774      1.0  0.80511  0.12127  0.41179  1.0000
  H   H1239     1.0  0.81077  0.12214  0.38394  1.0000
  H   H1240     1.0  0.81901  0.08031  0.07518  1.0000
  H   H1241     1.0  0.80603  0.04803  0.35010  1.0000
  H   H1242     1.0  0.80972  0.06218  0.22663  1.0000
  H   H1243     1.0  0.77040  0.11547  0.46585  1.0000
  H   H1244     1.0  0.80660  0.09435  0.36509  1.0000
  S   S301      1.0  0.79946  0.09455  0.23293  1.0000
  H   H1245     1.0  0.97043  0.07393  0.04387  1.0000
  H   H1246     1.0  0.79332  0.05581  0.38757  1.0000
  C   C775      1.0  0.82233  0.07166  0.32790  1.0000
  H   H1247     1.0  0.82387  0.06417  0.30719  1.0000
  C   C776      1.0  0.78243  0.11745  0.45800  1.0000
  H   H1248     1.0  0.81427  0.05071  0.38665  1.0000
  H   H1249     1.0  0.82549  0.12442  0.43031  1.0000
  H   H1250     1.0  0.83802  0.06775  0.07435  1.0000
  C   C777      1.0  0.80500  0.05593  0.36971  1.0000
  C   C778      1.0  0.99264  0.11957  0.00964  1.0000
  C   C779      1.0  0.80521  0.08214  0.37811  1.0000
  H   H1251     1.0  0.79503  0.09060  0.31459  1.0000
  C   C780      1.0  0.81812  0.08235  0.23314  1.0000
  C   C781      1.0  0.97986  0.06469  0.05482  1.0000
  H   H1252     1.0  0.79499  0.07125  0.30801  1.0000
  H   H1253     1.0  0.78219  0.07900  0.34560  1.0000
  C   C782      1.0  0.81985  0.06666  0.22912  1.0000
  H   H1254     1.0  0.83207  0.06692  0.34369  1.0000
  H   H1255     1.0  0.82398  0.08363  0.31340  1.0000
  N   N79       1.0  0.80668  0.07205  0.35116  1.0000
  C   C783      1.0  0.79417  0.07845  0.32896  1.0000
  C   C784      1.0  0.80617  0.12157  0.47433  1.0000
  Fe  Fe150     1.0  0.97954  0.10460  0.19470  1.0000
  S   S302      1.0  0.97104  0.12620  0.15693  1.0000
  S   S303      1.0  0.96288  0.08755  0.21943  1.0000
  H   H1256     1.0  0.94121  0.12412  0.29227  1.0000
  H   H1257     1.0  0.90753  0.07126  0.06952  1.0000
  Fe  Fe151     1.0  0.91169  0.04788  0.13443  1.0000
  S   S304      1.0  0.88787  0.06339  0.14051  1.0000
  S   S305      1.0  0.93325  0.05961  0.11589  1.0000
  S   S306      1.0  0.87241  0.03197  0.14431  1.0000
  Fe  Fe152     1.0  0.88217  0.05069  0.10207  1.0000
  S   S307      1.0  0.87264  0.06394  0.05234  1.0000
  Fe  Fe153     1.0  0.88048  0.04338  0.18242  1.0000
  S   S308      1.0  0.86589  0.04937  0.23481  1.0000
  S   S309      1.0  0.90634  0.03652  0.09289  1.0000
  S   S310      1.0  0.90490  0.02834  0.17918  1.0000
  Fe  Fe154     1.0  0.89726  0.01827  0.13778  1.0000
  H   H1258     1.0  0.90136  0.01358  0.05154  1.0000
  C   C785      1.0  0.86727  0.05100  0.03032  1.0000
  H   H1259     1.0  0.85372  0.06620  0.12190  1.0000
  N   N80       1.0  0.92015  0.07600  0.01578  1.0000
  H   H1260     1.0  0.94210  0.06965  0.03573  1.0000
  H   H1261     1.0  0.74967  0.14741  0.20921  1.0000
  H   H1262     1.0  0.85177  0.01760  0.04827  1.0000
  N   N81       1.0  0.83147  0.08153  0.11655  1.0000
  C   C786      1.0  0.83460  0.05663  0.22885  1.0000
  H   H1263     1.0  0.84244  0.10142  0.11227  1.0000
  C   C787      1.0  0.96082  0.12711  0.03978  1.0000
  H   H1264     1.0  0.80824  0.09575  0.12435  1.0000
  H   H1265     1.0  0.91207  0.12892  0.30258  1.0000
  C   C788      1.0  0.93441  0.06446  0.02384  1.0000
  H   H1266     1.0  0.83093  0.10299  0.07788  1.0000
  H   H1267     1.0  0.84770  0.12632  0.35917  1.0000
  H   H1268     1.0  0.85861  0.03628  0.07926  1.0000
  H   H1269     1.0  0.91841  0.08687  0.06157  1.0000
  C   C789      1.0  0.90161  0.01457  0.02224  1.0000
  H   H1270     1.0  0.97488  0.05984  0.08297  1.0000
  Fe  Fe155     1.0  0.97999  0.13907  0.19018  1.0000
  H   H1271     1.0  0.96934  0.13163  0.08412  1.0000
  C   C790      1.0  0.95394  0.08056  0.19057  1.0000
  C   C791      1.0  0.95682  0.08561  0.15335  1.0000
  C   C792      1.0  0.95009  0.07936  0.13082  1.0000
  C   C793      1.0  0.94027  0.06819  0.14535  1.0000
  C   C794      1.0  0.93691  0.06360  0.18265  1.0000
  C   C795      1.0  0.94379  0.06973  0.20516  1.0000
  H   H1272     1.0  0.96430  0.09424  0.14196  1.0000
  H   H1273     1.0  0.95243  0.08326  0.10207  1.0000
  H   H1274     1.0  0.92938  0.05500  0.19412  1.0000
  H   H1275     1.0  0.94145  0.06582  0.23394  1.0000
  S   S311      1.0  0.90429  0.99408  0.12123  1.0000
  H   H1276     1.0  0.83747  0.06060  0.15481  1.0000
  H   H1277     1.0  0.83578  0.04444  0.22649  1.0000
  C   C796      1.0  0.83126  0.08803  0.23651  1.0000
  H   H1278     1.0  0.81968  0.09480  0.15827  1.0000
  C   C797      1.0  0.84256  0.07090  0.13878  1.0000
  N   N82       1.0  0.92708  0.12482  0.25261  1.0000
  C   C798      1.0  0.84672  0.13760  0.34136  1.0000
  H   H1279     1.0  0.99128  0.08676  0.00333  1.0000
  H   H1280     1.0  0.99137  0.12781  0.29944  1.0000
  H   H1281     1.0  0.91188  0.02006  0.00759  1.0000
  H   H1282     1.0  0.98246  0.05506  0.03886  1.0000
  C   C799      1.0  0.79069  0.11888  0.48426  1.0000
  C   C800      1.0  0.84604  0.07797  0.23624  1.0000
  C   C801      1.0  0.98855  0.12398  0.04352  1.0000
  C   C802      1.0  0.91732  0.98865  0.02109  1.0000
  S   S312      1.0  0.98689  0.11770  0.23038  1.0000
  H   H1283     1.0  0.93830  0.11772  0.20209  1.0000
  H   H1284     1.0  0.94217  0.10540  0.27970  1.0000
  C   C803      1.0  0.94126  0.11828  0.26941  1.0000
  H   H1285     1.0  0.84571  0.07705  0.15784  1.0000
  C   C804      1.0  0.92759  0.11648  0.22293  1.0000
  H   H1286     1.0  0.92803  0.10362  0.23273  1.0000
  H   H1287     1.0  0.91273  0.11010  0.29120  1.0000
  H   H1288     1.0  0.98612  0.07942  0.10373  1.0000
  H   H1289     1.0  0.87754  0.99916  0.02739  1.0000
  C   C805      1.0  0.91118  0.08131  0.04918  1.0000
  C   C806      1.0  0.82735  0.07268  0.09248  1.0000
  H   H1290     1.0  0.95220  0.11984  0.24967  1.0000
  H   H1291     1.0  0.94852  0.13010  0.05146  1.0000
  C   C807      1.0  0.86076  0.03810  0.05025  1.0000
  H   H1292     1.0  0.90661  0.05809  0.01939  1.0000
  C   C808      1.0  0.91281  0.12275  0.27980  1.0000
  C   C809      1.0  0.83900  0.09466  0.09484  1.0000
  H   H1293     1.0  0.84989  0.09030  0.07657  1.0000
  H   H1294     1.0  0.81118  0.07827  0.15757  1.0000
  H   H1295     1.0  0.85615  0.08232  0.23936  1.0000
  C   C810      1.0  0.85685  0.02755  0.03266  1.0000
  C   C811      1.0  0.97262  0.12786  0.05845  1.0000
  H   H1296     1.0  0.82172  0.06262  0.10803  1.0000
  H   H1297     1.0  0.93130  0.05398  0.04355  1.0000
  C   C812      1.0  0.81702  0.08785  0.14012  1.0000
  C   C813      1.0  0.84776  0.06228  0.23214  1.0000
  Fe  Fe156     1.0  0.77292  0.14807  0.26482  1.0000
  C   C814      1.0  0.83846  0.14038  0.31275  1.0000
  H   H1298     1.0  0.96866  0.14032  0.27204  1.0000
  H   H1299     1.0  0.81999  0.14958  0.38273  1.0000
  C   C815      1.0  0.96492  0.12237  0.00622  1.0000
  N   N83       1.0  0.90247  0.99904  0.01282  1.0000
  H   H1300     1.0  0.98034  0.09326  0.06542  1.0000
  S   S313      1.0  0.86214  0.14647  0.38554  1.0000
  H   H1301     1.0  0.91709  0.12106  0.20950  1.0000
  H   H1302     1.0  0.92618  0.14841  0.26014  1.0000
  C   C816      1.0  0.92670  0.14176  0.23834  1.0000
  C   C817      1.0  0.88892  0.99199  0.03403  1.0000
  C   C818      1.0  0.99006  0.08392  0.07479  1.0000
  C   C819      1.0  0.85336  0.14954  0.34752  1.0000
  H   H1303     1.0  0.92781  0.99357  0.00552  1.0000
  H   H1304     1.0  0.93742  0.14380  0.21808  1.0000
  H   H1305     1.0  0.89078  0.02283  0.01554  1.0000
  H   H1306     1.0  0.90185  0.12759  0.26808  1.0000
  C   C820      1.0  0.91017  0.06860  0.00053  1.0000
  S   S314      1.0  0.78537  0.15191  0.30649  1.0000
  H   H1307     1.0  0.93253  0.09544  0.00022  1.0000
  H   H1308     1.0  0.73326  0.15101  0.16194  1.0000
  H   H1309     1.0  0.88843  0.99106  0.06343  1.0000
  H   H1310     1.0  0.95556  0.14205  0.33477  1.0000
  H   H1311     1.0  0.91801  0.98711  0.05014  1.0000
  H   H1312     1.0  0.91624  0.14711  0.22514  1.0000
  C   C821      1.0  0.95187  0.15104  0.31283  1.0000
  C   C822      1.0  0.95936  0.15008  0.27737  1.0000
  H   H1313     1.0  0.94153  0.06024  0.99925  1.0000
  H   H1314     1.0  0.88195  0.98722  0.18760  1.0000
  H   H1315     1.0  0.81328  0.07830  0.78634  1.0000
  Fe  Fe157     1.0  0.78142  0.12209  0.63196  1.0000
  H   H1316     1.0  0.91646  0.06469  0.97497  1.0000
  S   S315      1.0  0.75561  0.12732  0.65558  1.0000
  Fe  Fe158     1.0  0.80729  0.12066  0.56582  1.0000
  S   S316      1.0  0.79359  0.10264  0.60084  1.0000
  S   S317      1.0  0.79848  0.11623  0.67050  1.0000
  C   C823      1.0  0.92490  0.08965  0.98959  1.0000
  C   C824      1.0  0.82713  0.05575  0.77737  1.0000
  H   H1317     1.0  0.98418  0.11491  0.96554  1.0000
  S   S318      1.0  0.79338  0.14045  0.59366  1.0000
  C   C825      1.0  0.84889  0.14979  0.71468  1.0000
  H   H1318     1.0  0.76344  0.10177  0.76726  1.0000
  H   H1319     1.0  0.76714  0.11123  0.72129  1.0000
  Fe  Fe159     1.0  0.81128  0.13320  0.63007  1.0000
  C   C826      1.0  0.81877  0.07090  0.76651  1.0000
  C   C827      1.0  0.81767  0.07660  0.73010  1.0000
  S   S319      1.0  0.82639  0.11486  0.59969  1.0000
  H   H1320     1.0  0.78306  0.09884  0.74187  1.0000
  N   N84       1.0  0.76721  0.08641  0.72873  1.0000
  C   C828      1.0  0.77182  0.07199  0.75451  1.0000
  C   C829      1.0  0.77643  0.08487  0.69264  1.0000
  C   C830      1.0  0.77037  0.10014  0.74032  1.0000
  C   C831      1.0  0.75021  0.08870  0.72734  1.0000
  H   H1321     1.0  0.76520  0.07274  0.78214  1.0000
  H   H1322     1.0  0.78465  0.06991  0.75583  1.0000
  H   H1323     1.0  0.76956  0.06140  0.74665  1.0000
  H   H1324     1.0  0.74644  0.09959  0.70814  1.0000
  H   H1325     1.0  0.74736  0.07867  0.71833  1.0000
  H   H1326     1.0  0.81155  0.08840  0.72191  1.0000
  H   H1327     1.0  0.77443  0.07457  0.68311  1.0000
  H   H1328     1.0  0.74284  0.08992  0.75408  1.0000
  H   H1329     1.0  0.77312  0.09548  0.67246  1.0000
  H   H1330     1.0  0.78933  0.08327  0.69239  1.0000
  H   H1331     1.0  0.90248  0.98956  0.96597  1.0000
  Fe  Fe160     1.0  0.81174  0.09830  0.63688  1.0000
  S   S320      1.0  0.82322  0.07356  0.65860  1.0000
  C   C832      1.0  0.75131  0.14347  0.67837  1.0000
  Fe  Fe161     1.0  0.86164  0.01948  0.91370  1.0000
  S   S321      1.0  0.88556  0.00941  0.88638  1.0000
  S   S322      1.0  0.85636  0.01516  0.97416  1.0000
  Fe  Fe162     1.0  0.84933  0.03216  0.84291  1.0000
  S   S323      1.0  0.87238  0.02261  0.81021  1.0000
  H   H1332     1.0  0.87489  0.06330  0.97712  1.0000
  Fe  Fe163     1.0  0.87217  0.00069  0.85310  1.0000
  Fe  Fe164     1.0  0.88348  0.03206  0.84682  1.0000
  S   S324      1.0  0.90136  0.04824  0.82412  1.0000
  S   S325      1.0  0.84827  0.00961  0.88304  1.0000
  S   S326      1.0  0.86049  0.04275  0.87691  1.0000
  S   S327      1.0  0.94731  0.10410  0.89776  1.0000
  H   H1333     1.0  0.89372  0.10784  0.77884  1.0000
  S   S328      1.0  0.87641  0.13104  0.72879  1.0000
  H   H1334     1.0  0.86570  0.08446  0.69402  1.0000
  N   N85       1.0  0.85252  0.15142  0.54438  1.0000
  Fe  Fe165     1.0  0.96936  0.10736  0.85792  1.0000
  S   S329      1.0  0.97124  0.08286  0.95225  1.0000
  C   C833      1.0  0.85471  0.12474  0.69457  1.0000
  C   C834      1.0  0.85849  0.13506  0.71295  1.0000
  C   C835      1.0  0.82454  0.06700  0.70445  1.0000
  S   S330      1.0  0.98087  0.08183  0.86678  1.0000
  H   H1335     1.0  0.86222  0.11344  0.69273  1.0000
  C   C836      1.0  0.95412  0.13721  0.79863  1.0000
  C   C837      1.0  0.85982  0.02958  0.99506  1.0000
  H   H1336     1.0  0.93168  0.08600  0.96411  1.0000
  H   H1337     1.0  0.89303  0.05930  0.75393  1.0000
  C   C838      1.0  0.95002  0.14434  0.76504  1.0000
  C   C839      1.0  0.83279  0.05181  0.71537  1.0000
  Fe  Fe166     1.0  0.95948  0.07898  0.90936  1.0000
  H   H1338     1.0  0.89130  0.06831  0.70826  1.0000
  S   S331      1.0  0.96961  0.12091  0.80165  1.0000
  Fe  Fe167     1.0  0.99142  0.08847  0.90861  1.0000
  H   H1339     1.0  0.94845  0.13721  0.85563  1.0000
  C   C840      1.0  0.91310  0.05160  0.85273  1.0000
  C   C841      1.0  0.92391  0.06187  0.83895  1.0000
  C   C842      1.0  0.93261  0.05698  0.89668  1.0000
  C   C843      1.0  0.92175  0.04678  0.91052  1.0000
  C   C844      1.0  0.91195  0.04418  0.88873  1.0000
  H   H1340     1.0  0.92509  0.06738  0.81099  1.0000
  H   H1341     1.0  0.92098  0.04078  0.93813  1.0000
  H   H1342     1.0  0.90365  0.03629  0.89963  1.0000
  H   H1343     1.0  0.83811  0.04431  0.69564  1.0000
  H   H1344     1.0  0.89096  0.00888  0.96705  1.0000
  C   C845      1.0  0.86631  0.04252  0.97506  1.0000
  H   H1345     1.0  0.85111  0.07364  0.79163  1.0000
  H   H1346     1.0  0.86875  0.04412  0.94607  1.0000
  H   H1347     1.0  0.91206  0.00632  0.95719  1.0000
  S   S332      1.0  0.94504  0.05951  0.92472  1.0000
  C   C846      1.0  0.76353  0.15016  0.68321  1.0000
  H   H1348     1.0  0.86442  0.09668  0.76231  1.0000
  H   H1349     1.0  0.77560  0.14575  0.67222  1.0000
  S   S333      1.0  0.98150  0.11418  0.89607  1.0000
  C   C847      1.0  0.83312  0.14493  0.67544  1.0000
  S   S334      1.0  0.95014  0.12070  0.98368  1.0000
  H   H1350     1.0  0.72615  0.14448  0.68866  1.0000
  H   H1351     1.0  0.94206  0.07232  0.84990  1.0000
  H   H1352     1.0  0.89460  0.13404  0.78869  1.0000
  C   C848      1.0  0.73568  0.14954  0.69241  1.0000
  N   N86       1.0  0.91400  0.11447  0.78967  1.0000
  C   C849      1.0  0.92700  0.10751  0.81022  1.0000
  C   C850      1.0  0.90391  0.10274  0.79308  1.0000
  C   C851      1.0  0.92059  0.11919  0.75136  1.0000
  C   C852      1.0  0.90443  0.12845  0.80390  1.0000
  H   H1353     1.0  0.93455  0.09703  0.79992  1.0000
  H   H1354     1.0  0.92249  0.10375  0.83924  1.0000
  H   H1355     1.0  0.93480  0.11607  0.80838  1.0000
  H   H1356     1.0  0.91060  0.09225  0.78144  1.0000
  H   H1357     1.0  0.89913  0.09853  0.82174  1.0000
  H   H1358     1.0  0.92813  0.10902  0.73975  1.0000
  H   H1359     1.0  0.92800  0.12830  0.74773  1.0000
  H   H1360     1.0  0.91167  0.13755  0.80175  1.0000
  H   H1361     1.0  0.89921  0.12539  0.83271  1.0000
  N   N87       1.0  0.87048  0.07382  0.74711  1.0000
  C   C853      1.0  0.86222  0.06598  0.78125  1.0000
  C   C854      1.0  0.87499  0.08803  0.75324  1.0000
  C   C855      1.0  0.85995  0.07830  0.72000  1.0000
  C   C856      1.0  0.88478  0.06289  0.73415  1.0000
  H   H1362     1.0  0.85897  0.05501  0.77783  1.0000
  H   H1363     1.0  0.86974  0.06263  0.80249  1.0000
  H   H1364     1.0  0.85660  0.06778  0.71435  1.0000
  H   H1365     1.0  0.86572  0.14374  0.58788  1.0000
  H   H1366     1.0  0.84513  0.13415  0.52300  1.0000
  C   C857      1.0  0.83428  0.04627  0.75165  1.0000
  H   H1367     1.0  0.87224  0.14093  0.50860  1.0000
  H   H1368     1.0  0.88259  0.08496  0.77425  1.0000
  C   C858      1.0  0.84182  0.12961  0.67616  1.0000
  H   H1369     1.0  0.88177  0.05190  0.72991  1.0000
  H   H1370     1.0  0.84882  0.08623  0.72923  1.0000
  C   C859      1.0  0.93355  0.06465  0.86090  1.0000
  Fe  Fe168     1.0  0.96073  0.10819  0.93728  1.0000
  H   H1371     1.0  0.91106  0.12423  0.73499  1.0000
  H   H1372     1.0  0.84630  0.13918  0.59803  1.0000
  H   H1373     1.0  0.88158  0.09414  0.72829  1.0000
  H   H1374     1.0  0.84065  0.03453  0.75982  1.0000
  S   S335      1.0  0.82828  0.04913  0.82329  1.0000
  H   H1375     1.0  0.83915  0.12183  0.66108  1.0000
  C   C860      1.0  0.90202  0.00101  0.97406  1.0000
  H   H1376     1.0  0.95688  0.14030  0.74096  1.0000
  C   C861      1.0  0.98085  0.11864  0.99122  1.0000
  S   S336      1.0  0.81649  0.12486  0.50579  1.0000
  H   H1377     1.0  0.86164  0.12809  0.57006  1.0000
  C   C862      1.0  0.94527  0.14254  0.82962  1.0000
  C   C863      1.0  0.85677  0.14008  0.57645  1.0000
  C   C864      1.0  0.86983  0.05335  0.99269  1.0000
  H   H1378     1.0  0.82959  0.14557  0.54981  1.0000
  S   S337      1.0  0.81880  0.15237  0.64794  1.0000
  H   H1379     1.0  0.91450  0.09868  0.98292  1.0000
  H   H1380     1.0  0.78500  0.11811  0.51209  1.0000
  C   C865      1.0  0.84070  0.14610  0.53000  1.0000
  H   H1381     1.0  0.89914  0.07686  0.99484  1.0000
  C   C866      1.0  0.86676  0.15253  0.51660  1.0000
  H   H1382     1.0  0.73353  0.26633  0.04213  1.0000
  H   H1383     1.0  0.82749  0.25300  0.25220  1.0000
  H   H1384     1.0  0.79518  0.18945  0.36994  1.0000
  Fe  Fe169     1.0  0.70126  0.20229  0.10573  1.0000
  S   S338      1.0  0.71363  0.21980  0.06537  1.0000
  S   S339      1.0  0.71332  0.17796  0.12853  1.0000
  S   S340      1.0  0.67863  0.24269  0.06561  1.0000
  Fe  Fe170     1.0  0.69325  0.22377  0.03608  1.0000
  H   H1385     1.0  0.78336  0.17786  0.40468  1.0000
  Fe  Fe171     1.0  0.69823  0.23756  0.09704  1.0000
  S   S341      1.0  0.70745  0.25835  0.10260  1.0000
  S   S342      1.0  0.68193  0.20463  0.07371  1.0000
  S   S343      1.0  0.68773  0.21977  0.14054  1.0000
  S   S344      1.0  0.79077  0.25005  0.16126  1.0000
  S   S345      1.0  0.75123  0.24111  0.21986  1.0000
  H   H1386     1.0  0.72341  0.30292  0.28046  1.0000
  C   C867      1.0  0.71649  0.26691  0.27772  1.0000
  S   S346      1.0  0.75474  0.16965  0.24976  1.0000
  C   C868      1.0  0.74126  0.27451  0.27677  1.0000
  C   C869      1.0  0.71987  0.25305  0.13467  1.0000
  C   C870      1.0  0.71766  0.24073  0.16357  1.0000
  C   C871      1.0  0.72741  0.23693  0.18971  1.0000
  C   C872      1.0  0.73957  0.24524  0.18640  1.0000
  C   C873      1.0  0.74205  0.25725  0.15694  1.0000
  C   C874      1.0  0.73204  0.26134  0.13141  1.0000
  H   H1387     1.0  0.70827  0.23432  0.16623  1.0000
  H   H1388     1.0  0.72555  0.22756  0.21237  1.0000
  H   H1389     1.0  0.75164  0.26346  0.15372  1.0000
  H   H1390     1.0  0.73387  0.27078  0.10890  1.0000
  H   H1391     1.0  0.88279  0.25527  0.39989  1.0000
  C   C875      1.0  0.74400  0.17180  0.21468  1.0000
  C   C876      1.0  0.73561  0.18673  0.20228  1.0000
  C   C877      1.0  0.72650  0.18884  0.17518  1.0000
  C   C878      1.0  0.72554  0.17595  0.16070  1.0000
  H   H1392     1.0  0.67596  0.19973  0.21357  1.0000
  C   C879      1.0  0.79177  0.28490  0.01623  1.0000
  H   H1393     1.0  0.73615  0.19672  0.21365  1.0000
  H   H1394     1.0  0.72015  0.20042  0.16575  1.0000
  H   H1395     1.0  0.88802  0.21608  0.45878  1.0000
  C   C880      1.0  0.78869  0.27827  0.05284  1.0000
  H   H1396     1.0  0.66231  0.19810  0.16415  1.0000
  H   H1397     1.0  0.82325  0.27873  0.10544  1.0000
  H   H1398     1.0  0.81267  0.19529  0.23971  1.0000
  H   H1399     1.0  0.74841  0.28398  0.26847  1.0000
  C   C881      1.0  0.71690  0.29295  0.28724  1.0000
  C   C882      1.0  0.83480  0.24179  0.26037  1.0000
  C   C883      1.0  0.93954  0.16356  0.32009  1.0000
  H   H1400     1.0  0.86793  0.24254  0.49714  1.0000
  C   C884      1.0  0.68172  0.18729  0.21279  1.0000
  H   H1401     1.0  0.79941  0.20700  0.26973  1.0000
  H   H1402     1.0  0.68483  0.18196  0.23977  1.0000
  Fe  Fe172     1.0  0.80481  0.25198  0.20175  1.0000
  H   H1403     1.0  0.85443  0.23900  0.41436  1.0000
  H   H1404     1.0  0.69299  0.18738  0.19341  1.0000
  S   S347      1.0  0.82410  0.23075  0.20998  1.0000
  H   H1405     1.0  0.71564  0.28897  0.31685  1.0000
  H   H1406     1.0  0.84867  0.25283  0.13285  1.0000
  C   C885      1.0  0.79430  0.18300  0.39817  1.0000
  C   C886      1.0  0.87510  0.25464  0.42682  1.0000
  Fe  Fe173     1.0  0.78907  0.27603  0.14413  1.0000
  N   N88       1.0  0.72528  0.28008  0.26757  1.0000
  C   C887      1.0  0.78272  0.26428  0.06283  1.0000
  H   H1407     1.0  0.84388  0.27910  0.09219  1.0000
  C   C888      1.0  0.66819  0.18555  0.16583  1.0000
  S   S348      1.0  0.79308  0.28732  0.08529  1.0000
  H   H1408     1.0  0.70436  0.27070  0.27130  1.0000
  H   H1409     1.0  0.82793  0.25283  0.14314  1.0000
  N   N89       1.0  0.78826  0.19885  0.23447  1.0000
  C   C889      1.0  0.80067  0.19669  0.25648  1.0000
  C   C890      1.0  0.79072  0.18512  0.21658  1.0000
  C   C891      1.0  0.78906  0.21321  0.20707  1.0000
  C   C892      1.0  0.77256  0.20045  0.25759  1.0000
  H   H1410     1.0  0.90195  0.18239  0.48843  1.0000
  H   H1411     1.0  0.80040  0.18595  0.27756  1.0000
  H   H1412     1.0  0.75020  0.25419  0.02008  1.0000
  H   H1413     1.0  0.78149  0.18630  0.19989  1.0000
  H   H1414     1.0  0.80250  0.18345  0.19911  1.0000
  H   H1415     1.0  0.79011  0.17414  0.23665  1.0000
  H   H1416     1.0  0.80078  0.21252  0.18922  1.0000
  H   H1417     1.0  0.78720  0.22372  0.21995  1.0000
  H   H1418     1.0  0.77979  0.21531  0.19003  1.0000
  H   H1419     1.0  0.76297  0.20212  0.24157  1.0000
  H   H1420     1.0  0.77020  0.21080  0.27124  1.0000
  H   H1421     1.0  0.77140  0.18975  0.27844  1.0000
  S   S349      1.0  0.78384  0.25614  0.24463  1.0000
  Fe  Fe174     1.0  0.78243  0.28182  0.22107  1.0000
  Fe  Fe175     1.0  0.76986  0.25597  0.20300  1.0000
  H   H1422     1.0  0.74085  0.27043  0.30618  1.0000
  H   H1423     1.0  0.75565  0.31393  0.31635  1.0000
  H   H1424     1.0  0.77552  0.24603  0.04450  1.0000
  H   H1425     1.0  0.74779  0.26457  0.26309  1.0000
  N   N90       1.0  0.67143  0.17849  0.20242  1.0000
  C   C893      1.0  0.75831  0.31225  0.26051  1.0000
  C   C894      1.0  0.71265  0.26309  0.00340  1.0000
  H   H1426     1.0  0.79281  0.19177  0.41599  1.0000
  C   C895      1.0  0.95498  0.16195  0.24912  1.0000
  H   H1427     1.0  0.70856  0.25241  0.02023  1.0000
  C   C896      1.0  0.72652  0.28594  0.22847  1.0000
  H   H1428     1.0  0.78014  0.25912  0.09088  1.0000
  C   C897      1.0  0.82262  0.17790  0.39413  1.0000
  C   C898      1.0  0.83696  0.15502  0.29006  1.0000
  C   C899      1.0  0.67947  0.16194  0.20288  1.0000
  C   C900      1.0  0.78001  0.25692  0.03644  1.0000
  H   H1429     1.0  0.71470  0.29023  0.22047  1.0000
  S   S350      1.0  0.76659  0.28197  0.18259  1.0000
  H   H1430     1.0  0.71551  0.26206  0.30697  1.0000
  H   H1431     1.0  0.70490  0.29772  0.28050  1.0000
  S   S351      1.0  0.80502  0.27777  0.18134  1.0000
  C   C901      1.0  0.73712  0.25654  0.02650  1.0000
  H   H1432     1.0  0.72252  0.25708  0.26300  1.0000
  H   H1433     1.0  0.73281  0.27651  0.21287  1.0000
  S   S352      1.0  0.77603  0.29836  0.26115  1.0000
  H   H1434     1.0  0.68211  0.15617  0.23004  1.0000
  H   H1435     1.0  0.73343  0.24592  0.04464  1.0000
  C   C902      1.0  0.83387  0.27510  0.08566  1.0000
  H   H1436     1.0  0.73312  0.29587  0.21981  1.0000
  H   H1437     1.0  0.86391  0.16085  0.49185  1.0000
  H   H1438     1.0  0.81257  0.25644  0.09444  1.0000
  H   H1439     1.0  0.83152  0.28173  0.05879  1.0000
  H   H1440     1.0  0.86351  0.26229  0.42312  1.0000
  H   H1441     1.0  0.82457  0.18389  0.36555  1.0000
  H   H1442     1.0  0.89711  0.22859  0.42099  1.0000
  S   S353      1.0  0.96485  0.16159  0.20468  1.0000
  Fe  Fe176     1.0  0.87384  0.16653  0.38459  1.0000
  S   S354      1.0  0.88884  0.17809  0.33621  1.0000
  H   H1443     1.0  0.82574  0.24047  0.07625  1.0000
  Fe  Fe177     1.0  0.87882  0.18654  0.43466  1.0000
  S   S355      1.0  0.89476  0.19951  0.39103  1.0000
  Fe  Fe178     1.0  0.87682  0.20057  0.35636  1.0000
  S   S356      1.0  0.86633  0.22454  0.32843  1.0000
  Fe  Fe179     1.0  0.90525  0.17590  0.37509  1.0000
  S   S357      1.0  0.86815  0.19304  0.48907  1.0000
  S   S358      1.0  0.86030  0.18902  0.40106  1.0000
  S   S359      1.0  0.89085  0.16283  0.42233  1.0000
  N   N91       1.0  0.83705  0.25791  0.08670  1.0000
  H   H1444     1.0  0.81179  0.16502  0.34991  1.0000
  H   H1445     1.0  0.79648  0.15612  0.44784  1.0000
  H   H1446     1.0  0.84281  0.17817  0.27812  1.0000
  C   C903      1.0  0.86291  0.23792  0.47821  1.0000
  H   H1447     1.0  0.87376  0.23195  0.39168  1.0000
  C   C904      1.0  0.84436  0.24025  0.28629  1.0000
  C   C905      1.0  0.85399  0.22580  0.29697  1.0000
  C   C906      1.0  0.85393  0.21283  0.28172  1.0000
  Fe  Fe180     1.0  0.66918  0.22337  0.10629  1.0000
  C   C907      1.0  0.66954  0.31912  0.45672  1.0000
  H   H1448     1.0  0.86139  0.20167  0.28958  1.0000
  H   H1449     1.0  0.89455  0.23283  0.46561  1.0000
  H   H1450     1.0  0.86458  0.21961  0.42977  1.0000
  H   H1451     1.0  0.98632  0.15598  0.30454  1.0000
  C   C908      1.0  0.85212  0.16412  0.32450  1.0000
  H   H1452     1.0  0.85074  0.25955  0.03355  1.0000
  H   H1453     1.0  0.85714  0.17343  0.32930  1.0000
  C   C909      1.0  0.85173  0.25350  0.06160  1.0000
  C   C910      1.0  0.84397  0.16683  0.29563  1.0000
  C   C911      1.0  0.84463  0.21447  0.25519  1.0000
  H   H1454     1.0  0.86134  0.22571  0.49093  1.0000
  H   H1455     1.0  0.70820  0.27277  0.01926  1.0000
  C   C912      1.0  0.80984  0.15936  0.37872  1.0000
  H   H1456     1.0  0.85444  0.24059  0.06172  1.0000
  H   H1457     1.0  0.67928  0.18504  0.14578  1.0000
  C   C913      1.0  0.80675  0.16229  0.44059  1.0000
  C   C914      1.0  0.94260  0.17443  0.25635  1.0000
  C   C915      1.0  0.93471  0.17511  0.29171  1.0000
  S   S360      1.0  0.93099  0.16488  0.36491  1.0000
  H   H1458     1.0  0.93912  0.18363  0.23457  1.0000
  H   H1459     1.0  0.92526  0.18485  0.29716  1.0000
  C   C916      1.0  0.86620  0.23194  0.41866  1.0000
  H   H1460     1.0  0.82185  0.25956  0.04850  1.0000
  C   C917      1.0  0.83508  0.22894  0.24440  1.0000
  C   C918      1.0  0.83880  0.24970  0.12360  1.0000
  H   H1461     1.0  0.84437  0.25032  0.29796  1.0000
  C   C919      1.0  0.88893  0.22856  0.44719  1.0000
  H   H1462     1.0  0.82185  0.18672  0.41135  1.0000
  N   N92       1.0  0.87328  0.23826  0.44274  1.0000
  C   C920      1.0  0.74328  0.15896  0.19975  1.0000
  H   H1463     1.0  0.84104  0.23668  0.12580  1.0000
  H   H1464     1.0  0.86200  0.25673  0.06898  1.0000
  H   H1465     1.0  0.79636  0.29574  0.00826  1.0000
  H   H1466     1.0  0.88050  0.25979  0.44413  1.0000
  C   C921      1.0  0.82378  0.25335  0.07595  1.0000
  H   H1467     1.0  0.84498  0.20453  0.24269  1.0000
  H   H1468     1.0  0.75770  0.31343  0.20461  1.0000
  C   C922      1.0  0.73396  0.16103  0.17303  1.0000
  H   H1469     1.0  0.85098  0.24505  0.47591  1.0000
  N   N93       1.0  0.80837  0.17065  0.40291  1.0000
  H   H1470     1.0  0.80516  0.17045  0.45982  1.0000
  H   H1471     1.0  0.83338  0.16887  0.39823  1.0000
  H   H1472     1.0  0.67218  0.15494  0.19475  1.0000
  S   S361      1.0  0.82551  0.15896  0.25621  1.0000
  H   H1473     1.0  0.66415  0.31168  0.44462  1.0000
  H   H1474     1.0  0.68120  0.31243  0.46289  1.0000
  H   H1475     1.0  0.69093  0.16116  0.18387  1.0000
  C   C923      1.0  0.75167  0.31748  0.22924  1.0000
  C   C924      1.0  0.75055  0.31791  0.29208  1.0000
  H   H1476     1.0  0.79910  0.15399  0.38376  1.0000
  H   H1477     1.0  0.81741  0.15317  0.44524  1.0000
  C   C925      1.0  0.78299  0.26358  0.99984  1.0000
  H   H1478     1.0  0.66034  0.17932  0.15719  1.0000
  C   C926      1.0  0.73500  0.27478  0.97084  1.0000
  H   H1479     1.0  0.67660  0.18968  0.94646  1.0000
  Fe  Fe181     1.0  0.68392  0.21247  0.73326  1.0000
  S   S362      1.0  0.69308  0.18988  0.76837  1.0000
  N   N94       1.0  0.79360  0.19461  0.72093  1.0000
  Fe  Fe182     1.0  0.70127  0.23192  0.76061  1.0000
  S   S363      1.0  0.71186  0.21127  0.79815  1.0000
  S   S364      1.0  0.70714  0.25565  0.75759  1.0000
  Fe  Fe183     1.0  0.71636  0.19807  0.75245  1.0000
  S   S365      1.0  0.74115  0.18424  0.74085  1.0000
  Fe  Fe184     1.0  0.68794  0.20495  0.81122  1.0000
  S   S366      1.0  0.67869  0.19650  0.86957  1.0000
  S   S367      1.0  0.70768  0.21943  0.71376  1.0000
  S   S368      1.0  0.67678  0.22683  0.77738  1.0000
  S   S369      1.0  0.79653  0.24609  0.87177  1.0000
  Fe  Fe185     1.0  0.77608  0.25199  0.84265  1.0000
  S   S370      1.0  0.76982  0.23295  0.82121  1.0000
  C   C927      1.0  0.72574  0.25094  0.77043  1.0000
  C   C928      1.0  0.72995  0.26012  0.79091  1.0000
  C   C929      1.0  0.74401  0.25504  0.80504  1.0000
  C   C930      1.0  0.75364  0.24066  0.79918  1.0000
  C   C931      1.0  0.74969  0.23180  0.77762  1.0000
  C   C932      1.0  0.73585  0.23703  0.76292  1.0000
  H   H1480     1.0  0.72202  0.27069  0.79740  1.0000
  H   H1481     1.0  0.74702  0.26193  0.82172  1.0000
  H   H1482     1.0  0.75713  0.22074  0.77282  1.0000
  H   H1483     1.0  0.73280  0.23005  0.74648  1.0000
  H   H1484     1.0  0.85148  0.15766  0.72965  1.0000
  C   C933      1.0  0.74460  0.16876  0.71632  1.0000
  H   H1485     1.0  0.74476  0.31459  0.67571  1.0000
  H   H1486     1.0  0.83756  0.15415  0.50517  1.0000
  H   H1487     1.0  0.67697  0.27037  0.67510  1.0000
  S   S371      1.0  0.76092  0.26674  0.88172  1.0000
  C   C934      1.0  0.68236  0.20705  0.89985  1.0000
  H   H1488     1.0  0.74042  0.20203  0.82898  1.0000
  S   S372      1.0  0.78414  0.27232  0.80337  1.0000
  H   H1489     1.0  0.70744  0.28927  0.72446  1.0000
  H   H1490     1.0  0.75135  0.18696  0.91983  1.0000
  H   H1491     1.0  0.77472  0.30886  0.76684  1.0000
  C   C935      1.0  0.82389  0.22597  0.76728  1.0000
  C   C936      1.0  0.78887  0.27763  0.98978  1.0000
  C   C937      1.0  0.83233  0.24830  0.77978  1.0000
  H   H1492     1.0  0.71602  0.19843  0.92074  1.0000
  H   H1493     1.0  0.72391  0.22480  0.90284  1.0000
  H   H1494     1.0  0.74689  0.29436  0.67188  1.0000
  C   C938      1.0  0.73536  0.24720  0.97343  1.0000
  H   H1495     1.0  0.78257  0.19839  0.77435  1.0000
  C   C939      1.0  0.79274  0.20133  0.75334  1.0000
  N   N95       1.0  0.73713  0.20362  0.88488  1.0000
  C   C940      1.0  0.68079  0.20069  0.93666  1.0000
  H   H1496     1.0  0.81489  0.21893  0.77130  1.0000
  C   C941      1.0  0.69191  0.22892  0.91136  1.0000
  C   C942      1.0  0.69106  0.22220  0.94788  1.0000
  H   H1497     1.0  0.81858  0.19382  0.70478  1.0000
  N   N96       1.0  0.72533  0.30346  0.70467  1.0000
  Fe  Fe186     1.0  0.80398  0.26730  0.83464  1.0000
  H   H1498     1.0  0.74099  0.22749  0.86967  1.0000
  H   H1499     1.0  0.71615  0.19792  0.87459  1.0000
  H   H1500     1.0  0.75678  0.20610  0.90666  1.0000
  C   C943      1.0  0.71708  0.29115  0.70119  1.0000
  C   C944      1.0  0.88220  0.19281  0.58220  1.0000
  C   C945      1.0  0.74706  0.19881  0.85179  1.0000
  H   H1501     1.0  0.72769  0.18219  0.90077  1.0000
  H   H1502     1.0  0.74845  0.24489  0.96548  1.0000
  H   H1503     1.0  0.87662  0.22330  0.77969  1.0000
  H   H1504     1.0  0.74809  0.27319  0.96335  1.0000
  H   H1505     1.0  0.69621  0.23987  0.90140  1.0000
  S   S373      1.0  0.82897  0.26381  0.80409  1.0000
  C   C946      1.0  0.68517  0.20823  0.96068  1.0000
  C   C947      1.0  0.79531  0.17730  0.73069  1.0000
  C   C948      1.0  0.85448  0.21842  0.83679  1.0000
  H   H1506     1.0  0.73938  0.20327  0.93934  1.0000
  H   H1507     1.0  0.79119  0.28287  0.96167  1.0000
  S   S374      1.0  0.91001  0.18473  0.60900  1.0000
  H   H1508     1.0  0.80368  0.19684  0.76528  1.0000
  C   C949      1.0  0.68769  0.22133  0.88736  1.0000
  Fe  Fe187     1.0  0.78233  0.26285  0.90769  1.0000
  H   H1509     1.0  0.77747  0.21412  0.69730  1.0000
  H   H1510     1.0  0.72376  0.22419  0.85666  1.0000
  H   H1511     1.0  0.78481  0.17378  0.74977  1.0000
  C   C950      1.0  0.80738  0.19867  0.69409  1.0000
  H   H1512     1.0  0.76837  0.19854  0.72547  1.0000
  H   H1513     1.0  0.77903  0.19597  0.68168  1.0000
  S   S375      1.0  0.79158  0.28394  0.87318  1.0000
  C   C951      1.0  0.72369  0.19516  0.89572  1.0000
  C   C952      1.0  0.73116  0.22076  0.87817  1.0000
  C   C953      1.0  0.73200  0.29867  0.73824  1.0000
  H   H1514     1.0  0.80669  0.21164  0.68648  1.0000
  H   H1515     1.0  0.79668  0.17179  0.70654  1.0000
  C   C954      1.0  0.84582  0.16701  0.55457  1.0000
  Fe  Fe188     1.0  0.77087  0.28690  0.84473  1.0000
  H   H1516     1.0  0.68871  0.22645  0.85912  1.0000
  H   H1517     1.0  0.79128  0.21441  0.74705  1.0000
  H   H1518     1.0  0.75752  0.20465  0.84342  1.0000
  C   C955      1.0  0.82071  0.23929  0.78354  1.0000
  H   H1519     1.0  0.80925  0.24243  0.79938  1.0000
  H   H1520     1.0  0.71181  0.29434  0.67625  1.0000
  H   H1521     1.0  0.70686  0.26603  0.97922  1.0000
  S   S376      1.0  0.77909  0.25389  0.96796  1.0000
  H   H1522     1.0  0.66439  0.26291  0.77434  1.0000
  H   H1523     1.0  0.80840  0.19383  0.66919  1.0000
  H   H1524     1.0  0.92538  0.15889  0.85109  1.0000
  H   H1525     1.0  0.86895  0.20656  0.77596  1.0000
  H   H1526     1.0  0.88270  0.22477  0.83946  1.0000
  H   H1527     1.0  0.73868  0.30741  0.74133  1.0000
  C   C956      1.0  0.77901  0.20111  0.70560  1.0000
  H   H1528     1.0  0.75136  0.18588  0.85554  1.0000
  C   C957      1.0  0.74660  0.19979  0.91398  1.0000
  C   C958      1.0  0.93682  0.15648  0.76251  1.0000
  H   H1529     1.0  0.80591  0.17204  0.74350  1.0000
  H   H1530     1.0  0.76972  0.16763  0.70602  1.0000
  C   C959      1.0  0.88015  0.19085  0.52154  1.0000
  H   H1531     1.0  0.68443  0.20297  0.98880  1.0000
  C   C960      1.0  0.83647  0.15486  0.69528  1.0000
  S   S377      1.0  0.69914  0.23063  0.97562  1.0000
  H   H1532     1.0  0.67623  0.29440  0.69961  1.0000
  H   H1533     1.0  0.93371  0.16191  0.73649  1.0000
  H   H1534     1.0  0.85517  0.23113  0.82789  1.0000
  H   H1535     1.0  0.73008  0.27795  0.94543  1.0000
  H   H1536     1.0  0.91815  0.17940  0.53588  1.0000
  H   H1537     1.0  0.87687  0.21073  0.87843  1.0000
  H   H1538     1.0  0.86057  0.19918  0.56077  1.0000
  H   H1539     1.0  0.84928  0.21675  0.86584  1.0000
  H   H1540     1.0  0.86417  0.18924  0.87206  1.0000
  H   H1541     1.0  0.72523  0.27961  0.70050  1.0000
  C   C961      1.0  0.93224  0.15487  0.82702  1.0000
  H   H1542     1.0  0.82982  0.16668  0.69470  1.0000
  C   C962      1.0  0.89641  0.18536  0.51446  1.0000
  S   S378      1.0  0.66935  0.21504  0.69026  1.0000
  H   H1543     1.0  0.86027  0.18823  0.82884  1.0000
  C   C963      1.0  0.73819  0.30549  0.67364  1.0000
  C   C964      1.0  0.86861  0.19159  0.84266  1.0000
  C   C965      1.0  0.87311  0.19473  0.55528  1.0000
  C   C966      1.0  0.87631  0.21068  0.79091  1.0000
  H   H1544     1.0  0.84598  0.21590  0.82206  1.0000
  Fe  Fe189     1.0  0.88208  0.15534  0.71970  1.0000
  H   H1545     1.0  0.83498  0.16659  0.57537  1.0000
  Fe  Fe190     1.0  0.89850  0.17655  0.74503  1.0000
  S   S379      1.0  0.87451  0.17014  0.76249  1.0000
  S   S380      1.0  0.91059  0.17602  0.79133  1.0000
  Fe  Fe191     1.0  0.89685  0.18073  0.66594  1.0000
  S   S381      1.0  0.87285  0.17454  0.67700  1.0000
  Fe  Fe192     1.0  0.86721  0.18996  0.71890  1.0000
  S   S382      1.0  0.84246  0.20387  0.72983  1.0000
  C   C967      1.0  0.88117  0.21230  0.84894  1.0000
  S   S383      1.0  0.89066  0.19784  0.70470  1.0000
  H   H1546     1.0  0.74031  0.28719  0.73880  1.0000
  H   H1547     1.0  0.66738  0.30292  0.52404  1.0000
  H   H1548     1.0  0.88853  0.20406  0.78486  1.0000
  C   C968      1.0  0.85012  0.23096  0.74141  1.0000
  C   C969      1.0  0.84698  0.24428  0.75805  1.0000
  H   H1549     1.0  0.86139  0.22793  0.72457  1.0000
  H   H1550     1.0  0.85592  0.25140  0.75441  1.0000
  N   N97       1.0  0.87013  0.20826  0.82987  1.0000
  C   C970      1.0  0.83870  0.22151  0.74693  1.0000
  C   C971      1.0  0.90556  0.18366  0.54132  1.0000
  H   H1551     1.0  0.73011  0.24968  0.94854  1.0000
  C   C972      1.0  0.89845  0.18719  0.57542  1.0000
  S   S384      1.0  0.75277  0.30924  0.83467  1.0000
  H   H1552     1.0  0.73108  0.28500  0.98512  1.0000
  H   H1553     1.0  0.68079  0.28226  0.74128  1.0000
  H   H1554     1.0  0.72262  0.29751  0.76236  1.0000
  H   H1555     1.0  0.84269  0.17598  0.53098  1.0000
  H   H1556     1.0  0.89306  0.20474  0.84429  1.0000
  H   H1557     1.0  0.87668  0.19596  0.60804  1.0000
  H   H1558     1.0  0.88018  0.18361  0.83724  1.0000
  C   C973      1.0  0.67174  0.26501  0.70250  1.0000
  N   N98       1.0  0.73003  0.26041  0.99353  1.0000
  H   H1559     1.0  0.68161  0.25833  0.71662  1.0000
  H   H1560     1.0  0.87582  0.15688  0.52619  1.0000
  H   H1561     1.0  0.70433  0.31762  0.72916  1.0000
  C   C974      1.0  0.73230  0.16226  0.71111  1.0000
  C   C975      1.0  0.76413  0.31731  0.76213  1.0000
  H   H1562     1.0  0.72022  0.16691  0.72180  1.0000
  C   C976      1.0  0.76019  0.16264  0.70234  1.0000
  H   H1563     1.0  0.85438  0.17126  0.56594  1.0000
  C   C977      1.0  0.92785  0.16169  0.79352  1.0000
  H   H1564     1.0  0.73356  0.30935  0.64786  1.0000
  H   H1565     1.0  0.66365  0.29760  0.74129  1.0000
  S   S385      1.0  0.90668  0.16010  0.70535  1.0000
  C   C978      1.0  0.71403  0.31849  0.70561  1.0000
  H   H1566     1.0  0.73180  0.23617  0.98987  1.0000
  C   C979      1.0  0.67100  0.28832  0.72633  1.0000
  H   H1567     1.0  0.66498  0.25628  0.69937  1.0000
  N   N99       1.0  0.66156  0.27704  0.72261  1.0000
  H   H1568     1.0  0.66659  0.43880  0.34032  1.0000
  Fe  Fe193     1.0  0.67894  0.37866  0.35185  1.0000
  S   S386      1.0  0.70400  0.36582  0.34859  1.0000
  S   S387      1.0  0.67189  0.40528  0.34662  1.0000
  H   H1569     1.0  0.72630  0.37133  0.27480  1.0000
  S   S388      1.0  0.68984  0.33312  0.36030  1.0000
  H   H1570     1.0  0.73282  0.38980  0.19819  1.0000
  Fe  Fe194     1.0  0.69424  0.34853  0.39482  1.0000
  S   S389      1.0  0.70403  0.33698  0.44496  1.0000
  Fe  Fe195     1.0  0.69700  0.35176  0.31440  1.0000
  S   S390      1.0  0.71136  0.34691  0.26093  1.0000
  H   H1571     1.0  0.70992  0.41826  0.22375  1.0000
  S   S391      1.0  0.67227  0.36557  0.31474  1.0000
  C   C980      1.0  0.70546  0.35074  0.47029  1.0000
  S   S392      1.0  0.71865  0.45311  0.32896  1.0000
  C   C981      1.0  0.70465  0.37764  0.47654  1.0000
  S   S393      1.0  0.66971  0.36239  0.40106  1.0000
  H   H1572     1.0  0.68128  0.43301  0.41433  1.0000
  H   H1573     1.0  0.69143  0.39959  0.24561  1.0000
  C   C982      1.0  0.72952  0.33379  0.26125  1.0000
  H   H1574     1.0  0.70015  0.45136  0.40432  1.0000
  C   C983      1.0  0.70632  0.44322  0.42534  1.0000
  H   H1575     1.0  0.73236  0.33237  0.20520  1.0000
  H   H1576     1.0  0.68011  0.41824  0.45420  1.0000
  H   H1577     1.0  0.72458  0.38760  0.29722  1.0000
  C   C984      1.0  0.70311  0.36685  0.45617  1.0000
  H   H1578     1.0  0.70030  0.37097  0.42943  1.0000
  H   H1579     1.0  0.69839  0.37973  0.26573  1.0000
  C   C985      1.0  0.68501  0.41828  0.34338  1.0000
  C   C986      1.0  0.70117  0.41289  0.34331  1.0000
  C   C987      1.0  0.71131  0.42369  0.33896  1.0000
  C   C988      1.0  0.70538  0.43994  0.33550  1.0000
  C   C989      1.0  0.68917  0.44530  0.33665  1.0000
  C   C990      1.0  0.67908  0.43452  0.34023  1.0000
  H   H1580     1.0  0.70584  0.40041  0.34647  1.0000
  H   H1581     1.0  0.72383  0.41944  0.33842  1.0000
  H   H1582     1.0  0.68446  0.45778  0.33387  1.0000
  N   N100      1.0  0.69532  0.43451  0.45237  1.0000
  C   C991      1.0  0.73612  0.32856  0.29257  1.0000
  H   H1583     1.0  0.67608  0.45422  0.45016  1.0000
  C   C992      1.0  0.68820  0.42527  0.43451  1.0000
  C   C993      1.0  0.71789  0.41050  0.24178  1.0000
  H   H1584     1.0  0.71179  0.45049  0.43774  1.0000
  Fe  Fe196     1.0  0.71133  0.47793  0.34172  1.0000
  C   C994      1.0  0.72051  0.38866  0.21118  1.0000
  S   S394      1.0  0.69650  0.48553  0.46830  1.0000
  H   H1585     1.0  0.73976  0.38484  0.25894  1.0000
  H   H1586     1.0  0.71599  0.43512  0.41127  1.0000
  C   C995      1.0  0.73738  0.32830  0.22956  1.0000
  H   H1587     1.0  0.67419  0.43972  0.49056  1.0000
  H   H1588     1.0  0.70300  0.39004  0.46538  1.0000
  H   H1589     1.0  0.69739  0.41688  0.42013  1.0000
  C   C996      1.0  0.70000  0.39210  0.26249  1.0000
  N   N101      1.0  0.71642  0.39383  0.24645  1.0000
  H   H1590     1.0  0.73016  0.41226  0.23013  1.0000
  H   H1591     1.0  0.71467  0.41477  0.26794  1.0000
  C   C997      1.0  0.72724  0.38399  0.27040  1.0000
  H   H1592     1.0  0.71248  0.39569  0.19251  1.0000
  H   H1593     1.0  0.73015  0.33273  0.31715  1.0000
  H   H1594     1.0  0.71957  0.37607  0.21403  1.0000
  H   H1595     1.0  0.69658  0.39554  0.28948  1.0000
  H   H1596     1.0  0.66908  0.34479  0.48397  1.0000
  C   C998      1.0  0.68276  0.44584  0.47002  1.0000
  C   C999      1.0  0.70396  0.42376  0.47963  1.0000
  Fe  Fe197     1.0  0.66557  0.34788  0.36387  1.0000
  H   H1597     1.0  0.71346  0.41493  0.46740  1.0000
  H   H1598     1.0  0.67190  0.32943  0.43570  1.0000
  S   S395      1.0  0.72577  0.48338  0.37771  1.0000
  H   H1599     1.0  0.73987  0.46260  0.49727  1.0000
  H   H1600     1.0  0.74775  0.48026  0.49201  1.0000
  H   H1601     1.0  0.70953  0.43025  0.49371  1.0000
  H   H1602     1.0  0.68774  0.45303  0.48375  1.0000
  H   H1603     1.0  0.72717  0.48147  0.49243  1.0000
  S   S396      1.0  0.72849  0.47123  0.65489  1.0000
  Fe  Fe198     1.0  0.70884  0.37726  0.59586  1.0000
  S   S397      1.0  0.68554  0.38393  0.63083  1.0000
  S   S398      1.0  0.71042  0.38610  0.53609  1.0000
  Fe  Fe199     1.0  0.72492  0.36092  0.66042  1.0000
  S   S399      1.0  0.70280  0.36643  0.69962  1.0000
  S   S400      1.0  0.74788  0.34691  0.67665  1.0000
  Fe  Fe200     1.0  0.69074  0.35923  0.66131  1.0000
  Fe  Fe201     1.0  0.70009  0.39056  0.66492  1.0000
  S   S401      1.0  0.69281  0.41280  0.68982  1.0000
  S   S402      1.0  0.71321  0.35217  0.62429  1.0000
  S   S403      1.0  0.72305  0.38541  0.62794  1.0000
  C   C1000     1.0  0.72055  0.46574  0.55991  1.0000
  H   H1604     1.0  0.70384  0.39120  0.75223  1.0000
  C   C1001     1.0  0.70825  0.37240  0.51128  1.0000
  N   N102      1.0  0.73429  0.47350  0.54421  1.0000
  N   N103      1.0  0.72867  0.38966  0.75057  1.0000
  C   C1002     1.0  0.73283  0.38706  0.71298  1.0000
  C   C1003     1.0  0.74118  0.38041  0.77076  1.0000
  H   H1605     1.0  0.74268  0.36759  0.77046  1.0000
  C   C1004     1.0  0.74825  0.46429  0.55945  1.0000
  C   C1005     1.0  0.74919  0.33686  0.72091  1.0000
  H   H1606     1.0  0.74414  0.39086  0.69931  1.0000
  H   H1607     1.0  0.77260  0.32404  0.70551  1.0000
  C   C1006     1.0  0.71033  0.35632  0.52548  1.0000
  H   H1608     1.0  0.74624  0.46348  0.58915  1.0000
  C   C1007     1.0  0.73676  0.33926  0.74945  1.0000
  H   H1609     1.0  0.75279  0.38396  0.75889  1.0000
  H   H1610     1.0  0.73417  0.37441  0.71140  1.0000
  H   H1611     1.0  0.72608  0.34746  0.74472  1.0000
  C   C1008     1.0  0.71810  0.45535  0.66357  1.0000
  C   C1009     1.0  0.70261  0.45644  0.68221  1.0000
  C   C1010     1.0  0.69496  0.44339  0.68949  1.0000
  C   C1011     1.0  0.70251  0.42927  0.67743  1.0000
  C   C1012     1.0  0.71789  0.42831  0.65801  1.0000
  C   C1013     1.0  0.72570  0.44121  0.65156  1.0000
  H   H1612     1.0  0.69661  0.46722  0.69166  1.0000
  H   H1613     1.0  0.68309  0.44426  0.70465  1.0000
  H   H1614     1.0  0.72389  0.41756  0.64850  1.0000
  H   H1615     1.0  0.73770  0.44020  0.63724  1.0000
  H   H1616     1.0  0.73819  0.41101  0.73771  1.0000
  H   H1617     1.0  0.71329  0.35214  0.55193  1.0000
  C   C1014     1.0  0.66121  0.34956  0.62002  1.0000
  S   S404      1.0  0.67509  0.34076  0.68106  1.0000
  H   H1618     1.0  0.70984  0.38663  0.79545  1.0000
  H   H1619     1.0  0.72846  0.33277  0.80629  1.0000
  C   C1015     1.0  0.73745  0.47447  0.50476  1.0000
  H   H1620     1.0  0.66843  0.35856  0.61146  1.0000
  H   H1621     1.0  0.73841  0.38195  0.79937  1.0000
  C   C1016     1.0  0.72715  0.40659  0.75114  1.0000
  H   H1622     1.0  0.72356  0.39376  0.69718  1.0000
  H   H1623     1.0  0.71419  0.37187  0.76753  1.0000
  C   C1017     1.0  0.70903  0.34550  0.50496  1.0000
  H   H1624     1.0  0.72432  0.40901  0.77909  1.0000
  C   C1018     1.0  0.73811  0.33087  0.78428  1.0000
  H   H1625     1.0  0.75884  0.46980  0.54825  1.0000
  H   H1626     1.0  0.71718  0.46576  0.58933  1.0000
  C   C1019     1.0  0.71348  0.38460  0.76723  1.0000
  H   H1627     1.0  0.71751  0.41379  0.73683  1.0000
  H   H1628     1.0  0.75108  0.45206  0.55389  1.0000
  H   H1629     1.0  0.69598  0.41702  0.50051  1.0000
  H   H1630     1.0  0.72299  0.45329  0.55602  1.0000
  H   H1631     1.0  0.71006  0.47184  0.54750  1.0000
  H   H1632     1.0  0.67827  0.32768  0.51119  1.0000
  H   H1633     1.0  0.71996  0.32816  0.70707  1.0000
  H   H1634     1.0  0.71090  0.33305  0.51593  1.0000
  C   C1020     1.0  0.66218  0.33935  0.65285  1.0000
  C   C1021     1.0  0.66671  0.33408  0.50384  1.0000
  C   C1022     1.0  0.76291  0.32595  0.72743  1.0000
  H   H1635     1.0  0.70844  0.32221  0.68109  1.0000
  C   C1023     1.0  0.75174  0.31977  0.79071  1.0000
  Fe  Fe202     1.0  0.77262  0.61320  0.14459  1.0000
  H   H1636     1.0  0.68777  0.57926  0.27909  1.0000
  Fe  Fe203     1.0  0.78555  0.57834  0.16658  1.0000
  S   S405      1.0  0.77803  0.55439  0.17959  1.0000
  Fe  Fe204     1.0  0.80305  0.60369  0.17532  1.0000
  H   H1637     1.0  0.82582  0.52584  0.06511  1.0000
  Fe  Fe205     1.0  0.80196  0.59797  0.09993  1.0000
  H   H1638     1.0  0.88571  0.63973  0.33335  1.0000
  S   S406      1.0  0.77841  0.59854  0.19667  1.0000
  S   S407      1.0  0.77757  0.59285  0.11613  1.0000
  Fe  Fe206     1.0  0.72456  0.50739  0.34267  1.0000
  S   S408      1.0  0.71221  0.50121  0.30374  1.0000
  S   S409      1.0  0.74282  0.52334  0.33109  1.0000
  Fe  Fe207     1.0  0.70237  0.49292  0.40817  1.0000
  H   H1639     1.0  0.77850  0.64058  0.20886  1.0000
  H   H1640     1.0  0.80635  0.52138  0.08121  1.0000
  Fe  Fe208     1.0  0.68994  0.51010  0.33994  1.0000
  H   H1641     1.0  0.66554  0.52313  0.39499  1.0000
  S   S410      1.0  0.70227  0.51731  0.37699  1.0000
  H   H1642     1.0  0.84592  0.63148  0.33520  1.0000
  H   H1643     1.0  0.75265  0.62279  0.21038  1.0000
  H   H1644     1.0  0.83996  0.64481  0.26299  1.0000
  H   H1645     1.0  0.69421  0.57027  0.23961  1.0000
  S   S411      1.0  0.79646  0.61967  0.12505  1.0000
  H   H1646     1.0  0.70742  0.51532  0.44955  1.0000
  H   H1647     1.0  0.71399  0.54490  0.24184  1.0000
  C   C1024     1.0  0.74607  0.64263  0.16986  1.0000
  H   H1648     1.0  0.70700  0.53531  0.48607  1.0000
  C   C1025     1.0  0.79160  0.58799  0.01790  1.0000
  C   C1026     1.0  0.81301  0.53089  0.06691  1.0000
  H   H1649     1.0  0.86723  0.60504  0.37793  1.0000
  N   N104      1.0  0.76453  0.63552  0.01158  1.0000
  H   H1650     1.0  0.72932  0.56024  0.28521  1.0000
  C   C1027     1.0  0.76776  0.54634  0.22173  1.0000
  C   C1028     1.0  0.76004  0.53377  0.22373  1.0000
  C   C1029     1.0  0.75225  0.52665  0.25690  1.0000
  C   C1030     1.0  0.75238  0.53186  0.28855  1.0000
  C   C1031     1.0  0.76015  0.54439  0.28653  1.0000
  C   C1032     1.0  0.76762  0.55174  0.25327  1.0000
  H   H1651     1.0  0.76016  0.52944  0.19952  1.0000
  H   H1652     1.0  0.74644  0.51693  0.25807  1.0000
  H   H1653     1.0  0.76037  0.54847  0.31087  1.0000
  H   H1654     1.0  0.77362  0.56132  0.25218  1.0000
  H   H1655     1.0  0.78639  0.58520  0.04576  1.0000
  H   H1656     1.0  0.74678  0.63838  0.25929  1.0000
  H   H1657     1.0  0.69158  0.54881  0.33369  1.0000
  C   C1033     1.0  0.83999  0.63922  0.24066  1.0000
  H   H1658     1.0  0.72256  0.56901  0.24362  1.0000
  H   H1659     1.0  0.85693  0.64652  0.33339  1.0000
  S   S412      1.0  0.75177  0.63206  0.13439  1.0000
  C   C1034     1.0  0.74837  0.63528  0.20468  1.0000
  H   H1660     1.0  0.81462  0.56737  0.07917  1.0000
  H   H1661     1.0  0.66087  0.64534  0.43600  1.0000
  H   H1662     1.0  0.81544  0.56091  0.03785  1.0000
  H   H1663     1.0  0.70006  0.53672  0.27799  1.0000
  H   H1664     1.0  0.67223  0.58070  0.47430  1.0000
  H   H1665     1.0  0.82489  0.53436  0.12262  1.0000
  S   S413      1.0  0.81077  0.58211  0.14861  1.0000
  C   C1035     1.0  0.69162  0.56779  0.26950  1.0000
  C   C1036     1.0  0.82812  0.62298  0.21338  1.0000
  C   C1037     1.0  0.70157  0.55534  0.32427  1.0000
  C   C1038     1.0  0.81221  0.53956  0.12257  1.0000
  H   H1666     1.0  0.69809  0.56648  0.33522  1.0000
  H   H1667     1.0  0.71986  0.53539  0.28405  1.0000
  C   C1039     1.0  0.71005  0.54321  0.27146  1.0000
  H   H1668     1.0  0.71575  0.57861  0.28213  1.0000
  H   H1669     1.0  0.89553  0.61961  0.33707  1.0000
  N   N105      1.0  0.70552  0.55834  0.28462  1.0000
  C   C1040     1.0  0.87405  0.62546  0.29289  1.0000
  H   H1670     1.0  0.78843  0.55466  0.05984  1.0000
  C   C1041     1.0  0.71884  0.56697  0.27335  1.0000
  N   N106      1.0  0.80865  0.54453  0.08564  1.0000
  H   H1671     1.0  0.71182  0.54815  0.33653  1.0000
  H   H1672     1.0  0.68144  0.56147  0.27758  1.0000
  S   S414      1.0  0.86802  0.65002  0.20862  1.0000
  H   H1673     1.0  0.78797  0.56123  0.10097  1.0000
  C   C1042     1.0  0.70192  0.51377  0.47747  1.0000
  H   H1674     1.0  0.78433  0.54203  0.10265  1.0000
  C   C1043     1.0  0.81776  0.55685  0.06590  1.0000
  C   C1044     1.0  0.79161  0.55087  0.08720  1.0000
  S   S415      1.0  0.81389  0.59923  0.04147  1.0000
  H   H1675     1.0  0.83068  0.55260  0.06446  1.0000
  H   H1676     1.0  0.73944  0.64237  0.02699  1.0000
  S   S416      1.0  0.81301  0.61200  0.21692  1.0000
  H   H1677     1.0  0.81042  0.53429  0.03899  1.0000
  H   H1678     1.0  0.80938  0.54968  0.13711  1.0000
  C   C1045     1.0  0.77864  0.63019  0.02909  1.0000
  H   H1679     1.0  0.80507  0.53073  0.13883  1.0000
  C   C1046     1.0  0.74495  0.64409  0.23240  1.0000
  H   H1680     1.0  0.86457  0.62220  0.28247  1.0000
  H   H1681     1.0  0.75106  0.64738  0.05449  1.0000
  C   C1047     1.0  0.80495  0.59504  0.00839  1.0000
  H   H1682     1.0  0.87465  0.63789  0.28034  1.0000
  N   N107      1.0  0.87096  0.62345  0.33255  1.0000
  H   H1683     1.0  0.81927  0.62920  0.26585  1.0000
  H   H1684     1.0  0.88198  0.62657  0.37471  1.0000
  C   C1048     1.0  0.85199  0.64042  0.21066  1.0000
  H   H1685     1.0  0.85961  0.60361  0.33928  1.0000
  C   C1049     1.0  0.78318  0.64772  0.22323  1.0000
  C   C1050     1.0  0.82828  0.63036  0.24218  1.0000
  C   C1051     1.0  0.83983  0.62459  0.18296  1.0000
  H   H1686     1.0  0.77796  0.61894  0.04834  1.0000
  H   H1687     1.0  0.86105  0.63388  0.15858  1.0000
  C   C1052     1.0  0.86950  0.60695  0.34802  1.0000
  C   C1053     1.0  0.85179  0.63308  0.18186  1.0000
  H   H1688     1.0  0.88048  0.59869  0.33945  1.0000
  C   C1054     1.0  0.75033  0.63829  0.03921  1.0000
  H   H1689     1.0  0.83991  0.61899  0.16062  1.0000
  H   H1690     1.0  0.88542  0.61817  0.28271  1.0000
  H   H1691     1.0  0.85348  0.63293  0.37414  1.0000
  C   C1055     1.0  0.88414  0.62743  0.34496  1.0000
  C   C1056     1.0  0.85613  0.63399  0.34434  1.0000
  H   H1692     1.0  0.77490  0.57853  0.99895  1.0000
  C   C1057     1.0  0.69538  0.50035  0.49313  1.0000
  H   H1693     1.0  0.67436  0.64875  0.31186  1.0000
  H   H1694     1.0  0.78964  0.62814  0.00908  1.0000
  S   S417      1.0  0.67101  0.52896  0.31727  1.0000
  H   H1695     1.0  0.79490  0.64970  0.15284  1.0000
  S   S418      1.0  0.68790  0.48638  0.37414  1.0000
  H   H1696     1.0  0.74884  0.62741  0.05931  1.0000
  H   H1697     1.0  0.76171  0.61205  0.01089  1.0000
  H   H1698     1.0  0.77364  0.65145  0.24527  1.0000
  H   H1699     1.0  0.77994  0.63895  0.04457  1.0000
  H   H1700     1.0  0.79289  0.63973  0.23593  1.0000
  H   H1701     1.0  0.67685  0.55186  0.49372  1.0000
  H   H1702     1.0  0.81058  0.64765  0.17720  1.0000
  Fe  Fe209     1.0  0.78812  0.58808  0.86154  1.0000
  S   S419      1.0  0.79526  0.60999  0.82616  1.0000
  S   S420      1.0  0.78303  0.58229  0.92282  1.0000
  Fe  Fe210     1.0  0.78255  0.57527  0.79742  1.0000
  S   S421      1.0  0.78884  0.59632  0.75736  1.0000
  S   S422      1.0  0.77717  0.55322  0.78440  1.0000
  Fe  Fe211     1.0  0.80873  0.59435  0.78690  1.0000
  Fe  Fe212     1.0  0.77501  0.61026  0.79921  1.0000
  C   C1058     1.0  0.71678  0.62796  0.83408  1.0000
  S   S423      1.0  0.80357  0.57213  0.82477  1.0000
  S   S424      1.0  0.76669  0.58957  0.83683  1.0000
  Fe  Fe213     1.0  0.72312  0.52898  0.66670  1.0000
  S   S425      1.0  0.71517  0.50878  0.70773  1.0000
  S   S426      1.0  0.73770  0.54706  0.66897  1.0000
  Fe  Fe214     1.0  0.70184  0.52614  0.61542  1.0000
  S   S427      1.0  0.69186  0.50618  0.65259  1.0000
  S   S428      1.0  0.69558  0.53684  0.56058  1.0000
  Fe  Fe215     1.0  0.69087  0.52005  0.69575  1.0000
  C   C1059     1.0  0.85395  0.64811  0.76144  1.0000
  H   H1703     1.0  0.67808  0.56917  0.53545  1.0000
  S   S429      1.0  0.69859  0.54085  0.65788  1.0000
  S   S430      1.0  0.72697  0.51582  0.62079  1.0000
  C   C1060     1.0  0.75111  0.64072  0.88642  1.0000
  H   H1704     1.0  0.82361  0.53849  0.68878  1.0000
  H   H1705     1.0  0.80117  0.56856  0.66337  1.0000
  H   H1706     1.0  0.82186  0.60404  0.96418  1.0000
  H   H1707     1.0  0.68244  0.57417  0.78693  1.0000
  H   H1708     1.0  0.68611  0.63366  0.82441  1.0000
  C   C1061     1.0  0.68861  0.49830  0.52962  1.0000
  C   C1062     1.0  0.68871  0.50942  0.55058  1.0000
  C   C1063     1.0  0.69535  0.52278  0.53492  1.0000
  H   H1709     1.0  0.72509  0.56117  0.75310  1.0000
  C   C1064     1.0  0.78510  0.58420  0.99127  1.0000
  H   H1710     1.0  0.68355  0.50771  0.57878  1.0000
  H   H1711     1.0  0.71621  0.53931  0.73667  1.0000
  S   S431      1.0  0.75939  0.63325  0.78439  1.0000
  C   C1065     1.0  0.76307  0.62332  0.99223  1.0000
  H   H1712     1.0  0.68953  0.56523  0.71247  1.0000
  C   C1066     1.0  0.76531  0.55204  0.75354  1.0000
  C   C1067     1.0  0.76078  0.56487  0.72730  1.0000
  C   C1068     1.0  0.75250  0.56304  0.70141  1.0000
  C   C1069     1.0  0.74821  0.54854  0.70215  1.0000
  C   C1070     1.0  0.75230  0.53585  0.72907  1.0000
  C   C1071     1.0  0.76099  0.53756  0.75433  1.0000
  H   H1713     1.0  0.76389  0.57611  0.72652  1.0000
  H   H1714     1.0  0.74931  0.57294  0.68077  1.0000
  H   H1715     1.0  0.74913  0.52462  0.72989  1.0000
  H   H1716     1.0  0.76448  0.52756  0.77447  1.0000
  H   H1717     1.0  0.76110  0.62117  0.85900  1.0000
  C   C1072     1.0  0.79166  0.58769  0.95474  1.0000
  C   C1073     1.0  0.82221  0.64236  0.70415  1.0000
  H   H1718     1.0  0.71697  0.61734  0.85553  1.0000
  C   C1074     1.0  0.81708  0.55641  0.73974  1.0000
  H   H1719     1.0  0.69565  0.53822  0.74575  1.0000
  H   H1720     1.0  0.81602  0.58620  0.70399  1.0000
  H   H1721     1.0  0.83564  0.57542  0.69635  1.0000
  H   H1722     1.0  0.85817  0.60824  0.70113  1.0000
  H   H1723     1.0  0.81001  0.59776  0.91700  1.0000
  H   H1724     1.0  0.84017  0.54763  0.68676  1.0000
  N   N108      1.0  0.81752  0.56191  0.70073  1.0000
  H   H1725     1.0  0.77654  0.64857  0.96423  1.0000
  H   H1726     1.0  0.82853  0.55363  0.65146  1.0000
  H   H1727     1.0  0.72080  0.49696  0.54073  1.0000
  H   H1728     1.0  0.70272  0.65221  0.78931  1.0000
  C   C1075     1.0  0.84931  0.63252  0.67996  1.0000
  H   H1729     1.0  0.81211  0.65184  0.70523  1.0000
  C   C1076     1.0  0.80140  0.56448  0.69258  1.0000
  C   C1077     1.0  0.66517  0.56966  0.54495  1.0000
  H   H1730     1.0  0.70651  0.53416  0.78210  1.0000
  H   H1731     1.0  0.71005  0.56641  0.70318  1.0000
  C   C1078     1.0  0.70177  0.52503  0.49825  1.0000
  C   C1079     1.0  0.83396  0.61529  0.72524  1.0000
  C   C1080     1.0  0.80483  0.59505  0.94505  1.0000
  C   C1081     1.0  0.81151  0.59859  0.97184  1.0000
  H   H1732     1.0  0.75137  0.63362  0.91283  1.0000
  H   H1733     1.0  0.71575  0.55582  0.79850  1.0000
  H   H1734     1.0  0.81001  0.62589  0.74367  1.0000
  H   H1735     1.0  0.75264  0.62707  0.97833  1.0000
  C   C1082     1.0  0.70502  0.54186  0.75578  1.0000
  C   C1083     1.0  0.75516  0.64258  0.82172  1.0000
  H   H1736     1.0  0.70598  0.63498  0.90021  1.0000
  C   C1084     1.0  0.69902  0.56830  0.72320  1.0000
  H   H1737     1.0  0.69591  0.58109  0.72433  1.0000
  Fe  Fe216     1.0  0.71680  0.49647  0.66105  1.0000
  H   H1738     1.0  0.74118  0.49559  0.54251  1.0000
  C   C1085     1.0  0.82364  0.57682  0.68977  1.0000
  C   C1086     1.0  0.82794  0.54988  0.68102  1.0000
  H   H1739     1.0  0.68337  0.48803  0.54183  1.0000
  C   C1087     1.0  0.68609  0.56153  0.78451  1.0000
  C   C1088     1.0  0.71375  0.56304  0.77195  1.0000
  H   H1740     1.0  0.81255  0.54516  0.74914  1.0000
  N   N109      1.0  0.70097  0.55869  0.75887  1.0000
  H   H1741     1.0  0.66393  0.55994  0.56845  1.0000
  H   H1742     1.0  0.71108  0.57565  0.77471  1.0000
  C   C1089     1.0  0.75654  0.63366  0.85588  1.0000
  H   H1743     1.0  0.72786  0.48927  0.58232  1.0000
  H   H1744     1.0  0.82893  0.55470  0.74732  1.0000
  H   H1745     1.0  0.88337  0.64619  0.77387  1.0000
  H   H1746     1.0  0.80908  0.56509  0.75519  1.0000
  H   H1747     1.0  0.79325  0.57349  0.70709  1.0000
  H   H1748     1.0  0.82428  0.58131  0.66044  1.0000
  H   H1749     1.0  0.87998  0.64039  0.71516  1.0000
  C   C1090     1.0  0.84812  0.61777  0.70208  1.0000
  H   H1750     1.0  0.72850  0.63141  0.82954  1.0000
  C   C1091     1.0  0.83636  0.64493  0.68117  1.0000
  H   H1751     1.0  0.68717  0.55454  0.81174  1.0000
  H   H1752     1.0  0.67881  0.64504  0.85957  1.0000
  H   H1753     1.0  0.79631  0.55352  0.70116  1.0000
  H   H1754     1.0  0.71740  0.64923  0.87415  1.0000
  C   C1092     1.0  0.82100  0.62764  0.72605  1.0000
  S   S432      1.0  0.83269  0.59673  0.75293  1.0000
  H   H1755     1.0  0.86020  0.63424  0.66193  1.0000
  C   C1093     1.0  0.68861  0.63588  0.84976  1.0000
  N   N110      1.0  0.70397  0.64094  0.84412  1.0000
  H   H1756     1.0  0.68816  0.62499  0.87026  1.0000
  C   C1094     1.0  0.76606  0.65028  0.98575  1.0000
  C   C1095     1.0  0.73091  0.48952  0.55278  1.0000
  H   H1757     1.0  0.66660  0.55402  0.69721  1.0000
  H   H1758     1.0  0.85994  0.63565  0.76797  1.0000
  H   H1759     1.0  0.71566  0.62458  0.80873  1.0000
  H   H1760     1.0  0.84517  0.64830  0.74435  1.0000
  S   S433      1.0  0.67062  0.52235  0.74184  1.0000
  H   H1761     1.0  0.77368  0.62079  0.97142  1.0000
  C   C1096     1.0  0.70604  0.64515  0.87764  1.0000
  H   H1762     1.0  0.66278  0.54270  0.52726  1.0000
  H   H1763     1.0  0.67629  0.55812  0.77575  1.0000
  C   C1097     1.0  0.66402  0.55273  0.50451  1.0000
  H   H1764     1.0  0.84725  0.65180  0.78696  1.0000
  H   H1765     1.0  0.66027  0.58098  0.55483  1.0000
  Fe  Fe217     1.0  0.80718  0.77767  0.36814  1.0000
  S   S434      1.0  0.78500  0.77215  0.40425  1.0000
  H   H1766     1.0  0.68171  0.67413  0.13287  1.0000
  C   C1098     1.0  0.77516  0.67232  0.18487  1.0000
  S   S435      1.0  0.76650  0.80301  0.35531  1.0000
  Fe  Fe218     1.0  0.77882  0.79817  0.40361  1.0000
  S   S436      1.0  0.76718  0.80789  0.45483  1.0000
  Fe  Fe219     1.0  0.77440  0.77711  0.35368  1.0000
  S   S437      1.0  0.76133  0.75805  0.34915  1.0000
  S   S438      1.0  0.80202  0.80336  0.37083  1.0000
  S   S439      1.0  0.79728  0.78058  0.31784  1.0000
  S   S440      1.0  0.71746  0.75153  0.24241  1.0000
  Fe  Fe220     1.0  0.71981  0.69376  0.24166  1.0000
  S   S441      1.0  0.73619  0.67155  0.25910  1.0000
  S   S442      1.0  0.72861  0.71314  0.20031  1.0000
  H   H1767     1.0  0.92694  0.71918  0.01488  1.0000
  H   H1768     1.0  0.91730  0.71599  0.07960  1.0000
  H   H1769     1.0  0.72188  0.79452  0.39005  1.0000
  C   C1099     1.0  0.69098  0.72336  0.07668  1.0000
  Fe  Fe221     1.0  0.68544  0.70892  0.24383  1.0000
  S   S443      1.0  0.70334  0.70946  0.27741  1.0000
  H   H1770     1.0  0.88041  0.70331  0.47649  1.0000
  H   H1771     1.0  0.87009  0.70065  0.42318  1.0000
  C   C1100     1.0  0.72967  0.78281  0.39444  1.0000
  C   C1101     1.0  0.80182  0.73612  0.22957  1.0000
  H   H1772     1.0  0.67456  0.70851  0.17792  1.0000
  N   N111      1.0  0.78791  0.74881  0.23399  1.0000
  H   H1773     1.0  0.70742  0.78823  0.45171  1.0000
  H   H1774     1.0  0.76610  0.67655  0.20720  1.0000
  H   H1775     1.0  0.81220  0.73226  0.30499  1.0000
  H   H1776     1.0  0.78603  0.74602  0.29134  1.0000
  H   H1777     1.0  0.68042  0.67510  0.28314  1.0000
  H   H1778     1.0  0.83815  0.71181  0.46739  1.0000
  H   H1779     1.0  0.73301  0.68015  0.18431  1.0000
  C   C1102     1.0  0.73933  0.66028  0.22524  1.0000
  C   C1103     1.0  0.84908  0.71000  0.47903  1.0000
  H   H1780     1.0  0.79972  0.76668  0.19922  1.0000
  C   C1104     1.0  0.82077  0.74523  0.33561  1.0000
  C   C1105     1.0  0.71161  0.70480  0.04826  1.0000
  C   C1106     1.0  0.78894  0.76156  0.20238  1.0000
  H   H1781     1.0  0.94606  0.81721  0.11818  1.0000
  S   S444      1.0  0.66006  0.70517  0.26345  1.0000
  N   N112      1.0  0.66528  0.69182  0.15906  1.0000
  H   H1782     1.0  0.95752  0.73778  0.03383  1.0000
  H   H1783     1.0  0.77332  0.73736  0.21354  1.0000
  C   C1107     1.0  0.80024  0.65597  0.16795  1.0000
  H   H1784     1.0  0.78931  0.75723  0.17716  1.0000
  S   S445      1.0  0.69156  0.72992  0.20229  1.0000
  C   C1108     1.0  0.70519  0.71259  0.07760  1.0000
  H   H1785     1.0  0.95984  0.70900  0.03584  1.0000
  H   H1786     1.0  0.80925  0.74879  0.35092  1.0000
  C   C1109     1.0  0.74897  0.75670  0.31937  1.0000
  C   C1110     1.0  0.74299  0.76968  0.29512  1.0000
  C   C1111     1.0  0.73323  0.76792  0.27209  1.0000
  C   C1112     1.0  0.72947  0.75317  0.27269  1.0000
  C   C1113     1.0  0.73550  0.74020  0.29690  1.0000
  C   C1114     1.0  0.74510  0.74200  0.32022  1.0000
  H   H1787     1.0  0.74579  0.78109  0.29417  1.0000
  H   H1788     1.0  0.72859  0.77803  0.25351  1.0000
  H   H1789     1.0  0.73269  0.72880  0.29778  1.0000
  H   H1790     1.0  0.74961  0.73188  0.33891  1.0000
  H   H1791     1.0  0.81300  0.74056  0.22651  1.0000
  Fe  Fe222     1.0  0.70881  0.71227  0.17253  1.0000
  H   H1792     1.0  0.72262  0.69649  0.04868  1.0000
  S   S446      1.0  0.70140  0.69160  0.21214  1.0000
  H   H1793     1.0  0.86253  0.74288  0.43171  1.0000
  C   C1115     1.0  0.83262  0.79615  0.28385  1.0000
  H   H1794     1.0  0.77857  0.77131  0.20489  1.0000
  Fe  Fe223     1.0  0.98989  0.77458  0.07826  1.0000
  H   H1795     1.0  0.83083  0.78404  0.29701  1.0000
  C   C1116     1.0  0.94706  0.73699  0.05560  1.0000
  H   H1796     1.0  0.73829  0.66451  0.13600  1.0000
  C   C1117     1.0  0.68330  0.72620  0.04669  1.0000
  C   C1118     1.0  0.82241  0.73592  0.30956  1.0000
  H   H1797     1.0  0.76270  0.75185  0.24000  1.0000
  H   H1798     1.0  0.87104  0.78671  0.24578  1.0000
  H   H1799     1.0  0.66540  0.71645  0.13911  1.0000
  H   H1800     1.0  0.74225  0.75691  0.46593  1.0000
  C   C1119     1.0  0.77471  0.80048  0.49558  1.0000
  C   C1120     1.0  0.78754  0.75511  0.26666  1.0000
  N   N113      1.0  0.73114  0.77737  0.43273  1.0000
  H   H1801     1.0  0.80668  0.66160  0.22834  1.0000
  C   C1121     1.0  0.71534  0.77652  0.45447  1.0000
  H   H1802     1.0  0.79866  0.75931  0.26571  1.0000
  C   C1122     1.0  0.66827  0.67350  0.29105  1.0000
  C   C1123     1.0  0.73683  0.66758  0.19049  1.0000
  H   H1803     1.0  0.86844  0.79396  0.30596  1.0000
  N   N114      1.0  0.84950  0.79727  0.27632  1.0000
  C   C1124     1.0  0.85132  0.81356  0.25941  1.0000
  H   H1804     1.0  0.77760  0.76517  0.27016  1.0000
  H   H1805     1.0  0.80165  0.72644  0.25334  1.0000
  H   H1806     1.0  0.80248  0.73090  0.20544  1.0000
  C   C1125     1.0  0.77337  0.74248  0.23741  1.0000
  S   S447      1.0  0.97921  0.75518  0.06822  1.0000
  H   H1807     1.0  0.84915  0.80071  0.32992  1.0000
  C   C1126     1.0  0.74001  0.65873  0.16293  1.0000
  C   C1127     1.0  0.73833  0.78853  0.44476  1.0000
  H   H1808     1.0  0.68611  0.72969  0.09871  1.0000
  Fe  Fe224     1.0  0.71093  0.72906  0.23372  1.0000
  S   S448      1.0  0.71552  0.70841  0.11430  1.0000
  H   H1809     1.0  0.85063  0.74024  0.47567  1.0000
  H   H1810     1.0  0.80053  0.67998  0.20033  1.0000
  H   H1811     1.0  0.85457  0.71546  0.40657  1.0000
  H   H1812     1.0  0.77195  0.73314  0.26162  1.0000
  H   H1813     1.0  0.69072  0.68710  0.14859  1.0000
  S   S449      1.0  0.86954  0.66419  0.37405  1.0000
  C   C1128     1.0  0.66479  0.65856  0.30737  1.0000
  H   H1814     1.0  0.67239  0.73463  0.04601  1.0000
  H   H1815     1.0  0.67334  0.68090  0.20889  1.0000
  H   H1816     1.0  0.79284  0.78252  0.47470  1.0000
  C   C1129     1.0  0.93345  0.72816  0.01777  1.0000
  C   C1130     1.0  0.68974  0.71832  0.01743  1.0000
  H   H1817     1.0  0.92552  0.73983  0.01379  1.0000
  C   C1131     1.0  0.87529  0.66731  0.47403  1.0000
  H   H1818     1.0  0.74133  0.78394  0.37738  1.0000
  H   H1819     1.0  0.95128  0.73464  0.08179  1.0000
  C   C1132     1.0  0.84896  0.74461  0.32327  1.0000
  S   S450      1.0  0.85403  0.67665  0.28658  1.0000
  Fe  Fe225     1.0  0.89463  0.68855  0.24416  1.0000
  S   S451      1.0  0.89190  0.66362  0.27020  1.0000
  S   S452      1.0  0.91928  0.69355  0.21927  1.0000
  Fe  Fe226     1.0  0.87128  0.66760  0.24106  1.0000
  Fe  Fe227     1.0  0.87474  0.67454  0.31421  1.0000
  C   C1133     1.0  0.92461  0.72437  0.08202  1.0000
  S   S453      1.0  0.87537  0.69167  0.21187  1.0000
  S   S454      1.0  0.87901  0.69903  0.29058  1.0000
  Fe  Fe228     1.0  0.95590  0.76776  0.09407  1.0000
  S   S455      1.0  0.96682  0.78586  0.10892  1.0000
  S   S456      1.0  0.93355  0.75919  0.12589  1.0000
  Fe  Fe229     1.0  0.97448  0.77153  0.01719  1.0000
  H   H1820     1.0  0.72485  0.77438  0.38394  1.0000
  Fe  Fe230     1.0  0.96250  0.79999  0.05496  1.0000
  S   S457      1.0  0.95050  0.78267  0.04153  1.0000
  Fe  Fe231     1.0  0.79049  0.80608  0.32268  1.0000
  Fe  Fe232     1.0  0.85962  0.70029  0.25993  1.0000
  H   H1821     1.0  0.95328  0.70629  0.08368  1.0000
  H   H1822     1.0  0.85689  0.77395  0.26374  1.0000
  C   C1134     1.0  0.86504  0.71345  0.41999  1.0000
  H   H1823     1.0  0.75344  0.76196  0.42224  1.0000
  C   C1135     1.0  0.74126  0.76161  0.43724  1.0000
  C   C1136     1.0  0.92314  0.71203  0.19442  1.0000
  C   C1137     1.0  0.93885  0.71394  0.18084  1.0000
  C   C1138     1.0  0.94235  0.72838  0.16043  1.0000
  C   C1139     1.0  0.93012  0.74105  0.15334  1.0000
  C   C1140     1.0  0.91444  0.73914  0.16701  1.0000
  C   C1141     1.0  0.91095  0.72473  0.18741  1.0000
  H   H1824     1.0  0.94835  0.70419  0.18631  1.0000
  H   H1825     1.0  0.95448  0.72970  0.15030  1.0000
  H   H1826     1.0  0.90490  0.74886  0.16163  1.0000
  H   H1827     1.0  0.89882  0.72341  0.19769  1.0000
  C   C1142     1.0  0.87743  0.66795  0.40944  1.0000
  H   H1828     1.0  0.77881  0.68283  0.16623  1.0000
  H   H1829     1.0  0.70963  0.76818  0.44598  1.0000
  N   N115      1.0  0.78872  0.66139  0.19852  1.0000
  S   S458      1.0  0.83143  0.76333  0.37076  1.0000
  H   H1830     1.0  0.82738  0.79927  0.25885  1.0000
  H   H1831     1.0  0.85920  0.74815  0.32812  1.0000
  H   H1832     1.0  0.86209  0.73162  0.28183  1.0000
  C   C1143     1.0  0.89859  0.67388  0.43307  1.0000
  H   H1833     1.0  0.82566  0.80434  0.30203  1.0000
  H   H1834     1.0  0.76725  0.65976  0.99931  1.0000
  C   C1144     1.0  0.86902  0.66549  0.44476  1.0000
  C   C1145     1.0  0.94918  0.70920  0.05722  1.0000
  H   H1835     1.0  0.91696  0.73621  0.08180  1.0000
  C   C1146     1.0  0.79628  0.66953  0.21803  1.0000
  H   H1836     1.0  0.92811  0.72058  0.10901  1.0000
  H   H1837     1.0  0.73668  0.75301  0.42679  1.0000
  S   S459      1.0  0.83890  0.72006  0.25636  1.0000
  H   H1838     1.0  0.76927  0.66646  0.16997  1.0000
  H   H1839     1.0  0.73122  0.80064  0.44143  1.0000
  C   C1147     1.0  0.83398  0.74985  0.34196  1.0000
  N   N116      1.0  0.93857  0.72468  0.05315  1.0000
  C   C1148     1.0  0.89025  0.67124  0.46843  1.0000
  H   H1840     1.0  0.89882  0.67427  0.37671  1.0000
  C   C1149     1.0  0.89215  0.67244  0.40366  1.0000
  C   C1150     1.0  0.83727  0.73105  0.29006  1.0000
  H   H1841     1.0  0.91020  0.67686  0.42843  1.0000
  C   C1151     1.0  0.66465  0.70795  0.16488  1.0000
  H   H1842     1.0  0.75031  0.78933  0.42904  1.0000
  S   S460      1.0  0.98625  0.79014  0.02567  1.0000
  H   H1843     1.0  0.78790  0.67359  0.24151  1.0000
  C   C1152     1.0  0.87506  0.71604  0.47167  1.0000
  C   C1153     1.0  0.70393  0.70759  0.01841  1.0000
  H   H1844     1.0  0.93931  0.74880  0.05353  1.0000
  C   C1154     1.0  0.85579  0.79297  0.31040  1.0000
  H   H1845     1.0  0.71601  0.77247  0.48353  1.0000
  N   N117      1.0  0.86080  0.71884  0.45504  1.0000
  H   H1846     1.0  0.85479  0.78065  0.32358  1.0000
  H   H1847     1.0  0.94312  0.69962  0.05574  1.0000
  H   H1848     1.0  0.84323  0.73840  0.43701  1.0000
  C   C1155     1.0  0.85400  0.73583  0.44965  1.0000
  C   C1156     1.0  0.85059  0.73523  0.29718  1.0000
  H   H1849     1.0  0.85385  0.69713  0.48368  1.0000
  H   H1850     1.0  0.73970  0.78488  0.47352  1.0000
  H   H1851     1.0  0.87399  0.71975  0.40128  1.0000
  H   H1852     1.0  0.88428  0.72238  0.45428  1.0000
  C   C1157     1.0  0.68049  0.68649  0.13654  1.0000
  H   H1853     1.0  0.80471  0.66596  0.14876  1.0000
  C   C1158     1.0  0.85820  0.78633  0.25180  1.0000
  H   H1854     1.0  0.85767  0.66192  0.44959  1.0000
  C   C1159     1.0  0.66372  0.68110  0.19413  1.0000
  H   H1855     1.0  0.85376  0.78930  0.22579  1.0000
  H   H1856     1.0  0.68174  0.69393  0.10934  1.0000
  H   H1857     1.0  0.66415  0.66880  0.19099  1.0000
  H   H1858     1.0  0.84598  0.81750  0.23453  1.0000
  H   H1859     1.0  0.86394  0.81479  0.25212  1.0000
  S   S461      1.0  0.71480  0.70904  0.90520  1.0000
  S   S462      1.0  0.71257  0.73275  0.80561  1.0000
  Fe  Fe233     1.0  0.71472  0.68400  0.90319  1.0000
  C   C1160     1.0  0.79487  0.72239  0.68076  1.0000
  S   S463      1.0  0.89919  0.67236  0.50479  1.0000
  S   S464      1.0  0.81314  0.79721  0.65935  1.0000
  Fe  Fe234     1.0  0.78410  0.77945  0.73891  1.0000
  S   S465      1.0  0.79882  0.76543  0.69787  1.0000
  S   S466      1.0  0.77047  0.76734  0.79017  1.0000
  Fe  Fe235     1.0  0.81851  0.77667  0.70236  1.0000
  H   H1860     1.0  0.79591  0.71311  0.70509  1.0000
  Fe  Fe236     1.0  0.79254  0.78679  0.65643  1.0000
  H   H1861     1.0  0.72309  0.74793  0.95089  1.0000
  S   S467      1.0  0.80467  0.78902  0.74701  1.0000
  H   H1862     1.0  0.68547  0.77353  0.93053  1.0000
  S   S468      1.0  0.84326  0.76280  0.69864  1.0000
  S   S469      1.0  0.79282  0.77988  0.60264  1.0000
  S   S470      1.0  0.67969  0.71668  0.88085  1.0000
  H   H1863     1.0  0.99044  0.79736  0.86281  1.0000
  C   C1161     1.0  0.81369  0.70592  0.64294  1.0000
  H   H1864     1.0  0.86881  0.66507  0.50107  1.0000
  Fe  Fe237     1.0  0.70517  0.71448  0.85371  1.0000
  H   H1865     1.0  0.97942  0.80552  0.80686  1.0000
  H   H1866     1.0  0.80546  0.74594  0.63027  1.0000
  S   S471      1.0  0.67998  0.72242  0.97978  1.0000
  H   H1867     1.0  0.88347  0.65993  0.69622  1.0000
  H   H1868     1.0  0.94372  0.72837  0.99537  1.0000
  H   H1869     1.0  0.78489  0.72092  0.66902  1.0000
  Fe  Fe238     1.0  0.68967  0.70943  0.93250  1.0000
  C   C1162     1.0  0.84702  0.75488  0.65902  1.0000
  C   C1163     1.0  0.72938  0.74144  0.80070  1.0000
  C   C1164     1.0  0.73351  0.75199  0.76901  1.0000
  C   C1165     1.0  0.74639  0.75964  0.76483  1.0000
  C   C1166     1.0  0.75507  0.75702  0.79265  1.0000
  C   C1167     1.0  0.75100  0.74640  0.82424  1.0000
  C   C1168     1.0  0.73835  0.73849  0.82808  1.0000
  H   H1870     1.0  0.72663  0.75433  0.74769  1.0000
  H   H1871     1.0  0.74934  0.76786  0.74049  1.0000
  H   H1872     1.0  0.75773  0.74424  0.84578  1.0000
  H   H1873     1.0  0.73551  0.73019  0.85227  1.0000
  C   C1169     1.0  0.71487  0.76828  0.89217  1.0000
  C   C1170     1.0  0.76770  0.80721  0.52633  1.0000
  C   C1171     1.0  0.85963  0.74249  0.65319  1.0000
  C   C1172     1.0  0.83697  0.76056  0.63363  1.0000
  N   N118      1.0  0.96572  0.80086  0.85989  1.0000
  H   H1874     1.0  0.73951  0.67829  0.84546  1.0000
  H   H1875     1.0  0.92849  0.80988  0.77570  1.0000
  H   H1876     1.0  0.94114  0.79957  0.86641  1.0000
  C   C1173     1.0  0.66607  0.68035  0.79668  1.0000
  H   H1877     1.0  0.83398  0.72251  0.65231  1.0000
  S   S472      1.0  0.70722  0.68914  0.84905  1.0000
  H   H1878     1.0  0.79777  0.73335  0.61023  1.0000
  H   H1879     1.0  0.70649  0.74421  0.87278  1.0000
  H   H1880     1.0  0.86502  0.68289  0.71976  1.0000
  C   C1174     1.0  0.77318  0.80127  0.55932  1.0000
  C   C1175     1.0  0.78574  0.78852  0.56179  1.0000
  H   H1881     1.0  0.82488  0.70482  0.62312  1.0000
  H   H1882     1.0  0.74826  0.66564  0.79151  1.0000
  H   H1883     1.0  0.81532  0.69608  0.66602  1.0000
  S   S473      1.0  0.69025  0.68383  0.93400  1.0000
  C   C1176     1.0  0.71697  0.74357  0.93361  1.0000
  C   C1177     1.0  0.97971  0.79228  0.87581  1.0000
  H   H1884     1.0  0.82707  0.76986  0.63781  1.0000
  C   C1178     1.0  0.69791  0.75007  0.89352  1.0000
  S   S474      1.0  0.77602  0.80030  0.69737  1.0000
  H   H1885     1.0  0.86291  0.78320  0.82819  1.0000
  C   C1179     1.0  0.80778  0.73403  0.62287  1.0000
  H   H1886     1.0  0.72381  0.76303  0.87091  1.0000
  N   N119      1.0  0.80972  0.72142  0.65448  1.0000
  H   H1887     1.0  0.97787  0.79237  0.90518  1.0000
  C   C1180     1.0  0.69408  0.76385  0.94307  1.0000
  H   H1888     1.0  0.98987  0.75998  0.82147  1.0000
  H   H1889     1.0  0.67344  0.68902  0.79351  1.0000
  H   H1890     1.0  0.83356  0.78885  0.84474  1.0000
  C   C1181     1.0  0.96881  0.80044  0.82097  1.0000
  Fe  Fe239     1.0  0.68251  0.69078  0.87965  1.0000
  H   H1891     1.0  0.81856  0.73331  0.60190  1.0000
  H   H1892     1.0  0.79153  0.73399  0.68982  1.0000
  C   C1182     1.0  0.86159  0.78963  0.80058  1.0000
  H   H1893     1.0  0.97100  0.78816  0.81597  1.0000
  H   H1894     1.0  0.80427  0.70399  0.63005  1.0000
  C   C1183     1.0  0.82260  0.72337  0.67131  1.0000
  H   H1895     1.0  0.70693  0.77820  0.87820  1.0000
  H   H1896     1.0  0.82023  0.73507  0.67968  1.0000
  H   H1897     1.0  0.94954  0.79302  0.90699  1.0000
  H   H1898     1.0  0.69092  0.74125  0.91033  1.0000
  H   H1899     1.0  0.82429  0.71421  0.69550  1.0000
  H   H1900     1.0  0.72126  0.77325  0.90775  1.0000
  N   N120      1.0  0.70596  0.75645  0.91558  1.0000
  H   H1901     1.0  0.98673  0.75035  0.90007  1.0000
  H   H1902     1.0  0.95863  0.80702  0.80781  1.0000
  C   C1184     1.0  0.91727  0.81785  0.77661  1.0000
  S   S475      1.0  0.83732  0.66403  0.65597  1.0000
  H   H1903     1.0  0.83120  0.75813  0.58392  1.0000
  H   H1904     1.0  0.71065  0.73435  0.95118  1.0000
  Fe  Fe240     1.0  0.88560  0.67795  0.55894  1.0000
  S   S476      1.0  0.85937  0.68554  0.56496  1.0000
  H   H1905     1.0  0.80240  0.77194  0.53266  1.0000
  Fe  Fe241     1.0  0.88718  0.68658  0.63174  1.0000
  S   S477      1.0  0.86102  0.69498  0.64080  1.0000
  S   S478      1.0  0.89644  0.68785  0.68213  1.0000
  Fe  Fe242     1.0  0.85885  0.67335  0.62252  1.0000
  Fe  Fe243     1.0  0.86415  0.70607  0.58303  1.0000
  S   S479      1.0  0.85190  0.73037  0.56434  1.0000
  S   S480      1.0  0.88500  0.66399  0.61582  1.0000
  S   S481      1.0  0.89036  0.69948  0.57452  1.0000
  H   H1906     1.0  0.89627  0.74268  0.73338  1.0000
  H   H1907     1.0  0.82223  0.80417  0.81699  1.0000
  Fe  Fe244     1.0  0.94003  0.75119  0.82505  1.0000
  S   S482      1.0  0.94346  0.77615  0.80565  1.0000
  S   S483      1.0  0.93453  0.74464  0.88550  1.0000
  Fe  Fe245     1.0  0.94274  0.74439  0.74923  1.0000
  S   S484      1.0  0.94699  0.76892  0.72488  1.0000
  S   S485      1.0  0.94193  0.73080  0.70548  1.0000
  Fe  Fe246     1.0  0.96308  0.76587  0.76522  1.0000
  Fe  Fe247     1.0  0.92725  0.77683  0.76753  1.0000
  S   S486      1.0  0.90594  0.79517  0.75520  1.0000
  S   S487      1.0  0.96057  0.74064  0.78648  1.0000
  S   S488      1.0  0.92211  0.75262  0.79004  1.0000
  C   C1185     1.0  0.95199  0.79333  0.87742  1.0000
  H   H1908     1.0  0.88529  0.66606  0.75331  1.0000
  H   H1909     1.0  0.87134  0.72570  0.61878  1.0000
  C   C1186     1.0  0.94772  0.74982  0.90742  1.0000
  C   C1187     1.0  0.94216  0.75561  0.93973  1.0000
  C   C1188     1.0  0.96875  0.75788  0.94319  1.0000
  C   C1189     1.0  0.70447  0.65480  0.81500  1.0000
  C   C1190     1.0  0.90812  0.70095  0.68780  1.0000
  C   C1191     1.0  0.91743  0.70886  0.65872  1.0000
  C   C1192     1.0  0.92757  0.71802  0.66472  1.0000
  C   C1193     1.0  0.92825  0.71977  0.69971  1.0000
  C   C1194     1.0  0.91851  0.71233  0.72874  1.0000
  C   C1195     1.0  0.90865  0.70285  0.72280  1.0000
  H   H1910     1.0  0.91730  0.70742  0.63169  1.0000
  H   H1911     1.0  0.93515  0.72359  0.64207  1.0000
  H   H1912     1.0  0.91901  0.71341  0.75582  1.0000
  H   H1913     1.0  0.90159  0.69673  0.74554  1.0000
  H   H1914     1.0  0.87831  0.74689  0.71514  1.0000
  H   H1915     1.0  0.87572  0.76762  0.65977  1.0000
  C   C1196     1.0  0.96378  0.74813  0.89300  1.0000
  H   H1916     1.0  0.84466  0.80227  0.74681  1.0000
  H   H1917     1.0  0.89643  0.73784  0.69056  1.0000
  H   H1918     1.0  0.66658  0.68267  0.73968  1.0000
  S   S489      1.0  0.73421  0.66461  0.92054  1.0000
  H   H1919     1.0  0.87040  0.66241  0.79210  1.0000
  H   H1920     1.0  0.84994  0.80758  0.85102  1.0000
  H   H1921     1.0  0.84994  0.67936  0.75816  1.0000
  C   C1197     1.0  0.83317  0.79503  0.81657  1.0000
  H   H1922     1.0  0.69511  0.66488  0.82195  1.0000
  C   C1198     1.0  0.74914  0.65869  0.81794  1.0000
  H   H1923     1.0  0.76740  0.80626  0.58295  1.0000
  N   N121      1.0  0.84736  0.80211  0.80103  1.0000
  C   C1199     1.0  0.85674  0.67475  0.73376  1.0000
  H   H1924     1.0  0.95406  0.78094  0.87319  1.0000
  H   H1925     1.0  0.68726  0.75511  0.96116  1.0000
  C   C1200     1.0  0.84851  0.81343  0.82310  1.0000
  S   S490      1.0  0.98230  0.76327  0.96381  1.0000
  Fe  Fe248     1.0  0.79762  0.80892  0.70336  1.0000
  C   C1201     1.0  0.83931  0.75385  0.60287  1.0000
  H   H1926     1.0  0.69971  0.76880  0.96028  1.0000
  H   H1927     1.0  0.87251  0.79460  0.78908  1.0000
  H   H1928     1.0  0.92969  0.75713  0.95062  1.0000
  C   C1202     1.0  0.74400  0.66580  0.84844  1.0000
  N   N122      1.0  0.89461  0.76251  0.69017  1.0000
  C   C1203     1.0  0.88666  0.77414  0.71352  1.0000
  C   C1204     1.0  0.91181  0.76210  0.68352  1.0000
  C   C1205     1.0  0.88871  0.76698  0.65562  1.0000
  C   C1206     1.0  0.89123  0.74680  0.70813  1.0000
  H   H1929     1.0  0.88929  0.78608  0.70128  1.0000
  H   H1930     1.0  0.89072  0.77092  0.74001  1.0000
  H   H1931     1.0  0.87362  0.77497  0.71844  1.0000
  H   H1932     1.0  0.91825  0.75346  0.66591  1.0000
  H   H1933     1.0  0.91484  0.77380  0.67050  1.0000
  H   H1934     1.0  0.91667  0.75862  0.70903  1.0000
  H   H1935     1.0  0.89426  0.75824  0.63765  1.0000
  H   H1936     1.0  0.89126  0.77867  0.64109  1.0000
  C   C1207     1.0  0.97427  0.75195  0.91110  1.0000
  H   H1937     1.0  0.96815  0.74360  0.86817  1.0000
  H   H1938     1.0  0.94826  0.76446  0.98206  1.0000
  H   H1939     1.0  0.72620  0.73778  0.91373  1.0000
  C   C1208     1.0  0.95264  0.75975  0.95752  1.0000
  H   H1940     1.0  0.86110  0.78085  0.78427  1.0000
  H   H1941     1.0  0.86736  0.73782  0.67277  1.0000
  C   C1209     1.0  0.86181  0.73554  0.62268  1.0000
  H   H1942     1.0  0.68967  0.75947  0.87909  1.0000
  C   C1210     1.0  0.85142  0.74102  0.59793  1.0000
  C   C1211     1.0  0.79273  0.78185  0.53102  1.0000
  H   H1943     1.0  0.71602  0.65878  0.80986  1.0000
  C   C1212     1.0  0.74441  0.65670  0.88270  1.0000
  S   S491      1.0  0.66492  0.67680  0.87083  1.0000
  C   C1213     1.0  0.90443  0.81354  0.76756  1.0000
  H   H1944     1.0  0.98237  0.77975  0.87260  1.0000
  C   C1214     1.0  0.66026  0.67292  0.83116  1.0000
  H   H1945     1.0  0.84828  0.67535  0.71552  1.0000
  H   H1946     1.0  0.75554  0.65467  0.97224  1.0000
  C   C1215     1.0  0.66216  0.67669  0.76616  1.0000
  C   C1216     1.0  0.84613  0.81034  0.76389  1.0000
  S   S492      1.0  0.98627  0.77514  0.74764  1.0000
  H   H1947     1.0  0.83190  0.78638  0.80069  1.0000
  C   C1217     1.0  0.96236  0.81737  0.86538  1.0000
  H   H1948     1.0  0.78845  0.81305  0.61196  1.0000
  N   N123      1.0  0.86534  0.65850  0.74297  1.0000
  H   H1949     1.0  0.84568  0.71376  0.50577  1.0000
  H   H1950     1.0  0.96000  0.81807  0.89451  1.0000
  H   H1951     1.0  0.75784  0.81692  0.52471  1.0000
  H   H1952     1.0  0.85673  0.81557  0.75086  1.0000
  C   C1218     1.0  0.78732  0.78782  0.49808  1.0000
  H   H1953     1.0  0.69649  0.65488  0.88603  1.0000
  C   C1219     1.0  0.87657  0.65826  0.76670  1.0000
  H   H1954     1.0  0.81566  0.81768  0.58679  1.0000
  H   H1955     1.0  0.87229  0.72000  0.49815  1.0000
  H   H1956     1.0  0.70904  0.70144  0.99612  1.0000
  H   H1957     1.0  0.86619  0.65405  0.69012  1.0000
  C   C1220     1.0  0.87413  0.65294  0.70972  1.0000
  S   S493      1.0  0.87170  0.87342  0.13741  1.0000
  C   C1221     1.0  0.82406  0.85078  0.27952  1.0000
  C   C1222     1.0  0.80927  0.83505  0.25957  1.0000
  C   C1223     1.0  0.81519  0.84114  0.22377  1.0000
  H   H1958     1.0  0.82731  0.85464  0.30127  1.0000
  C   C1224     1.0  0.81386  0.83982  0.28743  1.0000
  H   H1959     1.0  0.81162  0.83759  0.20204  1.0000
  H   H1960     1.0  0.82996  0.85668  0.18824  1.0000
  H   H1961     1.0  0.86924  0.84369  0.05689  1.0000
  C   C1225     1.0  0.82559  0.85196  0.21585  1.0000
  C   C1226     1.0  0.82996  0.85693  0.24377  1.0000
  C   C1227     1.0  0.94057  0.82934  0.11069  1.0000
  C   C1228     1.0  0.85402  0.88205  0.04262  1.0000
  S   S494      1.0  0.79617  0.82155  0.26836  1.0000
  H   H1962     1.0  0.90961  0.82424  0.02085  1.0000
  H   H1963     1.0  0.88280  0.86536  0.06050  1.0000
  H   H1964     1.0  0.89803  0.82278  0.08533  1.0000
  S   S495      1.0  0.88896  0.90487  0.12020  1.0000
  C   C1229     1.0  0.86065  0.89529  0.02572  1.0000
  S   S496      1.0  0.87738  0.88887  0.20244  1.0000
  Fe  Fe249     1.0  0.87274  0.91274  0.16850  1.0000
  S   S497      1.0  0.87312  0.93377  0.19345  1.0000
  Fe  Fe250     1.0  0.89186  0.88061  0.15301  1.0000
  S   S498      1.0  0.91485  0.86449  0.16214  1.0000
  C   C1230     1.0  0.88103  0.95083  0.17159  1.0000
  C   C1231     1.0  0.87781  0.96384  0.18916  1.0000
  C   C1232     1.0  0.88450  0.97733  0.17370  1.0000
  C   C1233     1.0  0.89480  0.97778  0.14081  1.0000
  C   C1234     1.0  0.89805  0.96475  0.12321  1.0000
  C   C1235     1.0  0.89105  0.95142  0.13828  1.0000
  H   H1965     1.0  0.87009  0.96348  0.21497  1.0000
  H   H1966     1.0  0.90607  0.96493  0.09788  1.0000
  H   H1967     1.0  0.89364  0.94148  0.12449  1.0000
  C   C1236     1.0  0.90788  0.83725  0.01827  1.0000
  C   C1237     1.0  0.94184  0.83638  0.07446  1.0000
  C   C1238     1.0  0.93465  0.85215  0.06514  1.0000
  C   C1239     1.0  0.92596  0.86073  0.09183  1.0000
  C   C1240     1.0  0.92483  0.85372  0.12807  1.0000
  C   C1241     1.0  0.93228  0.83807  0.13744  1.0000
  S   S499      1.0  0.86456  0.90801  0.05053  1.0000
  H   H1968     1.0  0.93579  0.85773  0.03718  1.0000
  H   H1969     1.0  0.92049  0.87289  0.08447  1.0000
  S   S500      1.0  0.95180  0.82573  0.04008  1.0000
  H   H1970     1.0  0.84596  0.86187  0.03484  1.0000
  H   H1971     1.0  0.80928  0.83536  0.31507  1.0000
  H   H1972     1.0  0.88951  0.97997  0.02883  1.0000
  N   N124      1.0  0.91560  0.90607  0.21949  1.0000
  C   C1242     1.0  0.91866  0.88869  0.22449  1.0000
  C   C1243     1.0  0.90149  0.91149  0.24517  1.0000
  C   C1244     1.0  0.91285  0.91273  0.18242  1.0000
  C   C1245     1.0  0.92937  0.91143  0.22575  1.0000
  H   H1973     1.0  0.90848  0.88424  0.22008  1.0000
  H   H1974     1.0  0.92089  0.88320  0.25208  1.0000
  H   H1975     1.0  0.90313  0.90693  0.27351  1.0000
  H   H1976     1.0  0.89856  0.92459  0.24136  1.0000
  H   H1977     1.0  0.89087  0.90755  0.24135  1.0000
  H   H1978     1.0  0.92291  0.90842  0.16210  1.0000
  H   H1979     1.0  0.91086  0.92582  0.17740  1.0000
  H   H1980     1.0  0.90215  0.90943  0.17746  1.0000
  H   H1981     1.0  0.92739  0.92451  0.22216  1.0000
  H   H1982     1.0  0.94018  0.90760  0.20663  1.0000
  H   H1983     1.0  0.93182  0.90663  0.25349  1.0000
  H   H1984     1.0  0.88061  0.82656  0.03977  1.0000
  Fe  Fe251     1.0  0.85675  0.88316  0.18554  1.0000
  S   S501      1.0  0.84272  0.87071  0.23597  1.0000
  H   H1985     1.0  0.92901  0.88417  0.20500  1.0000
  S   S502      1.0  0.85080  0.90796  0.15517  1.0000
  N   N125      1.0  0.89424  0.84325  0.04434  1.0000
  Fe  Fe252     1.0  0.86738  0.89863  0.10839  1.0000
  H   H1986     1.0  0.85092  0.87963  0.07161  1.0000
  H   H1987     1.0  0.90756  0.83835  0.08740  1.0000
  C   C1246     1.0  0.85124  0.87203  0.02183  1.0000
  H   H1988     1.0  0.88670  0.84018  0.10169  1.0000
  C   C1247     1.0  0.89670  0.83580  0.08129  1.0000
  H   H1989     1.0  0.91904  0.83994  0.02256  1.0000
  H   H1990     1.0  0.90349  0.86387  0.04399  1.0000
  C   C1248     1.0  0.89258  0.86051  0.04029  1.0000
  H   H1991     1.0  0.93153  0.83262  0.16546  1.0000
  H   H1992     1.0  0.88998  0.86660  0.01324  1.0000
  C   C1249     1.0  0.87974  0.83946  0.03746  1.0000
  H   H1993     1.0  0.84922  0.93542  0.00437  1.0000
  H   H1994     1.0  0.83226  0.95062  0.99900  1.0000
  H   H1995     1.0  0.91832  0.97675  0.01473  1.0000
  H   H1996     1.0  0.84537  0.82200  0.27781  1.0000
  H   H1997     1.0  0.84977  0.95512  0.00829  1.0000
  H   H1998     1.0  0.87734  0.84508  0.00995  1.0000
  S   S503      1.0  0.80187  0.83381  0.69758  1.0000
  H   H1999     1.0  0.84954  0.94420  0.90590  1.0000
  C   C1250     1.0  0.80774  0.83901  0.73403  1.0000
  C   C1251     1.0  0.86880  0.94808  0.94774  1.0000
  H   H2000     1.0  0.78610  0.82696  0.64140  1.0000
  H   H2001     1.0  0.87369  0.95537  0.96131  1.0000
  H   H2002     1.0  0.83773  0.82266  0.82517  1.0000
  H   H2003     1.0  0.79530  0.82333  0.77488  1.0000
  H   H2004     1.0  0.84958  0.97837  0.83019  1.0000
  H   H2005     1.0  0.79668  0.85976  0.56925  1.0000
  H   H2006     1.0  0.80271  0.83165  0.82550  1.0000
  H   H2007     1.0  0.87593  0.92932  0.76695  1.0000
  H   H2008     1.0  0.82917  0.86382  0.75110  1.0000
  H   H2009     1.0  0.85017  0.97621  0.95386  1.0000
  C   C1252     1.0  0.85513  0.87518  0.98423  1.0000
  N   N126      1.0  0.79465  0.83538  0.58591  1.0000
  C   C1253     1.0  0.84596  0.96842  0.94018  1.0000
  H   H2010     1.0  0.82107  0.85606  0.70027  1.0000
  C   C1254     1.0  0.82184  0.85497  0.75632  1.0000
  H   H2011     1.0  0.97250  0.82337  0.85242  1.0000
  C   C1255     1.0  0.81724  0.85054  0.72758  1.0000
  H   H2012     1.0  0.78015  0.83686  0.54639  1.0000
  H   H2013     1.0  0.87372  0.95056  0.91856  1.0000
  C   C1256     1.0  0.80279  0.83205  0.76947  1.0000
  S   S504      1.0  0.83243  0.88403  0.87579  1.0000
  C   C1257     1.0  0.80698  0.83681  0.79814  1.0000
  C   C1258     1.0  0.81657  0.84823  0.79181  1.0000
  C   C1259     1.0  0.89265  0.89610  0.73211  1.0000
  Fe  Fe253     1.0  0.87402  0.86971  0.82590  1.0000
  S   S505      1.0  0.85442  0.88302  0.79615  1.0000
  S   S506      1.0  0.89897  0.86154  0.79965  1.0000
  Fe  Fe254     1.0  0.85368  0.87060  0.89939  1.0000
  Fe  Fe255     1.0  0.84932  0.89849  0.83843  1.0000
  S   S507      1.0  0.85954  0.85299  0.86242  1.0000
  S   S508      1.0  0.87003  0.88618  0.86510  1.0000
  C   C1260     1.0  0.86429  0.89857  0.98816  1.0000
  C   C1261     1.0  0.90106  0.84304  0.78750  1.0000
  C   C1262     1.0  0.88823  0.83866  0.77872  1.0000
  H   H2014     1.0  0.81910  0.83737  0.56943  1.0000
  H   H2015     1.0  0.79089  0.85378  0.61684  1.0000
  H   H2016     1.0  0.77218  0.82925  0.61193  1.0000
  C   C1263     1.0  0.91563  0.83270  0.78606  1.0000
  H   H2017     1.0  0.87700  0.84665  0.77939  1.0000
  H   H2018     1.0  0.84931  0.92901  0.94491  1.0000
  H   H2019     1.0  0.92560  0.83611  0.79261  1.0000
  C   C1264     1.0  0.85352  0.93877  0.83243  1.0000
  C   C1265     1.0  0.84679  0.95486  0.82824  1.0000
  C   C1266     1.0  0.85493  0.96603  0.83344  1.0000
  C   C1267     1.0  0.87007  0.96123  0.84218  1.0000
  C   C1268     1.0  0.87685  0.94513  0.84618  1.0000
  C   C1269     1.0  0.86857  0.93393  0.84176  1.0000
  H   H2020     1.0  0.88855  0.94130  0.85304  1.0000
  H   H2021     1.0  0.87384  0.92159  0.84533  1.0000
  S   S509      1.0  0.82165  0.85324  0.82945  1.0000
  H   H2022     1.0  0.86958  0.90868  0.97506  1.0000
  C   C1270     1.0  0.87641  0.91882  0.75495  1.0000
  H   H2023     1.0  0.87334  0.93552  0.95808  1.0000
  H   H2024     1.0  0.89092  0.89613  0.80185  1.0000
  N   N127      1.0  0.85137  0.95159  0.95412  1.0000
  H   H2025     1.0  0.95183  0.82418  0.85374  1.0000
  H   H2026     1.0  0.86830  0.91161  0.77389  1.0000
  C   C1271     1.0  0.78956  0.85208  0.58989  1.0000
  H   H2027     1.0  0.90336  0.93026  0.73620  1.0000
  H   H2028     1.0  0.83517  0.95872  0.82093  1.0000
  C   C1272     1.0  0.78491  0.82574  0.61403  1.0000
  C   C1273     1.0  0.84536  0.94179  0.93537  1.0000
  C   C1274     1.0  0.89840  0.90405  0.78321  1.0000
  C   C1275     1.0  0.90307  0.91992  0.72433  1.0000
  H   H2029     1.0  0.81322  0.83129  0.61694  1.0000
  H   H2030     1.0  0.85047  0.97146  0.91085  1.0000
  H   H2031     1.0  0.90461  0.88867  0.72804  1.0000
  H   H2032     1.0  0.87145  0.92300  0.72966  1.0000
  C   C1276     1.0  0.81140  0.83021  0.58990  1.0000
  S   S510      1.0  0.85285  0.86174  0.95903  1.0000
  H   H2033     1.0  0.91540  0.91340  0.71890  1.0000
  N   N128      1.0  0.89263  0.90972  0.74862  1.0000
  H   H2034     1.0  0.88471  0.88830  0.74960  1.0000
  H   H2035     1.0  0.89833  0.91395  0.79685  1.0000
  H   H2036     1.0  0.88860  0.89987  0.70569  1.0000
  H   H2037     1.0  0.89899  0.92450  0.69804  1.0000
  H   H2038     1.0  0.90634  0.84258  0.99012  1.0000
  Fe  Fe256     1.0  0.83934  0.86741  0.83590  1.0000
  H   H2039     1.0  0.79971  0.84073  0.52811  1.0000
  H   H2040     1.0  0.86457  0.89106  0.93854  1.0000
  C   C1277     1.0  0.86152  0.88856  0.96744  1.0000
  S   S511      1.0  0.84295  0.92524  0.82473  1.0000
  H   H2041     1.0  0.91061  0.89709  0.77957  1.0000
  S   S512      1.0  0.88093  0.97473  0.84890  1.0000
  H   H2042     1.0  0.83286  0.97152  0.94407  1.0000
  H   H2043     1.0  0.77694  0.85636  0.58720  1.0000
  H   H2044     1.0  0.83224  0.94408  0.93970  1.0000
  C   C1278     1.0  0.79272  0.83344  0.55009  1.0000
  C   C1279     1.0  0.84538  0.94807  0.99312  1.0000
  C   C1280     1.0  0.89003  0.82408  0.76809  1.0000
  H   H2045     1.0  0.88026  0.82099  0.76017  1.0000
  H   H2046     1.0  0.79670  0.82096  0.54624  1.0000
  H   H2047     1.0  0.83582  0.82015  0.76343  1.0000
  H   H2048     1.0  0.85867  0.81956  0.81153  1.0000
