data_image0
_chemical_formula_structural       CHCH6CH4CHC2H4C2HCH2C2NH2CHC2H4NHSC2H2CSFeSNHCFeS2FeCSH2S3HC2H3C6H6CSH2FeHFeHCH3C3H2CNCH3CHSH3CHCNH2S2HFeCSFeSFeCS2H2C2HCHC2SH2C6H5SC2SCH3CH2CNH3CH2CH2CH3FeHCH4CH3SCH6C3HNH3C2H2CH2C3H4C2H3CH2FeCFeCNFeS2H2FeH2CHCH2FeS2FeSH2S2CFeS2FeSFeHS5C6H7CHC2HCHSHNHC5SH2S2C3HC2NH4FeH6NC4H11C2FeCH4SHC3FeH3CHCHCH6CFeCHC3H6SH5C2S2FeS2FeS2FeSFeS4H2SCH4SNC6H4C6H4CH2SCSH2C3H8NC3H8CH4C3HCH2C2H2CSHCHC2H2FeCSNH4CHFeH2CHCH6CH3CSCHFeS2FeS2FeSFeS3HC4H3CHCHC6H4C6H6C4HSH3SHCH2CH3CH3NHFeCH5FeH2C2NCNC5H2CHNC2FeH4CH4SC2H13CH2FeCH3SNHFeS3HSC2S2Fe2S2FeCFeS3CS2HCHFeSFeH5SCHFeSCH3C2FeH2C3H3SH4C6H5C6S2NC4H12SHFeHSNC2NHCHC4H6CHC2HCH2CH2CSHFeSH2CFeH2CHSHFeCNCH3CH3CNHC3SCHCH2C2NC2H3SHSCHCH8SHCNFeS3FeSFeSC3H4C6H9CNCH2C2SHSC2HC2SCH4CH2FeHCFe2SHFeH4CSH3FeSH4SFeSH2CHNHCNCH2C2H2C6H4CSCHFeHSHSCHCHSCHFeNC4H8CH3CHCH4SCH4CSHFeHNHCH2C3H4SNHCH4CH2CHSCHCH4NHC2SFeCHS2HNFeSHFeS2HSFeHCSFeSHFeS2H2FeSCSHCHCH3C7H4CH2C6H2C2H3CHC2H2SHFe2H3CHCHNSCHNC4H12CSCH2CH2SHFeCHCNHCH2CSHCH3CHCH5SH2CH2FeS2FeS2FeSFeS3HNSH5C6H4C3NC2H5C3H3CH4C2HCH2CHCH2CHSHSFeHCHNC4H10C2H5CH4C2HC2HNCH3CH3SH2CS2FeSH2FeS2FeS2FeSFeS3H3CS2HC4H2C6H6CHCHC4H4N2HC2HCHFeHCHCHNHCHCSH2FeCH2CH4CHSH3C2H5C2HC2H5CHFeSHFeS2FeSC2SH2CSFeS2C3H4CHC6H5SH2C3HFeC3FeNC4H5SH6NCH2SHC2H2SFeC3HCFeH2C2S2HC2SHCH4S2HSH3FeHC2H3NCHCSH3CHFeH2FeSCFe2H5SHFeSFe2S2FeHFeS3CSFeS2C2H2CHC6H5CHCFeC2HC3SH2CH3FeCNC4H2FeH2NH4S3FeSHCHSHC2H3CH2CH2CHCH3CHCHSH3C2HCHNHCH3FeH3FeNH4SH4C3H2CSHCH2CH3C3NCH3FeS2FeS2FeSFeS4CH2S2HCH2C6H4C6H5CNH3C2H7C2HCHCHNCHSH4CHFeHFeC2H3NCHCH6CNC3H10CH6C2H4CHC2HC3H3CHSCH3FeSCHFeS2FeS2FeSFeS3C2H4CH3C7H4C5HCH5SHC2HCH2CH2NH3CNCH2NH2CHC2H3CHCHCH4CH2C2H2SHC2H2CH7CFeS2FeS2FeSFeS2HFeCSH5SCH3FeSH2CH3CH4SHCH2C2H2CH3C2HCHSNFeCHC6H4C6H5NSH3C2H2CH3SC2H3CHCHCHCHSHCHC3NH7CH2CHCNCSH3CH3CH4C3SC2H6CSH2C2H3CSNCSCH7CNHCSH3SCH2CNHFeHSFeHSHCHS2FeCSNSNHCS2CFeH3C6H4C2H2C2H4C2FeH5CH2FeCH7CNC2SHSHCH3SC2HSFe2SFe2SFeS2HFe2SH3SHS2HFeHC6H5CHSC2HCH2C2NHC3H4CSHCHSNH3CH2CHCHSC2H5C3H7NH2C2H2CHSFeC2SH2C2H2NHCH2CSCH3C2HSC2HSH3C2H3C2H3C2HCH2C2H4C2S2HFeS2CFeCFe2S2FeSHFeSCFeSH2SHNC8H5C4FeH3C2H3C4H2SH3FeH2SFeHSHC2HC2H2NC4H12FeCH3C3HCSNHSH2CHC2H2SCHCH2SHCH3SNH3C4H2FeSHFeS2FeSFeS3HSH2CHC9H4C6H4NC3SH4NC4H12NSHSCHCHCH4SHCH3CHFeH2FeH2CH4CFeS2FeSHFeSFeS3H3C7H4C6H4SHSCH2CHCH2C3H7NCH2CH3FeSC3H2NCHC2H9CHNS2H3CH2S2C2H3FeS2HCSFeSFeCS2FeS2FeHFeHS2CHSC3FeHCHC2H2C7H5CHCHSH2SH2NCH3CNH2SHCH2CH2CSC2FeHSFeH2NC3H8C2SCH2SCHFeH9CH4CHCH2CH2CSH3Fe2HC3HCHSH2C4HCH3C2HC3HCSH3N2H4CHCHCH2SH3S2H2SH2SCS2FeSHFeSFeS2CFeCSFeSCS3HNHC6H8CHFeH5CHC3NH2FeCH4SH2CHCHC3H5CFeSCFeSFeSFeS2HCSNH2FeSFeSCH2CSHC6H5FeH3CH3CH2C2H2CNHCHCH2C2NCSC2HC3HC2HCH2SCH4SHC2H9CH3SHCHS2HC9H7FeCH2FeHSCH5SHNCH3CNSFeH4NH3CH3CHC2HSCHCSH2C2SH
_chemical_formula_sum              "C960 H1536 N96 S384 Fe192"
_cell_length_a       47.7642
_cell_length_b       48.7086
_cell_length_c       78.9493
_cell_angle_alpha    85.7412
_cell_angle_beta     87.4973
_cell_angle_gamma    89.249

_space_group_name_H-M_alt    "P 1"
_space_group_IT_number       1

loop_
  _space_group_symop_operation_xyz
  'x, y, z'

loop_
  _atom_site_type_symbol
  _atom_site_label
  _atom_site_symmetry_multiplicity
  _atom_site_fract_x
  _atom_site_fract_y
  _atom_site_fract_z
  _atom_site_occupancy
  C   C1        1.0  0.32292  0.26583  0.17760  1.0000
  H   H1        1.0  0.32664  0.22144  0.15918  1.0000
  C   C2        1.0  0.34903  0.23690  0.19758  1.0000
  H   H2        1.0  0.33833  0.08103  0.29741  1.0000
  H   H3        1.0  0.36009  0.33784  0.17962  1.0000
  H   H4        1.0  0.31820  0.27102  0.16405  1.0000
  H   H5        1.0  0.21936  0.35037  0.24809  1.0000
  H   H6        1.0  0.30757  0.35676  0.22280  1.0000
  H   H7        1.0  0.36592  0.25447  0.15594  1.0000
  C   C3        1.0  0.36779  0.31349  0.20302  1.0000
  H   H8        1.0  0.18355  0.34181  0.28082  1.0000
  H   H9        1.0  0.36675  0.22686  0.28064  1.0000
  H   H10       1.0  0.21381  0.36339  0.27755  1.0000
  H   H11       1.0  0.37910  0.26864  0.17433  1.0000
  C   C4        1.0  0.35380  0.33391  0.19290  1.0000
  H   H12       1.0  0.33117  0.28478  0.18260  1.0000
  C   C5        1.0  0.32415  0.34467  0.21718  1.0000
  C   C6        1.0  0.33785  0.32410  0.22722  1.0000
  H   H13       1.0  0.31160  0.21150  0.18000  1.0000
  H   H14       1.0  0.35526  0.16912  0.28275  1.0000
  H   H15       1.0  0.32961  0.23183  0.20542  1.0000
  H   H16       1.0  0.33153  0.32042  0.24051  1.0000
  C   C7        1.0  0.33133  0.21788  0.17286  1.0000
  C   C8        1.0  0.37582  0.27020  0.29835  1.0000
  H   H17       1.0  0.14382  0.34881  0.26144  1.0000
  C   C9        1.0  0.33181  0.34945  0.19994  1.0000
  H   H18       1.0  0.35720  0.28274  0.29444  1.0000
  H   H19       1.0  0.34628  0.20011  0.17401  1.0000
  C   C10       1.0  0.37523  0.24531  0.27308  1.0000
  C   C11       1.0  0.35954  0.30833  0.22018  1.0000
  N   N1        1.0  0.34317  0.24268  0.17943  1.0000
  H   H20       1.0  0.35865  0.25489  0.20290  1.0000
  H   H21       1.0  0.19143  0.35637  0.23371  1.0000
  C   C12       1.0  0.19612  0.35070  0.24725  1.0000
  H   H22       1.0  0.18861  0.32937  0.25053  1.0000
  C   C13       1.0  0.36950  0.25003  0.16970  1.0000
  C   C14       1.0  0.37658  0.17006  0.28677  1.0000
  H   H23       1.0  0.30278  0.26100  0.18475  1.0000
  H   H24       1.0  0.36379  0.21918  0.19943  1.0000
  H   H25       1.0  0.38466  0.29955  0.26827  1.0000
  H   H26       1.0  0.35715  0.25751  0.26800  1.0000
  N   N2        1.0  0.18293  0.37036  0.25865  1.0000
  H   H27       1.0  0.38494  0.30189  0.19759  1.0000
  S   S1        1.0  0.37508  0.28194  0.23323  1.0000
  C   C15       1.0  0.15215  0.36965  0.25753  1.0000
  C   C16       1.0  0.19067  0.36287  0.27634  1.0000
  H   H28       1.0  0.38524  0.23295  0.17084  1.0000
  H   H29       1.0  0.06847  0.31588  0.39056  1.0000
  C   C17       1.0  0.38204  0.16707  0.30408  1.0000
  S   S2        1.0  0.33416  0.15048  0.36658  1.0000
  Fe  Fe1       1.0  0.35151  0.18575  0.37939  1.0000
  S   S3        1.0  0.32710  0.21774  0.39336  1.0000
  N   N3        1.0  0.18023  0.25045  0.37350  1.0000
  H   H30       1.0  0.13808  0.26540  0.36971  1.0000
  C   C18       1.0  0.17130  0.22236  0.37955  1.0000
  Fe  Fe2       1.0  0.22309  0.33140  0.35866  1.0000
  S   S4        1.0  0.35403  0.16258  0.31906  1.0000
  S   S5        1.0  0.24716  0.29539  0.34849  1.0000
  Fe  Fe3       1.0  0.16671  0.34851  0.37377  1.0000
  C   C19       1.0  0.34245  0.04812  0.32608  1.0000
  S   S6        1.0  0.12622  0.33143  0.38561  1.0000
  H   H31       1.0  0.33224  0.11251  0.30750  1.0000
  H   H32       1.0  0.20000  0.25781  0.39673  1.0000
  S   S7        1.0  0.38238  0.15882  0.39360  1.0000
  S   S8        1.0  0.18114  0.33977  0.34731  1.0000
  S   S9        1.0  0.20780  0.33710  0.38553  1.0000
  H   H33       1.0  0.15261  0.21609  0.37287  1.0000
  C   C20       1.0  0.09678  0.33993  0.37359  1.0000
  C   C21       1.0  0.07042  0.32966  0.37918  1.0000
  H   H34       1.0  0.17011  0.24453  0.34771  1.0000
  H   H35       1.0  0.30740  0.08513  0.31089  1.0000
  H   H36       1.0  0.20641  0.23830  0.35237  1.0000
  C   C22       1.0  0.30538  0.23969  0.38078  1.0000
  C   C23       1.0  0.29157  0.26200  0.38791  1.0000
  C   C24       1.0  0.27409  0.27967  0.37806  1.0000
  C   C25       1.0  0.27009  0.27485  0.36109  1.0000
  C   C26       1.0  0.28386  0.25251  0.35400  1.0000
  C   C27       1.0  0.30155  0.23506  0.36378  1.0000
  H   H37       1.0  0.29452  0.26571  0.40105  1.0000
  H   H38       1.0  0.26369  0.29693  0.38361  1.0000
  H   H39       1.0  0.28084  0.24868  0.34088  1.0000
  H   H40       1.0  0.31209  0.21791  0.35818  1.0000
  H   H41       1.0  0.37856  0.10807  0.32008  1.0000
  H   H42       1.0  0.18831  0.20700  0.37736  1.0000
  C   C28       1.0  0.18771  0.25142  0.35509  1.0000
  S   S10       1.0  0.36181  0.08203  0.39128  1.0000
  H   H43       1.0  0.16328  0.29154  0.37206  1.0000
  H   H44       1.0  0.21220  0.27895  0.37843  1.0000
  Fe  Fe4       1.0  0.36852  0.12467  0.37848  1.0000
  H   H45       1.0  0.19299  0.27273  0.34996  1.0000
  Fe  Fe5       1.0  0.36702  0.16170  0.34610  1.0000
  H   H46       1.0  0.22286  0.24362  0.38077  1.0000
  C   C29       1.0  0.37232  0.05365  0.37986  1.0000
  H   H47       1.0  0.16564  0.22098  0.39342  1.0000
  H   H48       1.0  0.15099  0.27048  0.39029  1.0000
  H   H49       1.0  0.31148  0.08519  0.34221  1.0000
  C   C30       1.0  0.20486  0.25796  0.38281  1.0000
  C   C31       1.0  0.15712  0.27019  0.37653  1.0000
  C   C32       1.0  0.33395  0.09039  0.33968  1.0000
  H   H50       1.0  0.37313  0.20800  0.41588  1.0000
  H   H51       1.0  0.34538  0.08279  0.35113  1.0000
  C   C33       1.0  0.09918  0.35761  0.35882  1.0000
  N   N4        1.0  0.34553  0.07837  0.32418  1.0000
  C   C34       1.0  0.33017  0.08970  0.30933  1.0000
  H   H52       1.0  0.37065  0.24470  0.41338  1.0000
  H   H53       1.0  0.33549  0.11321  0.33852  1.0000
  H   H54       1.0  0.05470  0.36494  0.40576  1.0000
  C   C35       1.0  0.37552  0.08539  0.32159  1.0000
  H   H55       1.0  0.32004  0.04207  0.32757  1.0000
  S   S11       1.0  0.38211  0.19878  0.35809  1.0000
  H   H56       1.0  0.11942  0.36568  0.35443  1.0000
  H   H57       1.0  0.36802  0.25190  0.30643  1.0000
  H   H58       1.0  0.38503  0.07659  0.31005  1.0000
  C   C36       1.0  0.38153  0.22726  0.42039  1.0000
  H   H59       1.0  0.37521  0.22760  0.43410  1.0000
  C   C37       1.0  0.07526  0.36512  0.34977  1.0000
  N   N5        1.0  0.11477  0.31308  0.78025  1.0000
  H   H60       1.0  0.13206  0.30702  0.75523  1.0000
  H   H61       1.0  0.34415  0.19105  0.78730  1.0000
  S   S12       1.0  0.32152  0.18825  0.70776  1.0000
  S   S13       1.0  0.23931  0.35901  0.74324  1.0000
  H   H62       1.0  0.28187  0.22098  0.76541  1.0000
  Fe  Fe6       1.0  0.23782  0.32322  0.72694  1.0000
  C   C38       1.0  0.35244  0.22939  0.76152  1.0000
  S   S14       1.0  0.28171  0.31089  0.71828  1.0000
  Fe  Fe7       1.0  0.17380  0.32482  0.72770  1.0000
  S   S15       1.0  0.13435  0.30498  0.71970  1.0000
  Fe  Fe8       1.0  0.20444  0.33810  0.75875  1.0000
  C   C39       1.0  0.36833  0.05923  0.71025  1.0000
  S   S16       1.0  0.20678  0.34380  0.70938  1.0000
  S   S17       1.0  0.20500  0.30074  0.74374  1.0000
  H   H63       1.0  0.31282  0.35775  0.66712  1.0000
  H   H64       1.0  0.30799  0.34535  0.68903  1.0000
  C   C40       1.0  0.07705  0.30590  0.72529  1.0000
  C   C41       1.0  0.10204  0.32080  0.72522  1.0000
  H   H65       1.0  0.34325  0.17522  0.75856  1.0000
  C   C42       1.0  0.30708  0.36415  0.68007  1.0000
  H   H66       1.0  0.13259  0.27693  0.76965  1.0000
  C   C43       1.0  0.08594  0.30574  0.77631  1.0000
  C   C44       1.0  0.24436  0.36734  0.78927  1.0000
  S   S18       1.0  0.36768  0.13565  0.73185  1.0000
  H   H67       1.0  0.35350  0.23705  0.74785  1.0000
  H   H68       1.0  0.35982  0.07965  0.71174  1.0000
  C   C45       1.0  0.29215  0.27639  0.71623  1.0000
  C   C46       1.0  0.32088  0.27007  0.71482  1.0000
  C   C47       1.0  0.33010  0.24304  0.71250  1.0000
  C   C48       1.0  0.31060  0.22221  0.71124  1.0000
  C   C49       1.0  0.28186  0.22846  0.71281  1.0000
  C   C50       1.0  0.27262  0.25544  0.71546  1.0000
  H   H69       1.0  0.33610  0.28621  0.71533  1.0000
  H   H70       1.0  0.35227  0.23850  0.71112  1.0000
  H   H71       1.0  0.26668  0.21241  0.71183  1.0000
  H   H72       1.0  0.25042  0.26012  0.71645  1.0000
  H   H73       1.0  0.30189  0.23907  0.74851  1.0000
  S   S19       1.0  0.17115  0.36049  0.74407  1.0000
  C   C51       1.0  0.12029  0.30366  0.79803  1.0000
  C   C52       1.0  0.21948  0.35745  0.79735  1.0000
  S   S20       1.0  0.19785  0.33547  0.78722  1.0000
  C   C53       1.0  0.13498  0.29968  0.76870  1.0000
  H   H74       1.0  0.30191  0.25061  0.76957  1.0000
  H   H75       1.0  0.08258  0.28314  0.77812  1.0000
  H   H76       1.0  0.10298  0.35407  0.78638  1.0000
  C   C54       1.0  0.30193  0.23194  0.76226  1.0000
  H   H77       1.0  0.15698  0.30415  0.77156  1.0000
  H   H78       1.0  0.35406  0.24751  0.76918  1.0000
  C   C55       1.0  0.32562  0.18972  0.75577  1.0000
  N   N6        1.0  0.32641  0.21393  0.76596  1.0000
  H   H79       1.0  0.30580  0.17808  0.75822  1.0000
  H   H80       1.0  0.08150  0.31212  0.76286  1.0000
  H   H81       1.0  0.11982  0.35979  0.72962  1.0000
  C   C56       1.0  0.10113  0.34758  0.73046  1.0000
  H   H82       1.0  0.07751  0.28525  0.72109  1.0000
  H   H83       1.0  0.32734  0.19590  0.74197  1.0000
  C   C57       1.0  0.11798  0.34329  0.77791  1.0000
  H   H84       1.0  0.37129  0.21619  0.76385  1.0000
  H   H85       1.0  0.25148  0.35993  0.77729  1.0000
  C   C58       1.0  0.25794  0.35727  0.67615  1.0000
  H   H86       1.0  0.13954  0.34954  0.78070  1.0000
  H   H87       1.0  0.11405  0.35109  0.76462  1.0000
  H   H88       1.0  0.23644  0.36641  0.67646  1.0000
  Fe  Fe9       1.0  0.36533  0.17429  0.71445  1.0000
  H   H89       1.0  0.06997  0.31605  0.78442  1.0000
  C   C59       1.0  0.32575  0.20459  0.78422  1.0000
  H   H90       1.0  0.26236  0.35055  0.66313  1.0000
  H   H91       1.0  0.32635  0.22228  0.79234  1.0000
  H   H92       1.0  0.25774  0.33842  0.68509  1.0000
  H   H93       1.0  0.30654  0.19257  0.78799  1.0000
  C   C60       1.0  0.07590  0.35876  0.73677  1.0000
  H   H94       1.0  0.27307  0.36725  0.70765  1.0000
  H   H95       1.0  0.11837  0.28091  0.80022  1.0000
  H   H96       1.0  0.35624  0.21813  0.88673  1.0000
  S   S21       1.0  0.36476  0.27511  0.88211  1.0000
  C   C61       1.0  0.31922  0.34470  0.88712  1.0000
  H   H97       1.0  0.29723  0.35025  0.88744  1.0000
  H   H98       1.0  0.31931  0.24463  0.90137  1.0000
  H   H99       1.0  0.31451  0.17049  0.91651  1.0000
  H   H100      1.0  0.32217  0.18726  0.93530  1.0000
  H   H101      1.0  0.10537  0.31326  0.80712  1.0000
  H   H102      1.0  0.19205  0.35840  0.81974  1.0000
  C   C62       1.0  0.37619  0.32967  0.88673  1.0000
  C   C63       1.0  0.31378  0.22537  0.90929  1.0000
  C   C64       1.0  0.32750  0.31732  0.88519  1.0000
  H   H103      1.0  0.36701  0.24130  0.91264  1.0000
  N   N7        1.0  0.33869  0.20745  0.91188  1.0000
  H   H104      1.0  0.35792  0.33351  0.83563  1.0000
  H   H105      1.0  0.31173  0.30197  0.88387  1.0000
  H   H106      1.0  0.29732  0.21487  0.90268  1.0000
  C   C65       1.0  0.36783  0.35705  0.88899  1.0000
  C   C66       1.0  0.35999  0.22251  0.92048  1.0000
  H   H107      1.0  0.35166  0.22925  0.93290  1.0000
  H   H108      1.0  0.34907  0.16821  0.92453  1.0000
  C   C67       1.0  0.35596  0.30977  0.88481  1.0000
  H   H109      1.0  0.32864  0.35627  0.81370  1.0000
  H   H110      1.0  0.33490  0.18801  0.88846  1.0000
  C   C68       1.0  0.33071  0.18228  0.92253  1.0000
  C   C69       1.0  0.33934  0.36466  0.88902  1.0000
  C   C70       1.0  0.35027  0.19970  0.89520  1.0000
  H   H111      1.0  0.30438  0.23163  0.92158  1.0000
  H   H112      1.0  0.36933  0.18658  0.89654  1.0000
  H   H113      1.0  0.14192  0.30913  0.80132  1.0000
  H   H114      1.0  0.33167  0.34239  0.85131  1.0000
  C   C71       1.0  0.32339  0.37286  0.82228  1.0000
  C   C72       1.0  0.35094  0.34984  0.84405  1.0000
  H   H115      1.0  0.30304  0.36759  0.82915  1.0000
  H   H116      1.0  0.36746  0.35182  0.85337  1.0000
  H   H117      1.0  0.37887  0.20955  0.92298  1.0000
  C   C73       1.0  0.21115  0.36618  0.81333  1.0000
  H   H118      1.0  0.38345  0.37242  0.89061  1.0000
  H   H119      1.0  0.37891  0.37024  0.81563  1.0000
  Fe  Fe10      1.0  0.10336  0.64278  0.08901  1.0000
  C   C74       1.0  0.25429  0.39504  0.29320  1.0000
  Fe  Fe11      1.0  0.11702  0.67765  0.11784  1.0000
  C   C75       1.0  0.33844  0.60347  0.21825  1.0000
  N   N8        1.0  0.11903  0.41136  0.07514  1.0000
  Fe  Fe12      1.0  0.10841  0.61681  0.12526  1.0000
  S   S22       1.0  0.12022  0.57864  0.14130  1.0000
  S   S23       1.0  0.13838  0.64069  0.10735  1.0000
  H   H120      1.0  0.11709  0.62604  0.19146  1.0000
  H   H121      1.0  0.19355  0.44853  0.29123  1.0000
  Fe  Fe13      1.0  0.07842  0.42373  0.13252  1.0000
  H   H122      1.0  0.11394  0.51987  0.14338  1.0000
  H   H123      1.0  0.30737  0.59635  0.19136  1.0000
  C   C76       1.0  0.10959  0.43424  0.06332  1.0000
  H   H124      1.0  0.11449  0.65118  0.17372  1.0000
  C   C77       1.0  0.17930  0.69199  0.28953  1.0000
  H   H125      1.0  0.08016  0.41037  0.08983  1.0000
  H   H126      1.0  0.14582  0.37524  0.24426  1.0000
  Fe  Fe14      1.0  0.26319  0.64468  0.22483  1.0000
  S   S24       1.0  0.22525  0.66508  0.21363  1.0000
  S   S25       1.0  0.26207  0.60240  0.23851  1.0000
  Fe  Fe15      1.0  0.25412  0.67769  0.19127  1.0000
  S   S26       1.0  0.24660  0.66831  0.16434  1.0000
  H   H127      1.0  0.06158  0.59225  0.14102  1.0000
  H   H128      1.0  0.09642  0.44932  0.07011  1.0000
  S   S27       1.0  0.29096  0.65430  0.20176  1.0000
  S   S28       1.0  0.27699  0.68147  0.23775  1.0000
  C   C78       1.0  0.25228  0.41357  0.27887  1.0000
  Fe  Fe16      1.0  0.26116  0.46033  0.20357  1.0000
  S   S29       1.0  0.22973  0.44777  0.22459  1.0000
  S   S30       1.0  0.26195  0.50355  0.19098  1.0000
  Fe  Fe17      1.0  0.26430  0.42055  0.23488  1.0000
  S   S31       1.0  0.08429  0.68190  0.09800  1.0000
  Fe  Fe18      1.0  0.22077  0.41280  0.20864  1.0000
  H   H129      1.0  0.18875  0.60199  0.17876  1.0000
  S   S32       1.0  0.29682  0.43614  0.21518  1.0000
  S   S33       1.0  0.24997  0.42703  0.18692  1.0000
  S   S34       1.0  0.12543  0.41917  0.13356  1.0000
  S   S35       1.0  0.06084  0.45361  0.11250  1.0000
  S   S36       1.0  0.27689  0.41116  0.26188  1.0000
  C   C79       1.0  0.25937  0.57497  0.22543  1.0000
  C   C80       1.0  0.26145  0.54779  0.23253  1.0000
  C   C81       1.0  0.26160  0.52563  0.22209  1.0000
  C   C82       1.0  0.25979  0.53064  0.20450  1.0000
  C   C83       1.0  0.25709  0.55779  0.19744  1.0000
  C   C84       1.0  0.25671  0.57991  0.20790  1.0000
  H   H130      1.0  0.26347  0.54389  0.24610  1.0000
  H   H131      1.0  0.26376  0.50475  0.22762  1.0000
  H   H132      1.0  0.25568  0.56176  0.18383  1.0000
  H   H133      1.0  0.25486  0.60082  0.20236  1.0000
  H   H134      1.0  0.12550  0.38362  0.05537  1.0000
  H   H135      1.0  0.12193  0.43687  0.09612  1.0000
  H   H136      1.0  0.38317  0.60746  0.19647  1.0000
  C   C85       1.0  0.12347  0.63065  0.17784  1.0000
  H   H137      1.0  0.15298  0.65668  0.15225  1.0000
  C   C86       1.0  0.13895  0.41214  0.15386  1.0000
  C   C87       1.0  0.12132  0.41018  0.16850  1.0000
  H   H138      1.0  0.34481  0.62522  0.21494  1.0000
  C   C88       1.0  0.16179  0.40424  0.18620  1.0000
  H   H139      1.0  0.18420  0.41369  0.26206  1.0000
  S   S37       1.0  0.08961  0.65333  0.13718  1.0000
  H   H140      1.0  0.11893  0.40494  0.19589  1.0000
  N   N9        1.0  0.34527  0.58580  0.20416  1.0000
  H   H141      1.0  0.18493  0.67941  0.11670  1.0000
  C   C89       1.0  0.37583  0.58619  0.20030  1.0000
  C   C90       1.0  0.18950  0.68639  0.12897  1.0000
  C   C91       1.0  0.21367  0.67687  0.13711  1.0000
  C   C92       1.0  0.21912  0.68480  0.15334  1.0000
  C   C93       1.0  0.19293  0.67572  0.27774  1.0000
  S   S38       1.0  0.07523  0.61565  0.10624  1.0000
  H   H142      1.0  0.31553  0.60371  0.22145  1.0000
  H   H143      1.0  0.22753  0.66236  0.13112  1.0000
  S   S39       1.0  0.17549  0.40096  0.20663  1.0000
  S   S40       1.0  0.10476  0.62781  0.06247  1.0000
  C   C94       1.0  0.09337  0.52926  0.14296  1.0000
  C   C95       1.0  0.09051  0.55791  0.14232  1.0000
  C   C96       1.0  0.23055  0.43309  0.27824  1.0000
  H   H144      1.0  0.33500  0.58341  0.17802  1.0000
  C   C97       1.0  0.20275  0.68762  0.26189  1.0000
  C   C98       1.0  0.33048  0.59630  0.18889  1.0000
  N   N10       1.0  0.15429  0.63026  0.17517  1.0000
  H   H145      1.0  0.15865  0.67231  0.18115  1.0000
  H   H146      1.0  0.07209  0.49077  0.14206  1.0000
  H   H147      1.0  0.21614  0.39936  0.25329  1.0000
  H   H148      1.0  0.20180  0.40342  0.17261  1.0000
  Fe  Fe19      1.0  0.24125  0.70290  0.22455  1.0000
  H   H149      1.0  0.34899  0.59608  0.23004  1.0000
  H   H150      1.0  0.15312  0.62091  0.14899  1.0000
  H   H151      1.0  0.08184  0.38749  0.07312  1.0000
  H   H152      1.0  0.18470  0.63648  0.15447  1.0000
  H   H153      1.0  0.20540  0.48507  0.19313  1.0000
  H   H154      1.0  0.16200  0.64734  0.19892  1.0000
  N   N11       1.0  0.18607  0.49224  0.16908  1.0000
  C   C99       1.0  0.19102  0.52222  0.16822  1.0000
  C   C100      1.0  0.20890  0.47869  0.15945  1.0000
  C   C101      1.0  0.15895  0.48699  0.16163  1.0000
  C   C102      1.0  0.18544  0.48106  0.18703  1.0000
  H   H155      1.0  0.17433  0.53305  0.17549  1.0000
  H   H156      1.0  0.19135  0.53136  0.15485  1.0000
  H   H157      1.0  0.21149  0.52682  0.17361  1.0000
  H   H158      1.0  0.22967  0.48217  0.16478  1.0000
  H   H159      1.0  0.20590  0.45605  0.15984  1.0000
  H   H160      1.0  0.21005  0.48663  0.14586  1.0000
  H   H161      1.0  0.15896  0.49432  0.14793  1.0000
  H   H162      1.0  0.14130  0.49751  0.16828  1.0000
  H   H163      1.0  0.15417  0.46464  0.16254  1.0000
  H   H164      1.0  0.18242  0.45838  0.18813  1.0000
  H   H165      1.0  0.16814  0.49037  0.19463  1.0000
  C   C103      1.0  0.13271  0.40619  0.18462  1.0000
  C   C104      1.0  0.17941  0.40564  0.17155  1.0000
  Fe  Fe20      1.0  0.30158  0.69313  0.21350  1.0000
  C   C105      1.0  0.19288  0.39839  0.25340  1.0000
  H   H166      1.0  0.21393  0.67508  0.25302  1.0000
  H   H167      1.0  0.05763  0.69406  0.06041  1.0000
  H   H168      1.0  0.11351  0.61520  0.17034  1.0000
  H   H169      1.0  0.15658  0.58658  0.17331  1.0000
  S   S41       1.0  0.25238  0.38426  0.22092  1.0000
  H   H170      1.0  0.09891  0.41181  0.16744  1.0000
  C   C106      1.0  0.16802  0.40957  0.15542  1.0000
  C   C107      1.0  0.16550  0.60278  0.18069  1.0000
  C   C108      1.0  0.16162  0.63638  0.15694  1.0000
  Fe  Fe21      1.0  0.28278  0.40137  0.20056  1.0000
  H   H171      1.0  0.18178  0.41078  0.14414  1.0000
  H   H172      1.0  0.22923  0.44777  0.26731  1.0000
  H   H173      1.0  0.18995  0.65186  0.18300  1.0000
  C   C109      1.0  0.06969  0.51285  0.14202  1.0000
  H   H174      1.0  0.16043  0.59746  0.19442  1.0000
  C   C110      1.0  0.33635  0.55729  0.20919  1.0000
  H   H175      1.0  0.27118  0.37999  0.29376  1.0000
  C   C111      1.0  0.16671  0.65132  0.18504  1.0000
  H   H176      1.0  0.19661  0.65404  0.28103  1.0000
  H   H177      1.0  0.34718  0.54855  0.22060  1.0000
  H   H178      1.0  0.15376  0.43403  0.08336  1.0000
  H   H179      1.0  0.11518  0.68657  0.05510  1.0000
  H   H180      1.0  0.28042  0.70342  0.28026  1.0000
  H   H181      1.0  0.33657  0.61785  0.18476  1.0000
  C   C112      1.0  0.13502  0.42252  0.08867  1.0000
  Fe  Fe22      1.0  0.05866  0.65438  0.11662  1.0000
  C   C113      1.0  0.09440  0.39642  0.08290  1.0000
  H   H182      1.0  0.12760  0.44567  0.05692  1.0000
  C   C114      1.0  0.13702  0.39226  0.06571  1.0000
  C   C115      1.0  0.21046  0.43353  0.29177  1.0000
  C   C116      1.0  0.06390  0.57011  0.14137  1.0000
  H   H183      1.0  0.31348  0.55642  0.21241  1.0000
  H   H184      1.0  0.10058  0.37936  0.09220  1.0000
  H   H185      1.0  0.18127  0.37744  0.28529  1.0000
  H   H186      1.0  0.34059  0.54339  0.19878  1.0000
  H   H187      1.0  0.14163  0.38447  0.26588  1.0000
  H   H188      1.0  0.14434  0.37464  0.07425  1.0000
  S   S42       1.0  0.34734  0.70474  0.21168  1.0000
  H   H189      1.0  0.14232  0.40584  0.09793  1.0000
  H   H190      1.0  0.18650  0.40523  0.24040  1.0000
  H   H191      1.0  0.38173  0.57305  0.18973  1.0000
  H   H192      1.0  0.09678  0.42663  0.05319  1.0000
  H   H193      1.0  0.15589  0.40281  0.05972  1.0000
  C   C117      1.0  0.20129  0.70377  0.16095  1.0000
  C   C118      1.0  0.17107  0.70453  0.13681  1.0000
  S   S43       1.0  0.31368  0.37410  0.18690  1.0000
  S   S44       1.0  0.05253  0.38854  0.12561  1.0000
  Fe  Fe23      1.0  0.18475  0.51730  0.45562  1.0000
  S   S45       1.0  0.16754  0.55860  0.44657  1.0000
  S   S46       1.0  0.16882  0.47791  0.44637  1.0000
  Fe  Fe24      1.0  0.21742  0.54066  0.48356  1.0000
  S   S47       1.0  0.20357  0.58424  0.47681  1.0000
  S   S48       1.0  0.24212  0.52579  0.50626  1.0000
  Fe  Fe25      1.0  0.16145  0.56565  0.47421  1.0000
  S   S49       1.0  0.12126  0.58207  0.48525  1.0000
  Fe  Fe26      1.0  0.21106  0.57355  0.44973  1.0000
  S   S50       1.0  0.23153  0.60131  0.42888  1.0000
  S   S51       1.0  0.17458  0.52314  0.48308  1.0000
  S   S52       1.0  0.22910  0.53145  0.45663  1.0000
  S   S53       1.0  0.17576  0.39356  0.37007  1.0000
  H   H194      1.0  0.08488  0.49984  0.46232  1.0000
  H   H195      1.0  0.23530  0.38019  0.31728  1.0000
  S   S54       1.0  0.23730  0.37498  0.35360  1.0000
  C   C119      1.0  0.23349  0.52028  0.54106  1.0000
  H   H196      1.0  0.06314  0.69987  0.33215  1.0000
  H   H197      1.0  0.26145  0.69146  0.30961  1.0000
  H   H198      1.0  0.18950  0.47687  0.36439  1.0000
  H   H199      1.0  0.23715  0.43372  0.33880  1.0000
  S   S55       1.0  0.20065  0.70032  0.35184  1.0000
  N   N12       1.0  0.08595  0.60407  0.43354  1.0000
  C   C120      1.0  0.18921  0.46023  0.43152  1.0000
  C   C121      1.0  0.21691  0.46765  0.42710  1.0000
  C   C122      1.0  0.23300  0.45225  0.41577  1.0000
  C   C123      1.0  0.22133  0.42970  0.40866  1.0000
  C   C124      1.0  0.19352  0.42255  0.41290  1.0000
  C   C125      1.0  0.17759  0.43767  0.42441  1.0000
  H   H200      1.0  0.22602  0.48503  0.43251  1.0000
  H   H201      1.0  0.25453  0.45782  0.41254  1.0000
  H   H202      1.0  0.18444  0.40506  0.40758  1.0000
  H   H203      1.0  0.15620  0.43181  0.42785  1.0000
  C   C126      1.0  0.20869  0.62570  0.41921  1.0000
  C   C127      1.0  0.18343  0.63303  0.42743  1.0000
  C   C128      1.0  0.16597  0.65329  0.41970  1.0000
  C   C129      1.0  0.17338  0.66584  0.40359  1.0000
  C   C130      1.0  0.19834  0.65808  0.39527  1.0000
  C   C131      1.0  0.21613  0.63833  0.40315  1.0000
  H   H204      1.0  0.17775  0.62358  0.43992  1.0000
  H   H205      1.0  0.14687  0.65947  0.42630  1.0000
  H   H206      1.0  0.20409  0.66730  0.38280  1.0000
  H   H207      1.0  0.23556  0.63257  0.39673  1.0000
  C   C132      1.0  0.09523  0.55802  0.48256  1.0000
  H   H208      1.0  0.07281  0.56415  0.42709  1.0000
  H   H209      1.0  0.12233  0.53161  0.46825  1.0000
  S   S56       1.0  0.15139  0.69165  0.39443  1.0000
  C   C133      1.0  0.08015  0.51705  0.46992  1.0000
  S   S57       1.0  0.16998  0.67741  0.30998  1.0000
  H   H210      1.0  0.25254  0.43212  0.35925  1.0000
  H   H211      1.0  0.25321  0.50911  0.54127  1.0000
  C   C134      1.0  0.06787  0.56238  0.48888  1.0000
  C   C135      1.0  0.22315  0.53068  0.52545  1.0000
  C   C136      1.0  0.19758  0.54493  0.52525  1.0000
  H   H212      1.0  0.07765  0.39137  0.41145  1.0000
  H   H213      1.0  0.19162  0.44781  0.35164  1.0000
  H   H214      1.0  0.18947  0.55322  0.51333  1.0000
  H   H215      1.0  0.06305  0.58000  0.49610  1.0000
  H   H216      1.0  0.11969  0.60701  0.45046  1.0000
  H   H217      1.0  0.24916  0.47178  0.37674  1.0000
  H   H218      1.0  0.19918  0.44816  0.51701  1.0000
  H   H219      1.0  0.20663  0.44583  0.37219  1.0000
  N   N13       1.0  0.20807  0.44399  0.49031  1.0000
  C   C137      1.0  0.17828  0.44142  0.48632  1.0000
  C   C138      1.0  0.22322  0.45916  0.47590  1.0000
  C   C139      1.0  0.22072  0.41628  0.49317  1.0000
  H   H220      1.0  0.16614  0.42978  0.49678  1.0000
  H   H221      1.0  0.17603  0.43080  0.47443  1.0000
  H   H222      1.0  0.21357  0.47971  0.47309  1.0000
  H   H223      1.0  0.24555  0.46247  0.47859  1.0000
  H   H224      1.0  0.20984  0.40421  0.50397  1.0000
  H   H225      1.0  0.24324  0.41756  0.49611  1.0000
  H   H226      1.0  0.21950  0.40440  0.48169  1.0000
  H   H227      1.0  0.06012  0.63968  0.42739  1.0000
  C   C140      1.0  0.10142  0.53508  0.47334  1.0000
  H   H228      1.0  0.26816  0.45288  0.34172  1.0000
  H   H229      1.0  0.16269  0.56001  0.54018  1.0000
  H   H230      1.0  0.12570  0.59935  0.42010  1.0000
  H   H231      1.0  0.07317  0.38609  0.38948  1.0000
  C   C141      1.0  0.22479  0.48780  0.33727  1.0000
  C   C142      1.0  0.18241  0.54880  0.54050  1.0000
  C   C143      1.0  0.23407  0.39524  0.30659  1.0000
  H   H232      1.0  0.10754  0.63100  0.41455  1.0000
  C   C144      1.0  0.24491  0.48513  0.36500  1.0000
  H   H233      1.0  0.06039  0.56895  0.53082  1.0000
  H   H234      1.0  0.21373  0.47645  0.32780  1.0000
  C   C145      1.0  0.20329  0.45963  0.36056  1.0000
  C   C146      1.0  0.05830  0.61711  0.43053  1.0000
  H   H235      1.0  0.26540  0.49298  0.35956  1.0000
  H   H236      1.0  0.16802  0.46198  0.48419  1.0000
  C   C147      1.0  0.21210  0.41445  0.30589  1.0000
  S   S58       1.0  0.24183  0.41078  0.39449  1.0000
  H   H237      1.0  0.20055  0.48001  0.50416  1.0000
  C   C148      1.0  0.24779  0.44608  0.34790  1.0000
  H   H238      1.0  0.22255  0.44818  0.46404  1.0000
  C   C149      1.0  0.21010  0.45908  0.50579  1.0000
  C   C150      1.0  0.09871  0.61631  0.44790  1.0000
  H   H239      1.0  0.23221  0.50305  0.36899  1.0000
  H   H240      1.0  0.23232  0.46208  0.50895  1.0000
  Fe  Fe27      1.0  0.19418  0.38395  0.34456  1.0000
  C   C151      1.0  0.10452  0.60863  0.41812  1.0000
  S   S59       1.0  0.18620  0.41443  0.32235  1.0000
  N   N14       1.0  0.23021  0.46971  0.35268  1.0000
  H   H241      1.0  0.21146  0.50583  0.34034  1.0000
  H   H242      1.0  0.24465  0.49573  0.33093  1.0000
  H   H243      1.0  0.09578  0.59938  0.40704  1.0000
  H   H244      1.0  0.07721  0.37888  0.33838  1.0000
  C   C152      1.0  0.08225  0.57420  0.43765  1.0000
  H   H245      1.0  0.09923  0.69076  0.30950  1.0000
  Fe  Fe28      1.0  0.21818  0.38182  0.37943  1.0000
  H   H246      1.0  0.06814  0.57010  0.44915  1.0000
  H   H247      1.0  0.06370  0.53313  0.53753  1.0000
  C   C153      1.0  0.06201  0.38628  0.40215  1.0000
  H   H248      1.0  0.10261  0.56367  0.44026  1.0000
  C   C154      1.0  0.05509  0.55319  0.54139  1.0000
  H   H249      1.0  0.05967  0.43494  0.38392  1.0000
  H   H250      1.0  0.06410  0.44059  0.40591  1.0000
  H   H251      1.0  0.10163  0.63888  0.44536  1.0000
  H   H252      1.0  0.08554  0.61286  0.45986  1.0000
  H   H253      1.0  0.24405  0.58424  0.54530  1.0000
  H   H254      1.0  0.23451  0.61980  0.54710  1.0000
  C   C155      1.0  0.05260  0.52206  0.47561  1.0000
  H   H255      1.0  0.23768  0.70193  0.39754  1.0000
  H   H256      1.0  0.22801  0.70573  0.30420  1.0000
  H   H257      1.0  0.25676  0.45975  0.76099  1.0000
  C   C156      1.0  0.21821  0.52415  0.55639  1.0000
  S   S60       1.0  0.20944  0.42338  0.71985  1.0000
  C   C157      1.0  0.07823  0.57974  0.64143  1.0000
  H   H258      1.0  0.25418  0.64318  0.78017  1.0000
  Fe  Fe29      1.0  0.20509  0.50213  0.63254  1.0000
  S   S61       1.0  0.23082  0.52141  0.61030  1.0000
  S   S62       1.0  0.20818  0.45700  0.64098  1.0000
  Fe  Fe30      1.0  0.16981  0.55321  0.63652  1.0000
  S   S63       1.0  0.19242  0.57708  0.61500  1.0000
  S   S64       1.0  0.13237  0.57055  0.65031  1.0000
  Fe  Fe31      1.0  0.19003  0.53878  0.60112  1.0000
  S   S65       1.0  0.17340  0.54563  0.57483  1.0000
  Fe  Fe32      1.0  0.23106  0.55826  0.62592  1.0000
  S   S66       1.0  0.26803  0.58637  0.62442  1.0000
  S   S67       1.0  0.16415  0.51629  0.62191  1.0000
  S   S68       1.0  0.20879  0.53763  0.64898  1.0000
  H   H259      1.0  0.11999  0.46854  0.64100  1.0000
  C   C158      1.0  0.09138  0.57818  0.60663  1.0000
  C   C159      1.0  0.11273  0.57674  0.61825  1.0000
  C   C160      1.0  0.10614  0.57687  0.63569  1.0000
  C   C161      1.0  0.06338  0.57929  0.61244  1.0000
  H   H260      1.0  0.29076  0.59447  0.55669  1.0000
  H   H261      1.0  0.09657  0.57719  0.59320  1.0000
  H   H262      1.0  0.13412  0.57445  0.61366  1.0000
  C   C162      1.0  0.06134  0.50636  0.64947  1.0000
  H   H263      1.0  0.17428  0.69107  0.64221  1.0000
  C   C163      1.0  0.19269  0.53861  0.55610  1.0000
  H   H264      1.0  0.22607  0.51584  0.56837  1.0000
  C   C164      1.0  0.26103  0.66340  0.65430  1.0000
  C   C165      1.0  0.27776  0.66292  0.63934  1.0000
  C   C166      1.0  0.27990  0.63909  0.63048  1.0000
  C   C167      1.0  0.26487  0.61556  0.63629  1.0000
  C   C168      1.0  0.24804  0.61580  0.65130  1.0000
  C   C169      1.0  0.24643  0.63966  0.66045  1.0000
  H   H265      1.0  0.28929  0.68109  0.63462  1.0000
  H   H266      1.0  0.29318  0.63896  0.61903  1.0000
  H   H267      1.0  0.23685  0.59746  0.65606  1.0000
  H   H268      1.0  0.23426  0.63965  0.67230  1.0000
  C   C170      1.0  0.20696  0.43324  0.69807  1.0000
  C   C171      1.0  0.21473  0.45986  0.69187  1.0000
  C   C172      1.0  0.21459  0.46756  0.67438  1.0000
  C   C173      1.0  0.20674  0.44862  0.66303  1.0000
  C   C174      1.0  0.19871  0.42208  0.66926  1.0000
  C   C175      1.0  0.19859  0.41448  0.68676  1.0000
  H   H269      1.0  0.22129  0.47447  0.70055  1.0000
  H   H270      1.0  0.22124  0.48791  0.66967  1.0000
  H   H271      1.0  0.19243  0.40741  0.66053  1.0000
  H   H272      1.0  0.19184  0.39417  0.69145  1.0000
  H   H273      1.0  0.10155  0.49209  0.61456  1.0000
  H   H274      1.0  0.18618  0.62878  0.67149  1.0000
  C   C176      1.0  0.27980  0.60842  0.56544  1.0000
  C   C177      1.0  0.27837  0.40185  0.66867  1.0000
  C   C178      1.0  0.19615  0.42439  0.76908  1.0000
  C   C179      1.0  0.24128  0.66131  0.78181  1.0000
  H   H275      1.0  0.07243  0.52487  0.65305  1.0000
  S   S69       1.0  0.23069  0.65958  0.74814  1.0000
  H   H276      1.0  0.19988  0.46538  0.74441  1.0000
  H   H277      1.0  0.28277  0.39653  0.65534  1.0000
  H   H278      1.0  0.26168  0.55631  0.56987  1.0000
  S   S70       1.0  0.20280  0.66915  0.70162  1.0000
  H   H279      1.0  0.25749  0.41231  0.66909  1.0000
  C   C180      1.0  0.06481  0.46397  0.63546  1.0000
  H   H280      1.0  0.25224  0.42468  0.76925  1.0000
  H   H281      1.0  0.16211  0.61697  0.63760  1.0000
  C   C181      1.0  0.22642  0.67315  0.76814  1.0000
  H   H282      1.0  0.20475  0.40697  0.77725  1.0000
  H   H283      1.0  0.28733  0.40073  0.70194  1.0000
  H   H284      1.0  0.10023  0.52317  0.62527  1.0000
  C   C182      1.0  0.25147  0.57127  0.57823  1.0000
  H   H285      1.0  0.19589  0.46309  0.79174  1.0000
  H   H286      1.0  0.21517  0.49018  0.75688  1.0000
  H   H287      1.0  0.16763  0.68908  0.66477  1.0000
  N   N15       1.0  0.25081  0.59931  0.56977  1.0000
  H   H288      1.0  0.19411  0.41708  0.75617  1.0000
  Fe  Fe33      1.0  0.21700  0.68639  0.72546  1.0000
  C   C183      1.0  0.05679  0.58058  0.62981  1.0000
  H   H289      1.0  0.06947  0.51189  0.61576  1.0000
  H   H290      1.0  0.24143  0.43524  0.74831  1.0000
  H   H291      1.0  0.23659  0.63977  0.57562  1.0000
  H   H292      1.0  0.09982  0.46927  0.66075  1.0000
  H   H293      1.0  0.25099  0.39442  0.69927  1.0000
  Fe  Fe34      1.0  0.23158  0.70004  0.68799  1.0000
  H   H294      1.0  0.26320  0.57054  0.59014  1.0000
  H   H295      1.0  0.21497  0.61209  0.58470  1.0000
  C   C184      1.0  0.10523  0.48129  0.64853  1.0000
  C   C185      1.0  0.27234  0.38526  0.69816  1.0000
  N   N16       1.0  0.07987  0.48904  0.63910  1.0000
  C   C186      1.0  0.08809  0.50467  0.62293  1.0000
  N   N17       1.0  0.16100  0.65131  0.65315  1.0000
  C   C187      1.0  0.13094  0.65701  0.65057  1.0000
  C   C188      1.0  0.16390  0.63399  0.66918  1.0000
  C   C189      1.0  0.17604  0.67746  0.65406  1.0000
  C   C190      1.0  0.17306  0.63668  0.63875  1.0000
  C   C191      1.0  0.23490  0.59915  0.55411  1.0000
  H   H296      1.0  0.27923  0.39468  0.79035  1.0000
  H   H297      1.0  0.07558  0.37925  0.74122  1.0000
  C   C192      1.0  0.20196  0.47143  0.75765  1.0000
  H   H298      1.0  0.22590  0.44102  0.79453  1.0000
  N   N18       1.0  0.21430  0.44883  0.76855  1.0000
  C   C193      1.0  0.20968  0.69648  0.77040  1.0000
  C   C194      1.0  0.21670  0.45762  0.78596  1.0000
  Fe  Fe35      1.0  0.20606  0.37790  0.72697  1.0000
  H   H299      1.0  0.19875  0.67385  0.65609  1.0000
  H   H300      1.0  0.07309  0.58015  0.65490  1.0000
  H   H301      1.0  0.17129  0.64920  0.62648  1.0000
  H   H302      1.0  0.23045  0.47589  0.78610  1.0000
  C   C195      1.0  0.24244  0.44184  0.76147  1.0000
  H   H303      1.0  0.15253  0.61422  0.66898  1.0000
  H   H304      1.0  0.29409  0.41725  0.67165  1.0000
  H   H305      1.0  0.07833  0.45010  0.62798  1.0000
  H   H306      1.0  0.11693  0.49985  0.65159  1.0000
  S   S71       1.0  0.25874  0.69443  0.66446  1.0000
  C   C196      1.0  0.23702  0.61825  0.58141  1.0000
  C   C197      1.0  0.26019  0.38680  0.79676  1.0000
  H   H307      1.0  0.18068  0.47725  0.76256  1.0000
  H   H308      1.0  0.11915  0.63756  0.64977  1.0000
  H   H309      1.0  0.29225  0.60853  0.57706  1.0000
  H   H310      1.0  0.12778  0.67015  0.63866  1.0000
  H   H311      1.0  0.05745  0.45209  0.64740  1.0000
  H   H312      1.0  0.24808  0.61826  0.59357  1.0000
  H   H313      1.0  0.22991  0.56385  0.58167  1.0000
  H   H314      1.0  0.17469  0.42893  0.77424  1.0000
  H   H315      1.0  0.21273  0.59299  0.55708  1.0000
  H   H316      1.0  0.15519  0.64460  0.68030  1.0000
  H   H317      1.0  0.19561  0.63170  0.64037  1.0000
  H   H318      1.0  0.12110  0.66784  0.66129  1.0000
  H   H319      1.0  0.19782  0.70550  0.76007  1.0000
  C   C198      1.0  0.24022  0.67333  0.79747  1.0000
  H   H320      1.0  0.06641  0.55861  0.55273  1.0000
  H   H321      1.0  0.32347  0.37843  0.68363  1.0000
  Fe  Fe36      1.0  0.17141  0.70391  0.70134  1.0000
  C   C199      1.0  0.22388  0.69696  0.79958  1.0000
  H   H322      1.0  0.28019  0.62959  0.55909  1.0000
  H   H323      1.0  0.05357  0.49479  0.66142  1.0000
  H   H324      1.0  0.07214  0.70037  0.68144  1.0000
  S   S72       1.0  0.12894  0.69737  0.69114  1.0000
  N   N19       1.0  0.27894  0.37715  0.68075  1.0000
  H   H325      1.0  0.27307  0.70665  0.74855  1.0000
  Fe  Fe37      1.0  0.29301  0.65113  0.85081  1.0000
  S   S73       1.0  0.24881  0.66445  0.85677  1.0000
  S   S74       1.0  0.30790  0.60717  0.84963  1.0000
  S   S75       1.0  0.13663  0.39628  0.96255  1.0000
  H   H326      1.0  0.33455  0.62537  0.89102  1.0000
  S   S76       1.0  0.32944  0.39926  0.89108  1.0000
  C   C200      1.0  0.29039  0.60549  0.92455  1.0000
  C   C201      1.0  0.05791  0.53382  0.93688  1.0000
  S   S77       1.0  0.31240  0.67723  0.86938  1.0000
  S   S78       1.0  0.29952  0.68237  0.82862  1.0000
  Fe  Fe38      1.0  0.28693  0.41340  0.88199  1.0000
  Fe  Fe39      1.0  0.24943  0.46460  0.87677  1.0000
  S   S79       1.0  0.22075  0.44332  0.86033  1.0000
  S   S80       1.0  0.23618  0.50750  0.88324  1.0000
  Fe  Fe40      1.0  0.22393  0.40778  0.87992  1.0000
  C   C202      1.0  0.25132  0.39627  0.81243  1.0000
  Fe  Fe41      1.0  0.25975  0.42579  0.84849  1.0000
  S   S81       1.0  0.27001  0.42254  0.82068  1.0000
  S   S82       1.0  0.25031  0.43003  0.89727  1.0000
  S   S83       1.0  0.28844  0.45021  0.86308  1.0000
  C   C203      1.0  0.13132  0.38763  0.92884  1.0000
  S   S84       1.0  0.09343  0.64293  0.96615  1.0000
  S   S85       1.0  0.06711  0.42641  0.94191  1.0000
  H   H327      1.0  0.31804  0.39059  0.85402  1.0000
  C   C204      1.0  0.20179  0.69309  0.91935  1.0000
  H   H328      1.0  0.28551  0.62439  0.88258  1.0000
  Fe  Fe42      1.0  0.10579  0.65918  0.93955  1.0000
  S   S86       1.0  0.13815  0.63825  0.92316  1.0000
  Fe  Fe43      1.0  0.09447  0.41739  0.96401  1.0000
  H   H329      1.0  0.31982  0.39216  0.81418  1.0000
  H   H330      1.0  0.09807  0.51231  0.00159  1.0000
  H   H331      1.0  0.28613  0.62619  0.92931  1.0000
  H   H332      1.0  0.06229  0.59198  0.98975  1.0000
  H   H333      1.0  0.21139  0.39198  0.91840  1.0000
  S   S87       1.0  0.09585  0.46120  0.97062  1.0000
  C   C205      1.0  0.08163  0.57893  0.98977  1.0000
  H   H334      1.0  0.18807  0.68013  0.84537  1.0000
  Fe  Fe44      1.0  0.06571  0.46936  0.94997  1.0000
  S   S88       1.0  0.18300  0.38660  0.88699  1.0000
  C   C206      1.0  0.07255  0.55857  0.93594  1.0000
  H   H335      1.0  0.31389  0.58105  0.88722  1.0000
  H   H336      1.0  0.07991  0.56040  0.02275  1.0000
  H   H337      1.0  0.10906  0.38605  0.93173  1.0000
  C   C207      1.0  0.14959  0.39155  0.94179  1.0000
  C   C208      1.0  0.32662  0.62346  0.90456  1.0000
  Fe  Fe45      1.0  0.26847  0.69291  0.87373  1.0000
  H   H338      1.0  0.25853  0.61103  0.89733  1.0000
  H   H339      1.0  0.13028  0.69519  0.87655  1.0000
  C   C209      1.0  0.22708  0.38559  0.82089  1.0000
  C   C210      1.0  0.10242  0.64999  0.04391  1.0000
  C   C211      1.0  0.30517  0.57993  0.90056  1.0000
  H   H340      1.0  0.33141  0.41728  0.83917  1.0000
  H   H341      1.0  0.27460  0.64341  0.90036  1.0000
  H   H342      1.0  0.08456  0.64754  0.00264  1.0000
  S   S89       1.0  0.09987  0.70368  0.94464  1.0000
  H   H343      1.0  0.07295  0.59997  0.94344  1.0000
  H   H344      1.0  0.09358  0.55968  0.93023  1.0000
  H   H345      1.0  0.18185  0.62641  0.89904  1.0000
  H   H346      1.0  0.08991  0.57920  0.97634  1.0000
  C   C212      1.0  0.25522  0.53487  0.87268  1.0000
  C   C213      1.0  0.24409  0.56170  0.87237  1.0000
  C   C214      1.0  0.25944  0.58396  0.86455  1.0000
  C   C215      1.0  0.28630  0.57957  0.85740  1.0000
  C   C216      1.0  0.29725  0.55272  0.85757  1.0000
  C   C217      1.0  0.28173  0.53042  0.86511  1.0000
  H   H347      1.0  0.22351  0.56523  0.87812  1.0000
  H   H348      1.0  0.25060  0.60448  0.86426  1.0000
  H   H349      1.0  0.31804  0.54919  0.85208  1.0000
  H   H350      1.0  0.29059  0.50990  0.86541  1.0000
  H   H351      1.0  0.15492  0.66857  0.85471  1.0000
  C   C218      1.0  0.21213  0.65879  0.89928  1.0000
  C   C219      1.0  0.16947  0.65555  0.91726  1.0000
  C   C220      1.0  0.17667  0.67963  0.92458  1.0000
  C   C221      1.0  0.14192  0.38511  0.91216  1.0000
  C   C222      1.0  0.09136  0.65608  0.01399  1.0000
  C   C223      1.0  0.17438  0.67963  0.85720  1.0000
  S   S90       1.0  0.26047  0.38802  0.86641  1.0000
  S   S91       1.0  0.05800  0.47032  0.01325  1.0000
  N   N20       1.0  0.15515  0.47717  0.91201  1.0000
  C   C224      1.0  0.15331  0.50736  0.90850  1.0000
  C   C225      1.0  0.15245  0.47026  0.93056  1.0000
  C   C226      1.0  0.18248  0.46709  0.90532  1.0000
  C   C227      1.0  0.13231  0.46397  0.90365  1.0000
  H   H352      1.0  0.17029  0.51793  0.91463  1.0000
  H   H353      1.0  0.13286  0.51565  0.91335  1.0000
  H   H354      1.0  0.15543  0.51328  0.89462  1.0000
  H   H355      1.0  0.16945  0.47962  0.93732  1.0000
  H   H356      1.0  0.13201  0.47761  0.93598  1.0000
  H   H357      1.0  0.15351  0.44763  0.93365  1.0000
  H   H358      1.0  0.18525  0.47203  0.89135  1.0000
  H   H359      1.0  0.18456  0.44440  0.90761  1.0000
  H   H360      1.0  0.20030  0.47653  0.91133  1.0000
  H   H361      1.0  0.13374  0.46860  0.88963  1.0000
  H   H362      1.0  0.11136  0.47106  0.90844  1.0000
  H   H363      1.0  0.13313  0.44120  0.90610  1.0000
  S   S92       1.0  0.07476  0.50417  0.93034  1.0000
  H   H364      1.0  0.06007  0.52990  0.02031  1.0000
  Fe  Fe46      1.0  0.08369  0.68708  0.97074  1.0000
  H   H365      1.0  0.25206  0.66425  0.80787  1.0000
  S   S93       1.0  0.05899  0.40622  0.98282  1.0000
  N   N21       1.0  0.07577  0.55054  0.99687  1.0000
  C   C228      1.0  0.06468  0.55109  0.01462  1.0000
  C   C229      1.0  0.27874  0.62228  0.89626  1.0000
  N   N22       1.0  0.30025  0.60775  0.90650  1.0000
  H   H366      1.0  0.34338  0.61325  0.91218  1.0000
  C   C230      1.0  0.18908  0.39083  0.92125  1.0000
  H   H367      1.0  0.22021  0.39276  0.83306  1.0000
  C   C231      1.0  0.09756  0.68410  0.01368  1.0000
  C   C232      1.0  0.09398  0.63907  0.02901  1.0000
  C   C233      1.0  0.21948  0.68280  0.90660  1.0000
  C   C234      1.0  0.10841  0.67804  0.04371  1.0000
  H   H368      1.0  0.27056  0.59363  0.92637  1.0000
  H   H369      1.0  0.32036  0.56786  0.90848  1.0000
  H   H370      1.0  0.11069  0.53300  0.98318  1.0000
  H   H371      1.0  0.30617  0.59487  0.93276  1.0000
  H   H372      1.0  0.16302  0.68774  0.93434  1.0000
  H   H373      1.0  0.32358  0.64474  0.90865  1.0000
  C   C235      1.0  0.17852  0.39268  0.93802  1.0000
  H   H374      1.0  0.08935  0.61739  0.02912  1.0000
  C   C236      1.0  0.17073  0.38729  0.90826  1.0000
  C   C237      1.0  0.18734  0.64508  0.90469  1.0000
  H   H375      1.0  0.19275  0.39549  0.94803  1.0000
  C   C238      1.0  0.33686  0.39730  0.84610  1.0000
  H   H376      1.0  0.22558  0.65056  0.88957  1.0000
  H   H377      1.0  0.28540  0.56796  0.90086  1.0000
  C   C239      1.0  0.10188  0.53392  0.99643  1.0000
  H   H378      1.0  0.09732  0.58909  0.99718  1.0000
  H   H379      1.0  0.11818  0.54259  0.00409  1.0000
  C   C240      1.0  0.37171  0.38543  0.82478  1.0000
  S   S94       1.0  0.06274  0.65541  0.93005  1.0000
  H   H380      1.0  0.05316  0.48549  0.04760  1.0000
  Fe  Fe47      1.0  0.25693  0.69812  0.83631  1.0000
  S   S95       1.0  0.25033  0.70050  0.89980  1.0000
  H   H381      1.0  0.12770  0.38203  0.90218  1.0000
  H   H382      1.0  0.18535  0.66705  0.86727  1.0000
  C   C241      1.0  0.06080  0.58146  0.94340  1.0000
  Fe  Fe48      1.0  0.05827  0.45103  0.98789  1.0000
  H   H383      1.0  0.06308  0.53627  0.97335  1.0000
  H   H384      1.0  0.36852  0.40560  0.81746  1.0000
  C   C242      1.0  0.10599  0.69504  0.02860  1.0000
  H   H385      1.0  0.35347  0.40117  0.85508  1.0000
  S   S96       1.0  0.09447  0.70595  0.99498  1.0000
  H   H386      1.0  0.16101  0.69468  0.88879  1.0000
  Fe  Fe49      1.0  0.05547  0.69846  0.93707  1.0000
  C   C243      1.0  0.05482  0.53818  0.98659  1.0000
  N   N23       1.0  0.34573  0.37635  0.83429  1.0000
  C   C244      1.0  0.15023  0.70607  0.87816  1.0000
  H   H387      1.0  0.36478  0.78818  0.19909  1.0000
  H   H388      1.0  0.20554  0.71018  0.17341  1.0000
  H   H389      1.0  0.33365  0.78199  0.24812  1.0000
  C   C245      1.0  0.36403  0.80325  0.18777  1.0000
  H   H390      1.0  0.34422  0.81534  0.18910  1.0000
  H   H391      1.0  0.30134  0.75496  0.29556  1.0000
  H   H392      1.0  0.36264  0.79119  0.17640  1.0000
  C   C246      1.0  0.35086  0.84199  0.28610  1.0000
  N   N24       1.0  0.26284  0.73239  0.29726  1.0000
  H   H393      1.0  0.33067  0.85058  0.29109  1.0000
  C   C247      1.0  0.24506  0.75749  0.29631  1.0000
  C   C248      1.0  0.33906  0.74807  0.23212  1.0000
  C   C249      1.0  0.34842  0.77047  0.24058  1.0000
  S   S97       1.0  0.21347  0.73162  0.23883  1.0000
  C   C250      1.0  0.26713  0.72237  0.28009  1.0000
  H   H394      1.0  0.18077  0.75355  0.26604  1.0000
  C   C251      1.0  0.35806  0.73307  0.22235  1.0000
  H   H395      1.0  0.25466  0.77404  0.28755  1.0000
  H   H396      1.0  0.24689  0.71721  0.27474  1.0000
  C   C252      1.0  0.37673  0.77806  0.23920  1.0000
  C   C253      1.0  0.19861  0.71576  0.25772  1.0000
  N   N25       1.0  0.37483  0.85139  0.29530  1.0000
  C   C254      1.0  0.37630  0.88176  0.29323  1.0000
  C   C255      1.0  0.17739  0.71382  0.15260  1.0000
  H   H397      1.0  0.07274  0.75646  0.28828  1.0000
  H   H398      1.0  0.16322  0.72798  0.15867  1.0000
  H   H399      1.0  0.31720  0.74236  0.23318  1.0000
  S   S98       1.0  0.26693  0.71760  0.20107  1.0000
  H   H400      1.0  0.16345  0.73252  0.29403  1.0000
  S   S99       1.0  0.13883  0.71348  0.12786  1.0000
  C   C256      1.0  0.18411  0.73181  0.26928  1.0000
  H   H401      1.0  0.37912  0.88926  0.27960  1.0000
  C   C257      1.0  0.17455  0.71997  0.28519  1.0000
  H   H402      1.0  0.35693  0.89153  0.29852  1.0000
  H   H403      1.0  0.37073  0.84915  0.20385  1.0000
  H   H404      1.0  0.36799  0.85467  0.17243  1.0000
  H   H405      1.0  0.35311  0.84830  0.27225  1.0000
  H   H406      1.0  0.10278  0.71399  0.29079  1.0000
  H   H407      1.0  0.34936  0.81913  0.28726  1.0000
  H   H408      1.0  0.27728  0.73814  0.27098  1.0000
  H   H409      1.0  0.22407  0.75324  0.29153  1.0000
  S   S100      1.0  0.34179  0.92468  0.37125  1.0000
  H   H410      1.0  0.23604  0.78924  0.40076  1.0000
  C   C258      1.0  0.36610  0.00574  0.37390  1.0000
  N   N26       1.0  0.06927  0.72433  0.30846  1.0000
  Fe  Fe50      1.0  0.34035  0.89023  0.35367  1.0000
  S   S101      1.0  0.30049  0.87806  0.34174  1.0000
  S   S102      1.0  0.17370  0.75738  0.36613  1.0000
  S   S103      1.0  0.18255  0.75130  0.32491  1.0000
  Fe  Fe51      1.0  0.20860  0.74577  0.34786  1.0000
  S   S104      1.0  0.25466  0.75575  0.34898  1.0000
  Fe  Fe52      1.0  0.14665  0.75856  0.34347  1.0000
  S   S105      1.0  0.11343  0.78913  0.33521  1.0000
  C   C259      1.0  0.08059  0.78381  0.34580  1.0000
  C   C260      1.0  0.07837  0.76934  0.36177  1.0000
  C   C261      1.0  0.22849  0.72208  0.39288  1.0000
  H   H411      1.0  0.24369  0.75785  0.42657  1.0000
  H   H412      1.0  0.30408  0.72031  0.30497  1.0000
  H   H413      1.0  0.09708  0.76193  0.36797  1.0000
  H   H414      1.0  0.07901  0.73259  0.33385  1.0000
  C   C262      1.0  0.28773  0.84407  0.34450  1.0000
  C   C263      1.0  0.25998  0.83895  0.34052  1.0000
  C   C264      1.0  0.24936  0.81202  0.34214  1.0000
  C   C265      1.0  0.26667  0.78997  0.34743  1.0000
  C   C266      1.0  0.29447  0.79502  0.35130  1.0000
  C   C267      1.0  0.30493  0.82199  0.34997  1.0000
  H   H415      1.0  0.24659  0.85594  0.33624  1.0000
  H   H416      1.0  0.22792  0.80837  0.33909  1.0000
  H   H417      1.0  0.30802  0.77802  0.35534  1.0000
  H   H418      1.0  0.32636  0.82567  0.35296  1.0000
  H   H419      1.0  0.34359  0.02580  0.39392  1.0000
  H   H420      1.0  0.20538  0.72083  0.39533  1.0000
  H   H421      1.0  0.24475  0.72116  0.42497  1.0000
  H   H422      1.0  0.28082  0.76344  0.40335  1.0000
  H   H423      1.0  0.23076  0.77509  0.38085  1.0000
  C   C268      1.0  0.29022  0.73886  0.30394  1.0000
  N   N27       1.0  0.24048  0.74513  0.40121  1.0000
  C   C269      1.0  0.23508  0.74079  0.41979  1.0000
  H   H424      1.0  0.35527  0.98642  0.37652  1.0000
  H   H425      1.0  0.23250  0.72436  0.37888  1.0000
  C   C270      1.0  0.22729  0.77133  0.39487  1.0000
  C   C271      1.0  0.06847  0.75371  0.30226  1.0000
  S   S106      1.0  0.36874  0.86171  0.36882  1.0000
  H   H426      1.0  0.20422  0.77127  0.39765  1.0000
  S   S107      1.0  0.13411  0.71442  0.34749  1.0000
  C   C272      1.0  0.27102  0.74625  0.39729  1.0000
  C   C273      1.0  0.35944  0.02809  0.38370  1.0000
  H   H427      1.0  0.11402  0.72412  0.31074  1.0000
  C   C274      1.0  0.05625  0.79330  0.33785  1.0000
  C   C275      1.0  0.09748  0.71277  0.30469  1.0000
  S   S108      1.0  0.37481  0.90794  0.33610  1.0000
  C   C276      1.0  0.37118  0.84248  0.31359  1.0000
  H   H428      1.0  0.21217  0.73959  0.42308  1.0000
  H   H429      1.0  0.35164  0.85132  0.31935  1.0000
  H   H430      1.0  0.28764  0.74661  0.31687  1.0000
  H   H431      1.0  0.36998  0.81968  0.31567  1.0000
  C   C277      1.0  0.24890  0.71088  0.30873  1.0000
  H   H432      1.0  0.28165  0.72673  0.40176  1.0000
  H   H433      1.0  0.27567  0.74954  0.38333  1.0000
  Fe  Fe53      1.0  0.16413  0.71211  0.36863  1.0000
  H   H434      1.0  0.08446  0.76570  0.30835  1.0000
  C   C278      1.0  0.06311  0.72176  0.32702  1.0000
  Fe  Fe54      1.0  0.37904  0.93972  0.35503  1.0000
  Fe  Fe55      1.0  0.17157  0.70697  0.33041  1.0000
  S   S109      1.0  0.37638  0.89356  0.41329  1.0000
  H   H435      1.0  0.24554  0.71767  0.32183  1.0000
  Fe  Fe56      1.0  0.37312  0.89738  0.38495  1.0000
  H   H436      1.0  0.24171  0.76578  0.30904  1.0000
  H   H437      1.0  0.05789  0.80466  0.32555  1.0000
  H   H438      1.0  0.35196  0.03812  0.31495  1.0000
  H   H439      1.0  0.35290  0.03903  0.33752  1.0000
  C   C279      1.0  0.38580  0.00889  0.36029  1.0000
  S   S110      1.0  0.33474  0.90821  0.73234  1.0000
  H   H440      1.0  0.15441  0.76843  0.71513  1.0000
  H   H441      1.0  0.13587  0.76041  0.68758  1.0000
  H   H442      1.0  0.15084  0.80123  0.72374  1.0000
  Fe  Fe57      1.0  0.35534  0.87761  0.71570  1.0000
  S   S111      1.0  0.34057  0.83871  0.70490  1.0000
  H   H443      1.0  0.36727  0.96824  0.78283  1.0000
  H   H444      1.0  0.28930  0.74790  0.72953  1.0000
  H   H445      1.0  0.24128  0.74547  0.74350  1.0000
  H   H446      1.0  0.12050  0.77995  0.72253  1.0000
  S   S112      1.0  0.19926  0.73382  0.68596  1.0000
  Fe  Fe58      1.0  0.21397  0.74546  0.71097  1.0000
  S   S113      1.0  0.21844  0.78929  0.71797  1.0000
  H   H447      1.0  0.33792  0.83887  0.79821  1.0000
  H   H448      1.0  0.09590  0.81730  0.70621  1.0000
  C   C280      1.0  0.36120  0.01000  0.70863  1.0000
  H   H449      1.0  0.11221  0.83371  0.68724  1.0000
  N   N28       1.0  0.27988  0.74741  0.75641  1.0000
  H   H450      1.0  0.37572  0.03162  0.78060  1.0000
  C   C281      1.0  0.07623  0.73669  0.72329  1.0000
  N   N29       1.0  0.36962  0.00095  0.76290  1.0000
  C   C282      1.0  0.09898  0.71140  0.70107  1.0000
  H   H451      1.0  0.07724  0.74667  0.73504  1.0000
  H   H452      1.0  0.31255  0.75422  0.77344  1.0000
  C   C283      1.0  0.28217  0.71712  0.75910  1.0000
  C   C284      1.0  0.10040  0.72440  0.71622  1.0000
  H   H453      1.0  0.35369  0.97322  0.74575  1.0000
  H   H454      1.0  0.12556  0.83924  0.70765  1.0000
  C   C285      1.0  0.30627  0.82588  0.70857  1.0000
  C   C286      1.0  0.28607  0.83901  0.71860  1.0000
  C   C287      1.0  0.25903  0.82785  0.72128  1.0000
  C   C288      1.0  0.25214  0.80347  0.71404  1.0000
  C   C289      1.0  0.27233  0.79040  0.70403  1.0000
  C   C290      1.0  0.29928  0.80155  0.70133  1.0000
  H   H455      1.0  0.29123  0.85784  0.72417  1.0000
  H   H456      1.0  0.24346  0.83814  0.72899  1.0000
  H   H457      1.0  0.26718  0.77180  0.69821  1.0000
  H   H458      1.0  0.31473  0.79134  0.69350  1.0000
  C   C291      1.0  0.29029  0.76006  0.77134  1.0000
  S   S114      1.0  0.18297  0.71847  0.72636  1.0000
  C   C292      1.0  0.29678  0.75699  0.74102  1.0000
  H   H459      1.0  0.34275  0.01406  0.78338  1.0000
  Fe  Fe59      1.0  0.35889  0.94033  0.71599  1.0000
  H   H460      1.0  0.31926  0.75120  0.74212  1.0000
  S   S115      1.0  0.33845  0.98169  0.71000  1.0000
  H   H461      1.0  0.28886  0.78293  0.76973  1.0000
  S   S116      1.0  0.36963  0.90678  0.77541  1.0000
  C   C293      1.0  0.35866  0.02250  0.77372  1.0000
  H   H462      1.0  0.32983  0.98059  0.76291  1.0000
  C   C294      1.0  0.25024  0.75548  0.75424  1.0000
  H   H463      1.0  0.24782  0.77812  0.75149  1.0000
  S   S117      1.0  0.24888  0.71437  0.71179  1.0000
  C   C295      1.0  0.34630  0.98974  0.75390  1.0000
  H   H464      1.0  0.23703  0.74947  0.76583  1.0000
  Fe  Fe60      1.0  0.37394  0.90457  0.74703  1.0000
  N   N30       1.0  0.13552  0.79959  0.69859  1.0000
  C   C296      1.0  0.16255  0.80869  0.69033  1.0000
  C   C297      1.0  0.12261  0.77932  0.68834  1.0000
  C   C298      1.0  0.11648  0.82356  0.69998  1.0000
  C   C299      1.0  0.14044  0.78677  0.71577  1.0000
  H   H465      1.0  0.17314  0.82363  0.69789  1.0000
  H   H466      1.0  0.15979  0.81866  0.67736  1.0000
  H   H467      1.0  0.17739  0.79106  0.68911  1.0000
  H   H468      1.0  0.10173  0.77270  0.69392  1.0000
  H   H469      1.0  0.11941  0.78794  0.67512  1.0000
  H   H470      1.0  0.29554  0.77979  0.73861  1.0000
  H   H471      1.0  0.27784  0.75322  0.78316  1.0000
  H   H472      1.0  0.12001  0.72489  0.72250  1.0000
  C   C300      1.0  0.20822  0.70821  0.78613  1.0000
  H   H473      1.0  0.19528  0.72630  0.78777  1.0000
  H   H474      1.0  0.30434  0.71009  0.76002  1.0000
  H   H475      1.0  0.33625  0.00589  0.74538  1.0000
  C   C301      1.0  0.35031  0.03657  0.71049  1.0000
  H   H476      1.0  0.38162  0.03025  0.74224  1.0000
  C   C302      1.0  0.07335  0.71032  0.69319  1.0000
  H   H477      1.0  0.27084  0.70944  0.77108  1.0000
  H   H478      1.0  0.32792  0.03961  0.71221  1.0000
  H   H479      1.0  0.38484  0.79580  0.79689  1.0000
  H   H480      1.0  0.37344  0.84528  0.79073  1.0000
  S   S118      1.0  0.37566  0.91028  0.69772  1.0000
  C   C303      1.0  0.38277  0.97857  0.77359  1.0000
  H   H481      1.0  0.34852  0.03960  0.76598  1.0000
  H   H482      1.0  0.19071  0.74262  0.86966  1.0000
  H   H483      1.0  0.33154  0.75378  0.87173  1.0000
  H   H484      1.0  0.35589  0.91751  0.92399  1.0000
  C   C304      1.0  0.19458  0.72163  0.86533  1.0000
  S   S119      1.0  0.35409  0.73441  0.83984  1.0000
  H   H485      1.0  0.16644  0.72489  0.83653  1.0000
  Fe  Fe61      1.0  0.31531  0.70974  0.84774  1.0000
  H   H486      1.0  0.11087  0.71669  0.02843  1.0000
  N   N31       1.0  0.36920  0.82318  0.81535  1.0000
  H   H487      1.0  0.35041  0.78708  0.89062  1.0000
  C   C305      1.0  0.35618  0.86346  0.91908  1.0000
  H   H488      1.0  0.36067  0.84528  0.91155  1.0000
  H   H489      1.0  0.36928  0.89867  0.94243  1.0000
  C   C306      1.0  0.36816  0.75481  0.85480  1.0000
  C   C307      1.0  0.35225  0.76222  0.86907  1.0000
  C   C308      1.0  0.34974  0.82235  0.83046  1.0000
  H   H490      1.0  0.20834  0.72373  0.85358  1.0000
  H   H491      1.0  0.35020  0.85545  0.93229  1.0000
  H   H492      1.0  0.35703  0.80743  0.84071  1.0000
  H   H493      1.0  0.14481  0.72687  0.88235  1.0000
  S   S120      1.0  0.27306  0.72802  0.85375  1.0000
  N   N32       1.0  0.38071  0.88174  0.91865  1.0000
  H   H494      1.0  0.20738  0.71164  0.92510  1.0000
  C   C309      1.0  0.36290  0.78119  0.87969  1.0000
  H   H495      1.0  0.37673  0.99753  0.02798  1.0000
  H   H496      1.0  0.32838  0.81596  0.82738  1.0000
  H   H497      1.0  0.37038  0.90448  0.89526  1.0000
  H   H498      1.0  0.37823  0.77974  0.81782  1.0000
  C   C310      1.0  0.15340  0.72350  0.84865  1.0000
  H   H499      1.0  0.34795  0.84279  0.83587  1.0000
  H   H500      1.0  0.33764  0.87437  0.91363  1.0000
  C   C311      1.0  0.37418  0.90544  0.92886  1.0000
  H   H501      1.0  0.14857  0.74489  0.85200  1.0000
  S   S121      1.0  0.22340  0.71334  0.81868  1.0000
  C   C312      1.0  0.37048  0.79583  0.80837  1.0000
  H   H502      1.0  0.35789  0.86479  0.80709  1.0000
  C   C313      1.0  0.35914  0.84387  0.80229  1.0000
  H   H503      1.0  0.34944  0.78915  0.80488  1.0000
  H   H504      1.0  0.38523  0.94696  0.03064  1.0000
  H   H505      1.0  0.13329  0.71364  0.84606  1.0000
  H   H506      1.0  0.20664  0.70992  0.87525  1.0000
  N   N33       1.0  0.16812  0.70770  0.86235  1.0000
  H   H507      1.0  0.38473  0.91637  0.80911  1.0000
  C   C314      1.0  0.66841  0.29434  0.21845  1.0000
  C   C315      1.0  0.43171  0.17216  0.29702  1.0000
  S   S122      1.0  0.64827  0.15346  0.18470  1.0000
  Fe  Fe62      1.0  0.70572  0.22994  0.20824  1.0000
  C   C316      1.0  0.63889  0.32169  0.23630  1.0000
  H   H508      1.0  0.70887  0.09246  0.23348  1.0000
  S   S123      1.0  0.47776  0.09160  0.14914  1.0000
  S   S124      1.0  0.66231  0.05622  0.11612  1.0000
  H   H509      1.0  0.41633  0.06842  0.20908  1.0000
  N   N34       1.0  0.55737  0.04320  0.07760  1.0000
  Fe  Fe63      1.0  0.45912  0.05794  0.13514  1.0000
  S   S125      1.0  0.41008  0.05026  0.08008  1.0000
  H   H510      1.0  0.69664  0.07991  0.08704  1.0000
  Fe  Fe64      1.0  0.65068  0.22102  0.22815  1.0000
  S   S126      1.0  0.65445  0.17512  0.22900  1.0000
  S   S127      1.0  0.61448  0.24150  0.24146  1.0000
  H   H511      1.0  0.40791  0.06808  0.17856  1.0000
  S   S128      1.0  0.41396  0.05035  0.13046  1.0000
  Fe  Fe65      1.0  0.66869  0.18187  0.20158  1.0000
  H   H512      1.0  0.67638  0.30681  0.25976  1.0000
  C   C317      1.0  0.68671  0.17709  0.27768  1.0000
  S   S129      1.0  0.66118  0.22746  0.20026  1.0000
  Fe  Fe66      1.0  0.42050  0.20205  0.20447  1.0000
  S   S130      1.0  0.42648  0.24718  0.19750  1.0000
  H   H513      1.0  0.68068  0.10046  0.07041  1.0000
  Fe  Fe67      1.0  0.44232  0.20541  0.23990  1.0000
  S   S131      1.0  0.45059  0.25065  0.23578  1.0000
  S   S132      1.0  0.45387  0.18386  0.26486  1.0000
  H   H514      1.0  0.68772  0.34792  0.24045  1.0000
  H   H515      1.0  0.70883  0.32773  0.22665  1.0000
  Fe  Fe68      1.0  0.46766  0.24045  0.21006  1.0000
  S   S133      1.0  0.50757  0.25669  0.19709  1.0000
  C   C318      1.0  0.70408  0.11157  0.14558  1.0000
  S   S134      1.0  0.46297  0.19482  0.21514  1.0000
  H   H516      1.0  0.67257  0.08010  0.14783  1.0000
  C   C319      1.0  0.42617  0.17612  0.27972  1.0000
  H   H517      1.0  0.62403  0.30428  0.23917  1.0000
  C   C320      1.0  0.39860  0.17479  0.27461  1.0000
  H   H518      1.0  0.70791  0.13694  0.05389  1.0000
  H   H519      1.0  0.68064  0.34826  0.21822  1.0000
  H   H520      1.0  0.56601  0.06799  0.09822  1.0000
  C   C321      1.0  0.55835  0.04717  0.09595  1.0000
  C   C322      1.0  0.58483  0.24588  0.22911  1.0000
  C   C323      1.0  0.55816  0.24040  0.23658  1.0000
  C   C324      1.0  0.53429  0.24355  0.22681  1.0000
  C   C325      1.0  0.53699  0.25308  0.20968  1.0000
  C   C326      1.0  0.56363  0.25902  0.20228  1.0000
  C   C327      1.0  0.58757  0.25504  0.21191  1.0000
  H   H521      1.0  0.55596  0.23332  0.24990  1.0000
  H   H522      1.0  0.51382  0.23881  0.23260  1.0000
  H   H523      1.0  0.56575  0.26658  0.18905  1.0000
  H   H524      1.0  0.60802  0.25967  0.20610  1.0000
  C   C328      1.0  0.66155  0.11323  0.16348  1.0000
  H   H525      1.0  0.69851  0.28663  0.24649  1.0000
  H   H526      1.0  0.64202  0.10391  0.16823  1.0000
  C   C329      1.0  0.42095  0.15261  0.17605  1.0000
  C   C330      1.0  0.45006  0.15339  0.17717  1.0000
  C   C331      1.0  0.46724  0.13473  0.16870  1.0000
  C   C332      1.0  0.45547  0.11530  0.15896  1.0000
  C   C333      1.0  0.42638  0.11466  0.15766  1.0000
  C   C334      1.0  0.40915  0.13326  0.16623  1.0000
  H   H527      1.0  0.45938  0.16854  0.18439  1.0000
  H   H528      1.0  0.48974  0.13539  0.16965  1.0000
  C   C335      1.0  0.43312  0.04965  0.06212  1.0000
  C   C336      1.0  0.66972  0.13827  0.16926  1.0000
  H   H529      1.0  0.41715  0.09997  0.15001  1.0000
  H   H530      1.0  0.69073  0.07760  0.18944  1.0000
  H   H531      1.0  0.70542  0.12546  0.22216  1.0000
  C   C337      1.0  0.67676  0.29464  0.24837  1.0000
  H   H532      1.0  0.67749  0.10578  0.20091  1.0000
  C   C338      1.0  0.69074  0.08680  0.20195  1.0000
  C   C339      1.0  0.45943  0.05293  0.18893  1.0000
  H   H533      1.0  0.53813  0.06238  0.05549  1.0000
  H   H534      1.0  0.54805  0.08580  0.07069  1.0000
  S   S135      1.0  0.69445  0.22690  0.23618  1.0000
  H   H535      1.0  0.41524  0.28105  0.26159  1.0000
  Fe  Fe69      1.0  0.40880  0.25323  0.22376  1.0000
  Fe  Fe70      1.0  0.69936  0.18145  0.23437  1.0000
  H   H536      1.0  0.68970  0.28565  0.21595  1.0000
  H   H537      1.0  0.53728  0.04464  0.10245  1.0000
  H   H538      1.0  0.67253  0.18172  0.26752  1.0000
  C   C340      1.0  0.41302  0.04569  0.17932  1.0000
  H   H539      1.0  0.65911  0.19389  0.29674  1.0000
  C   C341      1.0  0.69610  0.10091  0.08057  1.0000
  H   H540      1.0  0.63125  0.33416  0.22501  1.0000
  N   N35       1.0  0.39268  0.26188  0.28339  1.0000
  S   S136      1.0  0.39896  0.17555  0.18681  1.0000
  C   C342      1.0  0.67883  0.09974  0.15186  1.0000
  H   H541      1.0  0.46926  0.04761  0.17653  1.0000
  N   N36       1.0  0.56262  0.17448  0.18972  1.0000
  C   C343      1.0  0.57626  0.19464  0.17717  1.0000
  C   C344      1.0  0.56688  0.14643  0.18403  1.0000
  C   C345      1.0  0.53225  0.18067  0.19125  1.0000
  C   C346      1.0  0.57512  0.17623  0.20641  1.0000
  H   H542      1.0  0.59928  0.19072  0.17586  1.0000
  H   H543      1.0  0.57322  0.21604  0.18100  1.0000
  H   H544      1.0  0.56754  0.19382  0.16438  1.0000
  H   H545      1.0  0.55709  0.13066  0.19327  1.0000
  H   H546      1.0  0.55760  0.14440  0.17149  1.0000
  H   H547      1.0  0.58960  0.14119  0.18261  1.0000
  H   H548      1.0  0.52124  0.16584  0.20058  1.0000
  H   H549      1.0  0.52213  0.17998  0.17885  1.0000
  H   H550      1.0  0.52830  0.20160  0.19565  1.0000
  H   H551      1.0  0.56545  0.16132  0.21624  1.0000
  H   H552      1.0  0.57216  0.19712  0.21108  1.0000
  H   H553      1.0  0.59810  0.17192  0.20568  1.0000
  C   C347      1.0  0.41706  0.24523  0.28912  1.0000
  S   S137      1.0  0.39931  0.20853  0.22978  1.0000
  C   C348      1.0  0.42055  0.04584  0.20930  1.0000
  H   H554      1.0  0.45607  0.07565  0.18800  1.0000
  H   H555      1.0  0.63756  0.33474  0.24729  1.0000
  C   C349      1.0  0.68700  0.33490  0.22948  1.0000
  H   H556      1.0  0.68790  0.11505  0.09012  1.0000
  H   H557      1.0  0.66242  0.30641  0.20662  1.0000
  S   S138      1.0  0.47454  0.04945  0.10877  1.0000
  H   H558      1.0  0.68022  0.07214  0.21159  1.0000
  Fe  Fe71      1.0  0.70649  0.05515  0.12437  1.0000
  C   C350      1.0  0.58610  0.04463  0.06984  1.0000
  H   H559      1.0  0.70132  0.16964  0.16739  1.0000
  C   C351      1.0  0.53962  0.06493  0.06934  1.0000
  N   N37       1.0  0.66778  0.31143  0.23315  1.0000
  H   H560      1.0  0.51783  0.06445  0.07504  1.0000
  C   C352      1.0  0.69500  0.15017  0.16307  1.0000
  H   H561      1.0  0.43109  0.25715  0.29666  1.0000
  H   H562      1.0  0.65375  0.27677  0.22067  1.0000
  C   C353      1.0  0.67908  0.18391  0.29425  1.0000
  S   S139      1.0  0.71429  0.18459  0.20693  1.0000
  H   H563      1.0  0.58627  0.04222  0.05592  1.0000
  C   C354      1.0  0.71240  0.16399  0.27438  1.0000
  H   H564      1.0  0.66285  0.27656  0.25139  1.0000
  H   H565      1.0  0.38753  0.23804  0.26194  1.0000
  H   H566      1.0  0.41031  0.22665  0.29724  1.0000
  C   C355      1.0  0.40254  0.28667  0.27301  1.0000
  H   H567      1.0  0.42988  0.23797  0.27814  1.0000
  C   C356      1.0  0.71212  0.13686  0.15118  1.0000
  H   H568      1.0  0.71453  0.15236  0.07331  1.0000
  H   H569      1.0  0.59617  0.06460  0.07170  1.0000
  H   H570      1.0  0.41576  0.29975  0.28035  1.0000
  H   H571      1.0  0.39424  0.17712  0.26129  1.0000
  H   H572      1.0  0.47493  0.04783  0.19882  1.0000
  S   S140      1.0  0.66034  0.04041  0.07039  1.0000
  H   H573      1.0  0.71371  0.10601  0.29915  1.0000
  H   H574      1.0  0.43487  0.04032  0.21979  1.0000
  C   C357      1.0  0.71831  0.10621  0.22293  1.0000
  H   H575      1.0  0.42194  0.04078  0.16666  1.0000
  H   H576      1.0  0.38666  0.13270  0.16518  1.0000
  Fe  Fe72      1.0  0.58366  0.12679  0.47021  1.0000
  S   S141      1.0  0.54163  0.13084  0.48335  1.0000
  S   S142      1.0  0.60461  0.08532  0.47075  1.0000
  Fe  Fe73      1.0  0.58452  0.18605  0.45685  1.0000
  S   S143      1.0  0.54193  0.19545  0.46863  1.0000
  S   S144      1.0  0.61053  0.21621  0.44004  1.0000
  Fe  Fe74      1.0  0.55728  0.17051  0.49164  1.0000
  S   S145      1.0  0.54334  0.17939  0.51846  1.0000
  Fe  Fe75      1.0  0.52977  0.15492  0.45946  1.0000
  S   S146      1.0  0.48827  0.14289  0.44994  1.0000
  S   S147      1.0  0.60095  0.16438  0.48064  1.0000
  S   S148      1.0  0.57077  0.14779  0.44558  1.0000
  H   H577      1.0  0.43081  0.04537  0.44346  1.0000
  N   N38       1.0  0.58355  0.08022  0.52226  1.0000
  S   S149      1.0  0.45659  0.18058  0.37513  1.0000
  H   H578      1.0  0.61504  0.11125  0.52311  1.0000
  H   H579      1.0  0.44874  0.20476  0.42445  1.0000
  H   H580      1.0  0.59513  0.11387  0.50430  1.0000
  H   H581      1.0  0.42819  0.08832  0.41369  1.0000
  H   H582      1.0  0.48079  0.06230  0.39774  1.0000
  C   C358      1.0  0.48220  0.15156  0.42849  1.0000
  C   C359      1.0  0.49870  0.17080  0.41866  1.0000
  C   C360      1.0  0.49144  0.17903  0.40195  1.0000
  C   C361      1.0  0.46802  0.16769  0.39504  1.0000
  C   C362      1.0  0.45269  0.14730  0.40459  1.0000
  C   C363      1.0  0.45937  0.13973  0.42138  1.0000
  H   H583      1.0  0.51639  0.17999  0.42414  1.0000
  H   H584      1.0  0.50350  0.19469  0.39455  1.0000
  H   H585      1.0  0.43541  0.13764  0.39910  1.0000
  H   H586      1.0  0.44656  0.12501  0.42903  1.0000
  C   C364      1.0  0.64134  0.20024  0.43256  1.0000
  C   C365      1.0  0.65964  0.21452  0.42074  1.0000
  C   C366      1.0  0.68298  0.20097  0.41361  1.0000
  N   N39       1.0  0.41229  0.22873  0.41752  1.0000
  C   C367      1.0  0.67065  0.15943  0.43092  1.0000
  C   C368      1.0  0.64703  0.17274  0.43770  1.0000
  H   H587      1.0  0.65532  0.23586  0.41681  1.0000
  H   H588      1.0  0.44583  0.25583  0.42209  1.0000
  H   H589      1.0  0.67482  0.13807  0.43491  1.0000
  H   H590      1.0  0.63314  0.16157  0.44686  1.0000
  H   H591      1.0  0.41779  0.25453  0.43804  1.0000
  C   C369      1.0  0.42553  0.20449  0.42643  1.0000
  C   C370      1.0  0.56405  0.16730  0.53535  1.0000
  C   C371      1.0  0.59291  0.16319  0.53296  1.0000
  H   H592      1.0  0.42075  0.20357  0.44039  1.0000
  H   H593      1.0  0.60227  0.21660  0.38268  1.0000
  H   H594      1.0  0.60293  0.16753  0.52051  1.0000
  C   C372      1.0  0.40963  0.16791  0.30922  1.0000
  H   H595      1.0  0.46829  0.04195  0.44386  1.0000
  H   H596      1.0  0.42907  0.06507  0.39713  1.0000
  H   H597      1.0  0.61496  0.19657  0.40078  1.0000
  H   H598      1.0  0.54981  0.09378  0.45717  1.0000
  C   C373      1.0  0.56125  0.09643  0.53059  1.0000
  C   C374      1.0  0.55587  0.07255  0.45627  1.0000
  H   H599      1.0  0.40984  0.24704  0.39192  1.0000
  C   C375      1.0  0.69730  0.17811  0.30751  1.0000
  H   H600      1.0  0.70517  0.08197  0.33582  1.0000
  H   H601      1.0  0.55160  0.11186  0.52139  1.0000
  C   C376      1.0  0.41943  0.22903  0.39910  1.0000
  H   H602      1.0  0.41176  0.21030  0.39365  1.0000
  C   C377      1.0  0.68836  0.17332  0.41866  1.0000
  H   H603      1.0  0.40798  0.05745  0.41615  1.0000
  H   H604      1.0  0.38832  0.28271  0.30646  1.0000
  C   C378      1.0  0.59708  0.06160  0.53518  1.0000
  H   H605      1.0  0.69666  0.21183  0.40420  1.0000
  S   S150      1.0  0.40003  0.13318  0.35693  1.0000
  H   H606      1.0  0.41807  0.18499  0.42176  1.0000
  S   S151      1.0  0.68720  0.18655  0.32821  1.0000
  Fe  Fe76      1.0  0.41189  0.16908  0.37123  1.0000
  H   H607      1.0  0.63874  0.21741  0.38721  1.0000
  C   C379      1.0  0.53711  0.05454  0.44983  1.0000
  H   H608      1.0  0.41401  0.16557  0.32258  1.0000
  N   N40       1.0  0.62588  0.18035  0.37670  1.0000
  C   C380      1.0  0.60083  0.16275  0.37731  1.0000
  C   C381      1.0  0.63257  0.19088  0.35895  1.0000
  C   C382      1.0  0.64991  0.16403  0.38328  1.0000
  C   C383      1.0  0.62022  0.20376  0.38729  1.0000
  H   H609      1.0  0.60432  0.14487  0.36945  1.0000
  H   H610      1.0  0.58226  0.17444  0.37246  1.0000
  H   H611      1.0  0.59527  0.15454  0.39057  1.0000
  H   H612      1.0  0.61505  0.20343  0.35350  1.0000
  H   H613      1.0  0.65154  0.20410  0.35803  1.0000
  H   H614      1.0  0.63701  0.17380  0.35056  1.0000
  H   H615      1.0  0.64577  0.15593  0.39671  1.0000
  H   H616      1.0  0.66922  0.17663  0.38293  1.0000
  H   H617      1.0  0.65484  0.14619  0.37561  1.0000
  H   H618      1.0  0.40377  0.07556  0.36411  1.0000
  C   C384      1.0  0.42844  0.06618  0.41118  1.0000
  C   C385      1.0  0.58199  0.06299  0.46169  1.0000
  H   H619      1.0  0.51677  0.06209  0.44606  1.0000
  H   H620      1.0  0.56967  0.10796  0.54087  1.0000
  H   H621      1.0  0.58754  0.05168  0.50271  1.0000
  H   H622      1.0  0.54420  0.08306  0.53643  1.0000
  H   H623      1.0  0.60656  0.07340  0.54503  1.0000
  C   C386      1.0  0.60474  0.09906  0.51382  1.0000
  H   H624      1.0  0.62143  0.08765  0.50687  1.0000
  H   H625      1.0  0.56089  0.07733  0.49952  1.0000
  H   H626      1.0  0.41297  0.27281  0.41772  1.0000
  H   H627      1.0  0.44253  0.22960  0.39641  1.0000
  C   C387      1.0  0.39302  0.05631  0.36679  1.0000
  C   C388      1.0  0.60895  0.15395  0.54680  1.0000
  H   H628      1.0  0.38775  0.07745  0.33258  1.0000
  C   C389      1.0  0.57122  0.06385  0.50946  1.0000
  C   C390      1.0  0.42267  0.25413  0.42414  1.0000
  H   H629      1.0  0.58174  0.04707  0.54184  1.0000
  N   N41       1.0  0.45240  0.05129  0.41899  1.0000
  C   C391      1.0  0.47899  0.06331  0.41178  1.0000
  H   H630      1.0  0.45305  0.17308  0.30102  1.0000
  H   H631      1.0  0.63135  0.15101  0.54495  1.0000
  H   H632      1.0  0.48071  0.08533  0.41449  1.0000
  C   C392      1.0  0.45086  0.05363  0.43758  1.0000
  H   H633      1.0  0.61414  0.04920  0.52931  1.0000
  H   H634      1.0  0.45248  0.07545  0.44076  1.0000
  H   H635      1.0  0.69666  0.07414  0.30556  1.0000
  S   S152      1.0  0.71639  0.15512  0.40956  1.0000
  H   H636      1.0  0.55520  0.04929  0.51531  1.0000
  H   H637      1.0  0.49744  0.05220  0.41727  1.0000
  C   C393      1.0  0.71741  0.08358  0.30210  1.0000
  S   S153      1.0  0.43521  0.14502  0.73124  1.0000
  S   S154      1.0  0.70042  0.14678  0.72223  1.0000
  Fe  Fe77      1.0  0.42825  0.18215  0.71339  1.0000
  S   S155      1.0  0.46767  0.20524  0.70517  1.0000
  H   H638      1.0  0.53543  0.09002  0.68281  1.0000
  H   H639      1.0  0.71366  0.08368  0.68509  1.0000
  Fe  Fe78      1.0  0.61929  0.16330  0.64024  1.0000
  S   S156      1.0  0.57901  0.15145  0.65459  1.0000
  S   S157      1.0  0.65669  0.18433  0.64970  1.0000
  Fe  Fe79      1.0  0.60105  0.14212  0.60705  1.0000
  S   S158      1.0  0.55938  0.12819  0.61841  1.0000
  S   S159      1.0  0.61695  0.13710  0.58005  1.0000
  Fe  Fe80      1.0  0.55837  0.16805  0.63094  1.0000
  S   S160      1.0  0.51728  0.19111  0.63068  1.0000
  Fe  Fe81      1.0  0.58330  0.11269  0.64100  1.0000
  S   S161      1.0  0.57258  0.07175  0.65445  1.0000
  S   S162      1.0  0.59817  0.18353  0.61761  1.0000
  S   S163      1.0  0.62544  0.12296  0.62868  1.0000
  H   H640      1.0  0.64940  0.13488  0.70628  1.0000
  H   H641      1.0  0.55735  0.14828  0.57787  1.0000
  H   H642      1.0  0.58191  0.20603  0.58321  1.0000
  C   C394      1.0  0.71432  0.16090  0.76900  1.0000
  S   S164      1.0  0.39202  0.15613  0.77456  1.0000
  S   S165      1.0  0.40018  0.16082  0.69656  1.0000
  H   H643      1.0  0.59769  0.07411  0.62056  1.0000
  C   C395      1.0  0.40903  0.18029  0.78590  1.0000
  C   C396      1.0  0.42461  0.20176  0.77754  1.0000
  C   C397      1.0  0.43701  0.22135  0.78700  1.0000
  C   C398      1.0  0.55128  0.16185  0.55156  1.0000
  H   H644      1.0  0.42707  0.20331  0.76382  1.0000
  H   H645      1.0  0.44890  0.23803  0.78050  1.0000
  C   C399      1.0  0.48073  0.20261  0.68418  1.0000
  C   C400      1.0  0.46324  0.19602  0.67135  1.0000
  C   C401      1.0  0.47446  0.19318  0.65481  1.0000
  C   C402      1.0  0.50331  0.19608  0.65120  1.0000
  C   C403      1.0  0.52077  0.20285  0.66399  1.0000
  C   C404      1.0  0.50939  0.20661  0.68037  1.0000
  H   H646      1.0  0.44102  0.19349  0.67410  1.0000
  H   H647      1.0  0.46084  0.18824  0.64490  1.0000
  H   H648      1.0  0.54299  0.20555  0.66123  1.0000
  H   H649      1.0  0.52295  0.21201  0.69021  1.0000
  H   H650      1.0  0.45939  0.10819  0.67989  1.0000
  H   H651      1.0  0.52882  0.16432  0.55327  1.0000
  C   C405      1.0  0.68879  0.19397  0.78515  1.0000
  H   H652      1.0  0.52321  0.15113  0.68204  1.0000
  C   C406      1.0  0.68720  0.15872  0.70261  1.0000
  H   H653      1.0  0.54601  0.25126  0.79946  1.0000
  C   C407      1.0  0.69262  0.18534  0.67552  1.0000
  C   C408      1.0  0.66734  0.17502  0.67037  1.0000
  C   C409      1.0  0.65168  0.15689  0.68151  1.0000
  C   C410      1.0  0.66146  0.14902  0.69772  1.0000
  H   H654      1.0  0.50301  0.08041  0.67431  1.0000
  H   H655      1.0  0.70467  0.19954  0.66697  1.0000
  H   H656      1.0  0.63213  0.14892  0.67762  1.0000
  H   H657      1.0  0.48049  0.10913  0.71499  1.0000
  N   N42       1.0  0.54283  0.22865  0.58365  1.0000
  N   N43       1.0  0.69187  0.18210  0.76846  1.0000
  H   H658      1.0  0.50657  0.25374  0.57808  1.0000
  C   C411      1.0  0.69922  0.20407  0.75513  1.0000
  C   C412      1.0  0.58383  0.04587  0.64145  1.0000
  H   H659      1.0  0.68282  0.22049  0.75436  1.0000
  C   C413      1.0  0.57013  0.22179  0.57534  1.0000
  H   H660      1.0  0.50613  0.20748  0.59432  1.0000
  Fe  Fe82      1.0  0.40496  0.12443  0.71548  1.0000
  H   H661      1.0  0.66683  0.16042  0.75193  1.0000
  C   C414      1.0  0.56733  0.15276  0.56543  1.0000
  H   H662      1.0  0.56742  0.21329  0.56280  1.0000
  C   C415      1.0  0.49312  0.09748  0.70569  1.0000
  H   H663      1.0  0.70020  0.10262  0.64841  1.0000
  N   N44       1.0  0.49979  0.11480  0.68990  1.0000
  H   H664      1.0  0.52100  0.11074  0.66557  1.0000
  C   C416      1.0  0.47350  0.12529  0.68246  1.0000
  H   H665      1.0  0.53680  0.13119  0.69985  1.0000
  C   C417      1.0  0.51711  0.13824  0.69381  1.0000
  S   S166      1.0  0.39312  0.19889  0.72968  1.0000
  H   H666      1.0  0.69580  0.11486  0.67813  1.0000
  H   H667      1.0  0.50557  0.15181  0.70257  1.0000
  Fe  Fe83      1.0  0.39763  0.15959  0.74599  1.0000
  C   C418      1.0  0.54745  0.24124  0.59977  1.0000
  H   H668      1.0  0.55991  0.26040  0.59765  1.0000
  H   H669      1.0  0.53921  0.26764  0.56924  1.0000
  C   C419      1.0  0.39728  0.05539  0.70792  1.0000
  H   H670      1.0  0.47771  0.13786  0.67029  1.0000
  H   H671      1.0  0.58368  0.24021  0.57306  1.0000
  H   H672      1.0  0.51243  0.08977  0.71191  1.0000
  H   H673      1.0  0.48057  0.07925  0.70311  1.0000
  C   C420      1.0  0.59546  0.05280  0.62517  1.0000
  H   H674      1.0  0.46159  0.13856  0.69121  1.0000
  S   S167      1.0  0.42069  0.08300  0.70780  1.0000
  H   H675      1.0  0.65914  0.15253  0.77420  1.0000
  H   H676      1.0  0.70163  0.19577  0.74235  1.0000
  H   H677      1.0  0.70990  0.14430  0.77918  1.0000
  C   C421      1.0  0.52627  0.20331  0.58728  1.0000
  C   C422      1.0  0.51544  0.09825  0.67762  1.0000
  H   H678      1.0  0.55881  0.22690  0.60875  1.0000
  H   H679      1.0  0.53784  0.18759  0.59531  1.0000
  H   H680      1.0  0.67269  0.21070  0.78512  1.0000
  H   H681      1.0  0.68274  0.17810  0.79549  1.0000
  H   H682      1.0  0.64779  0.18483  0.76403  1.0000
  C   C423      1.0  0.66519  0.16942  0.76452  1.0000
  C   C424      1.0  0.52733  0.24825  0.57223  1.0000
  H   H683      1.0  0.52115  0.19394  0.57542  1.0000
  C   C425      1.0  0.70274  0.17692  0.69150  1.0000
  C   C426      1.0  0.59626  0.14896  0.56309  1.0000
  H   H684      1.0  0.52723  0.24637  0.60646  1.0000
  H   H685      1.0  0.52352  0.23934  0.55993  1.0000
  H   H686      1.0  0.70876  0.20300  0.78865  1.0000
  H   H687      1.0  0.71794  0.07116  0.65516  1.0000
  H   H688      1.0  0.71672  0.15107  0.75674  1.0000
  C   C427      1.0  0.71685  0.10548  0.68025  1.0000
  H   H689      1.0  0.71803  0.14697  0.65537  1.0000
  Fe  Fe84      1.0  0.42488  0.19643  0.87455  1.0000
  S   S168      1.0  0.42914  0.22739  0.89371  1.0000
  H   H690      1.0  0.69613  0.08908  0.90506  1.0000
  Fe  Fe85      1.0  0.44142  0.23765  0.84487  1.0000
  S   S169      1.0  0.44745  0.27201  0.86192  1.0000
  S   S170      1.0  0.44945  0.24421  0.81648  1.0000
  Fe  Fe86      1.0  0.46884  0.23923  0.87876  1.0000
  S   S171      1.0  0.50951  0.23526  0.89244  1.0000
  C   C428      1.0  0.41879  0.19769  0.81312  1.0000
  C   C429      1.0  0.40712  0.14908  0.93281  1.0000
  S   S172      1.0  0.46566  0.20634  0.86059  1.0000
  H   H691      1.0  0.39816  0.32394  0.88665  1.0000
  H   H692      1.0  0.52502  0.20749  0.83850  1.0000
  C   C430      1.0  0.40557  0.11243  0.90726  1.0000
  S   S173      1.0  0.67759  0.24873  0.87983  1.0000
  Fe  Fe87      1.0  0.65858  0.27059  0.85694  1.0000
  S   S174      1.0  0.61682  0.29291  0.85644  1.0000
  S   S175      1.0  0.66597  0.23615  0.84000  1.0000
  C   C431      1.0  0.55273  0.08488  0.95880  1.0000
  C   C432      1.0  0.69743  0.15126  0.88263  1.0000
  C   C433      1.0  0.68810  0.12518  0.88881  1.0000
  H   H693      1.0  0.40007  0.08084  0.92774  1.0000
  H   H694      1.0  0.64882  0.16855  0.90522  1.0000
  H   H695      1.0  0.50230  0.21767  0.82162  1.0000
  H   H696      1.0  0.67323  0.19292  0.95331  1.0000
  C   C434      1.0  0.43404  0.21939  0.80481  1.0000
  H   H697      1.0  0.65106  0.06030  0.03614  1.0000
  C   C435      1.0  0.53948  0.25186  0.88302  1.0000
  C   C436      1.0  0.56566  0.23847  0.88379  1.0000
  C   C437      1.0  0.58970  0.25103  0.87591  1.0000
  C   C438      1.0  0.58769  0.27722  0.86745  1.0000
  C   C439      1.0  0.56162  0.29081  0.86704  1.0000
  C   C440      1.0  0.53758  0.27819  0.87481  1.0000
  H   H698      1.0  0.56729  0.21820  0.89027  1.0000
  H   H699      1.0  0.60974  0.24042  0.87625  1.0000
  H   H700      1.0  0.56004  0.31118  0.86066  1.0000
  H   H701      1.0  0.51759  0.28889  0.87451  1.0000
  H   H702      1.0  0.69742  0.15359  0.92817  1.0000
  S   S176      1.0  0.41321  0.15220  0.88125  1.0000
  H   H703      1.0  0.53768  0.20713  0.81671  1.0000
  H   H704      1.0  0.66626  0.13385  0.92664  1.0000
  C   C441      1.0  0.53214  0.26149  0.80882  1.0000
  C   C442      1.0  0.40373  0.12092  0.93721  1.0000
  C   C443      1.0  0.40619  0.17831  0.80368  1.0000
  H   H705      1.0  0.49325  0.26390  0.83348  1.0000
  Fe  Fe88      1.0  0.70746  0.25571  0.83299  1.0000
  C   C444      1.0  0.51493  0.26193  0.83795  1.0000
  C   C445      1.0  0.40945  0.14053  0.90284  1.0000
  C   C446      1.0  0.55443  0.07913  0.94170  1.0000
  Fe  Fe89      1.0  0.43258  0.07459  0.96368  1.0000
  N   N45       1.0  0.49781  0.14818  0.91575  1.0000
  C   C447      1.0  0.49110  0.15555  0.89787  1.0000
  C   C448      1.0  0.52823  0.14277  0.91685  1.0000
  C   C449      1.0  0.48233  0.12318  0.92214  1.0000
  C   C450      1.0  0.48958  0.17120  0.92618  1.0000
  H   H706      1.0  0.50248  0.17434  0.89263  1.0000
  H   H707      1.0  0.46831  0.15989  0.89663  1.0000
  H   H708      1.0  0.49672  0.13858  0.88962  1.0000
  H   H709      1.0  0.53393  0.13721  0.93022  1.0000
  H   H710      1.0  0.53502  0.12518  0.90935  1.0000
  S   S177      1.0  0.47534  0.08661  0.97092  1.0000
  H   H711      1.0  0.48714  0.11681  0.93554  1.0000
  H   H712      1.0  0.48767  0.10550  0.91440  1.0000
  H   H713      1.0  0.45938  0.12647  0.92173  1.0000
  H   H714      1.0  0.46673  0.17576  0.92563  1.0000
  H   H715      1.0  0.50081  0.19046  0.92162  1.0000
  H   H716      1.0  0.49425  0.16636  0.93977  1.0000
  N   N46       1.0  0.53352  0.24745  0.82603  1.0000
  C   C451      1.0  0.68816  0.05037  0.02121  1.0000
  H   H717      1.0  0.57736  0.23700  0.82308  1.0000
  H   H718      1.0  0.66019  0.21832  0.93780  1.0000
  S   S178      1.0  0.52527  0.06655  0.93218  1.0000
  H   H719      1.0  0.61986  0.15484  0.93199  1.0000
  C   C452      1.0  0.63005  0.17201  0.93788  1.0000
  C   C453      1.0  0.52428  0.21865  0.82569  1.0000
  H   H720      1.0  0.67615  0.14374  0.94692  1.0000
  H   H721      1.0  0.41403  0.18024  0.91244  1.0000
  S   S179      1.0  0.70984  0.09361  0.96679  1.0000
  Fe  Fe90      1.0  0.66610  0.08129  0.96201  1.0000
  C   C454      1.0  0.41047  0.15876  0.91567  1.0000
  C   C455      1.0  0.56262  0.24779  0.83170  1.0000
  C   C456      1.0  0.44212  0.05881  0.03159  1.0000
  H   H722      1.0  0.40476  0.09818  0.89740  1.0000
  C   C457      1.0  0.57950  0.08364  0.93211  1.0000
  Fe  Fe91      1.0  0.68774  0.21550  0.86222  1.0000
  H   H723      1.0  0.41673  0.19572  0.82683  1.0000
  H   H724      1.0  0.40796  0.16325  0.94270  1.0000
  C   C458      1.0  0.60300  0.09339  0.93976  1.0000
  C   C459      1.0  0.57598  0.09530  0.96631  1.0000
  S   S180      1.0  0.40148  0.10883  0.95867  1.0000
  S   S181      1.0  0.63063  0.11048  0.96669  1.0000
  H   H725      1.0  0.54064  0.16112  0.91201  1.0000
  C   C460      1.0  0.67210  0.19857  0.93943  1.0000
  C   C461      1.0  0.67542  0.15085  0.93321  1.0000
  S   S182      1.0  0.67600  0.17135  0.86898  1.0000
  H   H726      1.0  0.57034  0.26923  0.83215  1.0000
  C   C462      1.0  0.60122  0.09915  0.95688  1.0000
  H   H727      1.0  0.58090  0.07918  0.91888  1.0000
  H   H728      1.0  0.43521  0.06698  0.01934  1.0000
  H   H729      1.0  0.53368  0.08101  0.96638  1.0000
  H   H730      1.0  0.62241  0.09658  0.93238  1.0000
  S   S183      1.0  0.69837  0.29238  0.84792  1.0000
  S   S184      1.0  0.67591  0.06690  0.93622  1.0000
  H   H731      1.0  0.67929  0.18922  0.90662  1.0000
  S   S185      1.0  0.40019  0.22447  0.85699  1.0000
  H   H732      1.0  0.57463  0.09954  0.97959  1.0000
  H   H733      1.0  0.69390  0.20250  0.93428  1.0000
  H   H734      1.0  0.64518  0.20398  0.90992  1.0000
  Fe  Fe92      1.0  0.40717  0.25672  0.87524  1.0000
  H   H735      1.0  0.66860  0.11747  0.88463  1.0000
  C   C463      1.0  0.65794  0.18493  0.91235  1.0000
  C   C464      1.0  0.40302  0.10259  0.92441  1.0000
  H   H736      1.0  0.56422  0.23759  0.84472  1.0000
  H   H737      1.0  0.62997  0.16634  0.95181  1.0000
  H   H738      1.0  0.51363  0.25066  0.85073  1.0000
  N   N47       1.0  0.65887  0.17658  0.93071  1.0000
  C   C465      1.0  0.70360  0.10915  0.90058  1.0000
  H   H739      1.0  0.61670  0.19076  0.93587  1.0000
  C   C466      1.0  0.67162  0.05071  0.03634  1.0000
  S   S186      1.0  0.44787  0.04816  0.94305  1.0000
  H   H740      1.0  0.68032  0.05974  0.00948  1.0000
  H   H741      1.0  0.52237  0.28313  0.83946  1.0000
  H   H742      1.0  0.39430  0.16163  0.81021  1.0000
  C   C467      1.0  0.42419  0.05989  0.04614  1.0000
  H   H743      1.0  0.40341  0.06880  0.04506  1.0000
  Fe  Fe93      1.0  0.47272  0.04916  0.98929  1.0000
  H   H744      1.0  0.51037  0.26137  0.80422  1.0000
  H   H745      1.0  0.53864  0.28338  0.80871  1.0000
  Fe  Fe94      1.0  0.49041  0.05750  0.95176  1.0000
  S   S187      1.0  0.49162  0.04458  0.01505  1.0000
  C   C468      1.0  0.46903  0.04745  0.03301  1.0000
  Fe  Fe95      1.0  0.71434  0.05013  0.97802  1.0000
  Fe  Fe96      1.0  0.71824  0.26748  0.86926  1.0000
  H   H746      1.0  0.38764  0.57844  0.21157  1.0000
  H   H747      1.0  0.38900  0.38803  0.83353  1.0000
  H   H748      1.0  0.54182  0.90024  0.26492  1.0000
  H   H749      1.0  0.65837  0.71996  0.21098  1.0000
  H   H750      1.0  0.68925  0.95190  0.16305  1.0000
  S   S188      1.0  0.43540  0.99316  0.11352  1.0000
  H   H751      1.0  0.61408  0.95446  0.17595  1.0000
  Fe  Fe97      1.0  0.43038  0.82402  0.24141  1.0000
  S   S189      1.0  0.42991  0.86933  0.23371  1.0000
  Fe  Fe98      1.0  0.65735  0.01756  0.13298  1.0000
  Fe  Fe99      1.0  0.49428  0.82019  0.23655  1.0000
  S   S190      1.0  0.49845  0.86490  0.22825  1.0000
  S   S191      1.0  0.53352  0.79481  0.24054  1.0000
  Fe  Fe100     1.0  0.46743  0.87111  0.24972  1.0000
  H   H752      1.0  0.45306  0.00148  0.20362  1.0000
  Fe  Fe101     1.0  0.46079  0.85848  0.21304  1.0000
  S   S192      1.0  0.45964  0.87243  0.18527  1.0000
  S   S193      1.0  0.46545  0.82674  0.25918  1.0000
  S   S194      1.0  0.45899  0.81282  0.21958  1.0000
  C   C469      1.0  0.59189  0.00191  0.14063  1.0000
  S   S195      1.0  0.68717  0.82437  0.23955  1.0000
  Fe  Fe102     1.0  0.67823  0.84727  0.21474  1.0000
  S   S196      1.0  0.64137  0.84056  0.19876  1.0000
  S   S197      1.0  0.68187  0.88872  0.22478  1.0000
  C   C470      1.0  0.57515  0.87312  0.24341  1.0000
  C   C471      1.0  0.69843  0.77727  0.20527  1.0000
  H   H753      1.0  0.59320  0.90976  0.26438  1.0000
  H   H754      1.0  0.41665  0.78905  0.19562  1.0000
  C   C472      1.0  0.46675  0.89243  0.28879  1.0000
  H   H755      1.0  0.70451  0.75827  0.23763  1.0000
  C   C473      1.0  0.56323  0.80628  0.22820  1.0000
  C   C474      1.0  0.56066  0.82304  0.21316  1.0000
  C   C475      1.0  0.58477  0.83312  0.20402  1.0000
  C   C476      1.0  0.61146  0.82702  0.21008  1.0000
  C   C477      1.0  0.61398  0.81017  0.22508  1.0000
  C   C478      1.0  0.58996  0.79949  0.23397  1.0000
  H   H756      1.0  0.54011  0.82812  0.20851  1.0000
  H   H757      1.0  0.58265  0.84595  0.19234  1.0000
  H   H758      1.0  0.63441  0.80509  0.22975  1.0000
  H   H759      1.0  0.59204  0.78640  0.24554  1.0000
  H   H760      1.0  0.59559  0.86636  0.23767  1.0000
  C   C479      1.0  0.40799  0.93950  0.18373  1.0000
  H   H761      1.0  0.54600  0.87665  0.28326  1.0000
  C   C480      1.0  0.45224  0.90926  0.29989  1.0000
  Fe  Fe103     1.0  0.47878  0.00568  0.11912  1.0000
  C   C481      1.0  0.44314  0.90393  0.17922  1.0000
  C   C482      1.0  0.42194  0.91516  0.18948  1.0000
  H   H762      1.0  0.40042  0.81651  0.28905  1.0000
  C   C483      1.0  0.41568  0.95296  0.16791  1.0000
  C   C484      1.0  0.43720  0.94196  0.15784  1.0000
  C   C485      1.0  0.45058  0.91731  0.16338  1.0000
  S   S198      1.0  0.62101  0.01096  0.15154  1.0000
  H   H763      1.0  0.44329  0.95219  0.14563  1.0000
  H   H764      1.0  0.46690  0.90869  0.15537  1.0000
  C   C486      1.0  0.56607  0.01464  0.14388  1.0000
  H   H765      1.0  0.66090  0.97347  0.16976  1.0000
  H   H766      1.0  0.48733  0.85321  0.28642  1.0000
  H   H767      1.0  0.57281  0.96024  0.11040  1.0000
  Fe  Fe104     1.0  0.69472  0.86582  0.24880  1.0000
  C   C487      1.0  0.41451  0.80433  0.18453  1.0000
  N   N48       1.0  0.65061  0.93067  0.16919  1.0000
  C   C488      1.0  0.62021  0.93654  0.16857  1.0000
  C   C489      1.0  0.65794  0.90738  0.15880  1.0000
  C   C490      1.0  0.65808  0.92344  0.18695  1.0000
  C   C491      1.0  0.66631  0.95532  0.16243  1.0000
  H   H768      1.0  0.60763  0.91852  0.17378  1.0000
  H   H769      1.0  0.61394  0.94185  0.15529  1.0000
  Fe  Fe105     1.0  0.71237  0.99370  0.12125  1.0000
  H   H770      1.0  0.70285  0.77711  0.19132  1.0000
  H   H771      1.0  0.55857  0.86045  0.23847  1.0000
  N   N49       1.0  0.43283  0.03812  0.19279  1.0000
  H   H772      1.0  0.68100  0.91923  0.18783  1.0000
  H   H773      1.0  0.64692  0.90463  0.19239  1.0000
  H   H774      1.0  0.65273  0.94045  0.19522  1.0000
  H   H775      1.0  0.66171  0.96106  0.14892  1.0000
  S   S199      1.0  0.39860  0.98370  0.16090  1.0000
  S   S200      1.0  0.70012  0.01877  0.14313  1.0000
  S   S201      1.0  0.67548  0.87540  0.27422  1.0000
  Fe  Fe106     1.0  0.42360  0.00650  0.13955  1.0000
  S   S202      1.0  0.51622  0.98073  0.11126  1.0000
  H   H776      1.0  0.64650  0.88837  0.16362  1.0000
  C   C492      1.0  0.54542  0.01596  0.07531  1.0000
  H   H777      1.0  0.53010  0.86553  0.26479  1.0000
  S   S203      1.0  0.66872  0.99005  0.11226  1.0000
  H   H778      1.0  0.59782  0.88542  0.28234  1.0000
  C   C493      1.0  0.59686  0.88762  0.26824  1.0000
  C   C494      1.0  0.54707  0.87851  0.26912  1.0000
  H   H779      1.0  0.56426  0.82719  0.26357  1.0000
  H   H780      1.0  0.60123  0.83393  0.26272  1.0000
  H   H781      1.0  0.40114  0.72907  0.21352  1.0000
  C   C495      1.0  0.59443  0.98247  0.12844  1.0000
  H   H782      1.0  0.41946  0.84546  0.29516  1.0000
  H   H783      1.0  0.68022  0.73043  0.23783  1.0000
  C   C496      1.0  0.66501  0.74062  0.20537  1.0000
  H   H784      1.0  0.65284  0.91215  0.14527  1.0000
  H   H785      1.0  0.68075  0.90246  0.15904  1.0000
  C   C497      1.0  0.57094  0.97549  0.11969  1.0000
  H   H786      1.0  0.61431  0.97242  0.12599  1.0000
  C   C498      1.0  0.47519  0.86595  0.29468  1.0000
  H   H787      1.0  0.40032  0.03514  0.21248  1.0000
  H   H788      1.0  0.41446  0.79270  0.17293  1.0000
  H   H789      1.0  0.57130  0.89483  0.23861  1.0000
  C   C499      1.0  0.54511  0.98838  0.12288  1.0000
  H   H790      1.0  0.59981  0.02808  0.07560  1.0000
  C   C500      1.0  0.58050  0.84103  0.26787  1.0000
  H   H791      1.0  0.40552  0.85501  0.17002  1.0000
  S   S204      1.0  0.47321  0.90435  0.26748  1.0000
  H   H792      1.0  0.56417  0.02998  0.15311  1.0000
  H   H793      1.0  0.68131  0.79261  0.20724  1.0000
  H   H794      1.0  0.61803  0.88194  0.26299  1.0000
  C   C501      1.0  0.39564  0.76315  0.22934  1.0000
  C   C502      1.0  0.54284  0.00825  0.13478  1.0000
  H   H795      1.0  0.41756  0.76850  0.22845  1.0000
  C   C503      1.0  0.69744  0.89586  0.28530  1.0000
  H   H796      1.0  0.64724  0.75527  0.20745  1.0000
  N   N50       1.0  0.57489  0.87010  0.26218  1.0000
  H   H797      1.0  0.55734  0.99910  0.08218  1.0000
  C   C504      1.0  0.71889  0.91121  0.27665  1.0000
  H   H798      1.0  0.41851  0.99627  0.19625  1.0000
  H   H799      1.0  0.52337  0.01910  0.13683  1.0000
  H   H800      1.0  0.39201  0.82212  0.21340  1.0000
  Fe  Fe107     1.0  0.67816  0.02892  0.09606  1.0000
  H   H801      1.0  0.66818  0.73937  0.19139  1.0000
  H   H802      1.0  0.41595  0.90490  0.20167  1.0000
  H   H803      1.0  0.54553  0.01168  0.06166  1.0000
  Fe  Fe108     1.0  0.43015  0.03782  0.10486  1.0000
  N   N51       1.0  0.69074  0.74970  0.21298  1.0000
  H   H804      1.0  0.44735  0.00153  0.18131  1.0000
  H   H805      1.0  0.39131  0.94792  0.19154  1.0000
  H   H806      1.0  0.52330  0.01460  0.08038  1.0000
  H   H807      1.0  0.58067  0.83798  0.28197  1.0000
  S   S205      1.0  0.46758  0.01493  0.14587  1.0000
  H   H808      1.0  0.70876  0.70890  0.21521  1.0000
  H   H809      1.0  0.46679  0.02956  0.07562  1.0000
  H   H810      1.0  0.44615  0.92997  0.29549  1.0000
  H   H811      1.0  0.43365  0.81732  0.18353  1.0000
  C   C505      1.0  0.43822  0.00808  0.19360  1.0000
  C   C506      1.0  0.46003  0.03820  0.06346  1.0000
  C   C507      1.0  0.68563  0.75098  0.23152  1.0000
  H   H812      1.0  0.39303  0.03416  0.18141  1.0000
  H   H813      1.0  0.66810  0.76540  0.23442  1.0000
  C   C508      1.0  0.70822  0.02659  0.05185  1.0000
  S   S206      1.0  0.38791  0.80640  0.24974  1.0000
  H   H814      1.0  0.57262  0.03189  0.10241  1.0000
  C   C509      1.0  0.68160  0.03891  0.05169  1.0000
  H   H815      1.0  0.71598  0.01724  0.06362  1.0000
  H   H816      1.0  0.40486  0.84642  0.27461  1.0000
  C   C510      1.0  0.40103  0.83941  0.28825  1.0000
  H   H817      1.0  0.40816  0.85052  0.20109  1.0000
  H   H818      1.0  0.71894  0.72906  0.19595  1.0000
  H   H819      1.0  0.71757  0.78485  0.21089  1.0000
  C   C511      1.0  0.71392  0.73007  0.20980  1.0000
  C   C512      1.0  0.38994  0.83643  0.20187  1.0000
  C   C513      1.0  0.38633  0.74072  0.22097  1.0000
  N   N52       1.0  0.38882  0.82129  0.18638  1.0000
  C   C514      1.0  0.38693  0.84123  0.17139  1.0000
  H   H820      1.0  0.39429  0.88946  0.29994  1.0000
  H   H821      1.0  0.40527  0.97728  0.05116  1.0000
  H   H822      1.0  0.38597  0.83062  0.15944  1.0000
  Fe  Fe109     1.0  0.52387  0.90152  0.44375  1.0000
  S   S207      1.0  0.55511  0.93326  0.43369  1.0000
  S   S208      1.0  0.50416  0.87206  0.42723  1.0000
  Fe  Fe110     1.0  0.52619  0.91677  0.48026  1.0000
  S   S209      1.0  0.55780  0.94985  0.47362  1.0000
  S   S210      1.0  0.50347  0.91037  0.50586  1.0000
  Fe  Fe111     1.0  0.53208  0.96098  0.45095  1.0000
  S   S211      1.0  0.51988  0.00405  0.44196  1.0000
  Fe  Fe112     1.0  0.57859  0.91947  0.45688  1.0000
  S   S212      1.0  0.62573  0.91554  0.45613  1.0000
  S   S213      1.0  0.49862  0.93063  0.45900  1.0000
  S   S214      1.0  0.54923  0.88507  0.46566  1.0000
  S   S215      1.0  0.67431  0.90010  0.38164  1.0000
  C   C515      1.0  0.68014  0.01338  0.39456  1.0000
  H   H823      1.0  0.54229  0.86464  0.51074  1.0000
  H   H824      1.0  0.50140  0.93390  0.37963  1.0000
  S   S216      1.0  0.43939  0.85773  0.34199  1.0000
  S   S217      1.0  0.41043  0.91503  0.37008  1.0000
  H   H825      1.0  0.57920  0.90419  0.50222  1.0000
  C   C516      1.0  0.45159  0.87194  0.32203  1.0000
  H   H826      1.0  0.60991  0.02799  0.46423  1.0000
  H   H827      1.0  0.48747  0.87312  0.48115  1.0000
  C   C517      1.0  0.46843  0.87810  0.42395  1.0000
  C   C518      1.0  0.45240  0.85731  0.41796  1.0000
  C   C519      1.0  0.42411  0.86210  0.41460  1.0000
  C   C520      1.0  0.41159  0.88746  0.41766  1.0000
  C   C521      1.0  0.42748  0.90815  0.42387  1.0000
  C   C522      1.0  0.45598  0.90359  0.42680  1.0000
  H   H828      1.0  0.46191  0.83753  0.41574  1.0000
  H   H829      1.0  0.67227  0.02329  0.42751  1.0000
  H   H830      1.0  0.41789  0.92794  0.42596  1.0000
  H   H831      1.0  0.46840  0.92010  0.43076  1.0000
  C   C523      1.0  0.66197  0.90167  0.40287  1.0000
  C   C524      1.0  0.67970  0.90799  0.41566  1.0000
  C   C525      1.0  0.66865  0.91111  0.43223  1.0000
  C   C526      1.0  0.63983  0.90825  0.43597  1.0000
  C   C527      1.0  0.62236  0.90085  0.42335  1.0000
  C   C528      1.0  0.63340  0.89759  0.40685  1.0000
  H   H832      1.0  0.66225  0.96115  0.39278  1.0000
  H   H833      1.0  0.68237  0.91626  0.44204  1.0000
  H   H834      1.0  0.60035  0.89748  0.42626  1.0000
  H   H835      1.0  0.61968  0.89224  0.39708  1.0000
  H   H836      1.0  0.41685  0.86288  0.50175  1.0000
  C   C529      1.0  0.57086  0.01736  0.45369  1.0000
  N   N53       1.0  0.67179  0.99338  0.40882  1.0000
  H   H837      1.0  0.50202  0.92191  0.34991  1.0000
  H   H838      1.0  0.57696  0.99619  0.45236  1.0000
  H   H839      1.0  0.49564  0.88707  0.34511  1.0000
  C   C530      1.0  0.54097  0.87548  0.52222  1.0000
  C   C531      1.0  0.52335  0.89849  0.52321  1.0000
  H   H840      1.0  0.41187  0.84613  0.40971  1.0000
  H   H841      1.0  0.64958  0.87392  0.51109  1.0000
  H   H842      1.0  0.38903  0.84918  0.32087  1.0000
  H   H843      1.0  0.69170  0.96402  0.42625  1.0000
  H   H844      1.0  0.63327  0.98368  0.39749  1.0000
  H   H845      1.0  0.69537  0.02855  0.39854  1.0000
  H   H846      1.0  0.47366  0.83498  0.31569  1.0000
  C   C532      1.0  0.43763  0.89915  0.47725  1.0000
  C   C533      1.0  0.64931  0.89591  0.50611  1.0000
  H   H847      1.0  0.46785  0.90726  0.35386  1.0000
  C   C534      1.0  0.62204  0.93786  0.50237  1.0000
  H   H848      1.0  0.66620  0.90659  0.51224  1.0000
  C   C535      1.0  0.55683  0.86637  0.53617  1.0000
  H   H849      1.0  0.60516  0.89264  0.48729  1.0000
  N   N54       1.0  0.62163  0.90886  0.50938  1.0000
  C   C536      1.0  0.44456  0.89898  0.31649  1.0000
  H   H850      1.0  0.63828  0.94980  0.50822  1.0000
  S   S218      1.0  0.39142  0.98312  0.34601  1.0000
  H   H851      1.0  0.62664  0.93934  0.48837  1.0000
  H   H852      1.0  0.43169  0.01217  0.42082  1.0000
  H   H853      1.0  0.41586  0.90429  0.48163  1.0000
  H   H854      1.0  0.70747  0.96677  0.40515  1.0000
  C   C537      1.0  0.60001  0.89383  0.50108  1.0000
  H   H855      1.0  0.44044  0.90755  0.46379  1.0000
  Fe  Fe113     1.0  0.40334  0.88211  0.35259  1.0000
  H   H856      1.0  0.40135  0.85932  0.47213  1.0000
  Fe  Fe114     1.0  0.71717  0.91672  0.37386  1.0000
  C   C538      1.0  0.49071  0.90274  0.35441  1.0000
  C   C539      1.0  0.46775  0.85576  0.31133  1.0000
  H   H857      1.0  0.41528  0.03637  0.34666  1.0000
  H   H858      1.0  0.50683  0.92920  0.53932  1.0000
  H   H859      1.0  0.65481  0.89652  0.49219  1.0000
  N   N55       1.0  0.44302  0.86913  0.47894  1.0000
  C   C540      1.0  0.43868  0.85890  0.49696  1.0000
  H   H860      1.0  0.42708  0.83256  0.46922  1.0000
  C   C541      1.0  0.47224  0.86332  0.47325  1.0000
  H   H861      1.0  0.45307  0.86923  0.50522  1.0000
  H   H862      1.0  0.42659  0.86258  0.45463  1.0000
  H   H863      1.0  0.63072  0.91917  0.53465  1.0000
  H   H864      1.0  0.47693  0.84084  0.47401  1.0000
  H   H865      1.0  0.60142  0.94820  0.50462  1.0000
  H   H866      1.0  0.45217  0.91035  0.48495  1.0000
  C   C542      1.0  0.71098  0.91302  0.31191  1.0000
  N   N56       1.0  0.49833  0.89272  0.37175  1.0000
  C   C543      1.0  0.52877  0.88682  0.37192  1.0000
  C   C544      1.0  0.49109  0.91400  0.38367  1.0000
  C   C545      1.0  0.48279  0.86725  0.37705  1.0000
  H   H867      1.0  0.69068  0.00284  0.38392  1.0000
  H   H868      1.0  0.53514  0.87925  0.38490  1.0000
  H   H869      1.0  0.54124  0.90554  0.36799  1.0000
  H   H870      1.0  0.53493  0.87069  0.36316  1.0000
  H   H871      1.0  0.49789  0.90766  0.39669  1.0000
  H   H872      1.0  0.46806  0.91784  0.38465  1.0000
  H   H873      1.0  0.48659  0.85121  0.36785  1.0000
  H   H874      1.0  0.45974  0.87109  0.37785  1.0000
  H   H875      1.0  0.48913  0.85839  0.38972  1.0000
  H   H876      1.0  0.44280  0.83636  0.49877  1.0000
  C   C546      1.0  0.61507  0.90780  0.52791  1.0000
  H   H877      1.0  0.66179  0.02501  0.38947  1.0000
  H   H878      1.0  0.57058  0.84864  0.53534  1.0000
  H   H879      1.0  0.45243  0.01941  0.40154  1.0000
  H   H880      1.0  0.59793  0.87231  0.50674  1.0000
  H   H881      1.0  0.47648  0.87126  0.45985  1.0000
  H   H882      1.0  0.64478  0.95843  0.41340  1.0000
  C   C547      1.0  0.65796  0.00804  0.42270  1.0000
  C   C548      1.0  0.69697  0.97871  0.41516  1.0000
  H   H883      1.0  0.70778  0.91365  0.32553  1.0000
  H   H884      1.0  0.67684  0.88512  0.30967  1.0000
  H   H885      1.0  0.71279  0.99328  0.41914  1.0000
  H   H886      1.0  0.43298  0.91197  0.32490  1.0000
  C   C549      1.0  0.65215  0.97334  0.40285  1.0000
  H   H887      1.0  0.46926  0.01006  0.42113  1.0000
  C   C550      1.0  0.42364  0.85525  0.46831  1.0000
  C   C551      1.0  0.54438  0.02683  0.44879  1.0000
  H   H888      1.0  0.65141  0.99343  0.43365  1.0000
  C   C552      1.0  0.58962  0.03541  0.46023  1.0000
  C   C553      1.0  0.52087  0.91172  0.53838  1.0000
  C   C554      1.0  0.45141  0.02193  0.41546  1.0000
  H   H889      1.0  0.63883  0.01934  0.41840  1.0000
  H   H890      1.0  0.59404  0.91694  0.53079  1.0000
  H   H891      1.0  0.70185  0.91051  0.41280  1.0000
  C   C555      1.0  0.39972  0.03401  0.35703  1.0000
  H   H892      1.0  0.61479  0.88623  0.53372  1.0000
  S   S219      1.0  0.71823  0.95817  0.35944  1.0000
  C   C556      1.0  0.69339  0.89696  0.30292  1.0000
  H   H893      1.0  0.42180  0.88022  0.76534  1.0000
  H   H894      1.0  0.39720  0.80833  0.66730  1.0000
  H   H895      1.0  0.40740  0.79639  0.68815  1.0000
  Fe  Fe115     1.0  0.41182  0.90549  0.71492  1.0000
  S   S220      1.0  0.45708  0.90033  0.70637  1.0000
  C   C557      1.0  0.60405  0.03212  0.61464  1.0000
  H   H896      1.0  0.39908  0.99754  0.74176  1.0000
  Fe  Fe116     1.0  0.58777  0.88244  0.63003  1.0000
  S   S221      1.0  0.56842  0.92294  0.63599  1.0000
  S   S222      1.0  0.60600  0.85860  0.65256  1.0000
  Fe  Fe117     1.0  0.57221  0.88932  0.59286  1.0000
  S   S223      1.0  0.55169  0.93042  0.59594  1.0000
  S   S224      1.0  0.57726  0.86964  0.56775  1.0000
  Fe  Fe118     1.0  0.58861  0.93881  0.61120  1.0000
  S   S225      1.0  0.61082  0.97913  0.60652  1.0000
  Fe  Fe119     1.0  0.53324  0.91066  0.62044  1.0000
  S   S226      1.0  0.48820  0.91993  0.62779  1.0000
  S   S227      1.0  0.61100  0.89936  0.60631  1.0000
  S   S228      1.0  0.55072  0.86862  0.61631  1.0000
  C   C558      1.0  0.52656  0.01539  0.61404  1.0000
  C   C559      1.0  0.58847  0.99744  0.63641  1.0000
  H   H897      1.0  0.43045  0.02581  0.70394  1.0000
  H   H898      1.0  0.58593  0.97615  0.64088  1.0000
  H   H899      1.0  0.46417  0.84757  0.69001  1.0000
  H   H900      1.0  0.46747  0.97721  0.62052  1.0000
  C   C560      1.0  0.39073  0.01306  0.75038  1.0000
  H   H901      1.0  0.69158  0.86137  0.68426  1.0000
  H   H902      1.0  0.41861  0.87160  0.68628  1.0000
  H   H903      1.0  0.46270  0.86487  0.78206  1.0000
  C   C561      1.0  0.70041  0.86676  0.65723  1.0000
  C   C562      1.0  0.46608  0.90781  0.68470  1.0000
  C   C563      1.0  0.49247  0.89963  0.67830  1.0000
  C   C564      1.0  0.49948  0.90343  0.66084  1.0000
  C   C565      1.0  0.48013  0.91554  0.64972  1.0000
  C   C566      1.0  0.45390  0.92417  0.65613  1.0000
  C   C567      1.0  0.44691  0.92039  0.67360  1.0000
  H   H904      1.0  0.50740  0.88989  0.68683  1.0000
  H   H905      1.0  0.51969  0.89653  0.65600  1.0000
  H   H906      1.0  0.43890  0.93365  0.64757  1.0000
  H   H907      1.0  0.42668  0.92714  0.67845  1.0000
  C   C568      1.0  0.40902  0.85129  0.68497  1.0000
  C   C569      1.0  0.68288  0.86233  0.67180  1.0000
  C   C570      1.0  0.65395  0.85906  0.67024  1.0000
  C   C571      1.0  0.64243  0.86097  0.65415  1.0000
  C   C572      1.0  0.66003  0.86524  0.63960  1.0000
  H   H908      1.0  0.70935  0.95691  0.66945  1.0000
  C   C573      1.0  0.58052  0.01816  0.64714  1.0000
  H   H909      1.0  0.64039  0.85558  0.68151  1.0000
  H   H910      1.0  0.65134  0.86617  0.62716  1.0000
  H   H911      1.0  0.56487  0.85939  0.79588  1.0000
  H   H912      1.0  0.47644  0.00130  0.60278  1.0000
  H   H913      1.0  0.39023  0.85483  0.67718  1.0000
  S   S229      1.0  0.39688  0.93827  0.73168  1.0000
  H   H914      1.0  0.52614  0.99481  0.64671  1.0000
  C   C574      1.0  0.44584  0.87637  0.78793  1.0000
  C   C575      1.0  0.42269  0.88503  0.77846  1.0000
  H   H915      1.0  0.66174  0.98569  0.63610  1.0000
  C   C576      1.0  0.48528  0.98761  0.61316  1.0000
  H   H916      1.0  0.54072  0.99930  0.60892  1.0000
  H   H917      1.0  0.53510  0.91325  0.56383  1.0000
  C   C577      1.0  0.45339  0.82784  0.68841  1.0000
  H   H918      1.0  0.70333  0.98553  0.65438  1.0000
  H   H919      1.0  0.40004  0.98629  0.78090  1.0000
  N   N57       1.0  0.42932  0.83219  0.67732  1.0000
  H   H920      1.0  0.61322  0.03764  0.60208  1.0000
  H   H921      1.0  0.39185  0.96231  0.76574  1.0000
  H   H922      1.0  0.46927  0.81358  0.68305  1.0000
  C   C578      1.0  0.68904  0.86765  0.64114  1.0000
  N   N58       1.0  0.50260  0.00299  0.62422  1.0000
  C   C579      1.0  0.66001  0.93202  0.66622  1.0000
  H   H923      1.0  0.45008  0.86403  0.66133  1.0000
  H   H924      1.0  0.42164  0.84824  0.65177  1.0000
  N   N59       1.0  0.67384  0.95256  0.65402  1.0000
  H   H925      1.0  0.67677  0.92499  0.63397  1.0000
  H   H926      1.0  0.52614  0.96719  0.63287  1.0000
  C   C580      1.0  0.39012  0.00623  0.70624  1.0000
  H   H927      1.0  0.68105  0.98044  0.67328  1.0000
  C   C581      1.0  0.69267  0.96965  0.66315  1.0000
  C   C582      1.0  0.40042  0.89902  0.78618  1.0000
  H   H928      1.0  0.64588  0.91851  0.65974  1.0000
  H   H929      1.0  0.64711  0.94202  0.67615  1.0000
  H   H930      1.0  0.39866  0.98589  0.70457  1.0000
  C   C583      1.0  0.43930  0.84411  0.66039  1.0000
  H   H931      1.0  0.44660  0.81922  0.70137  1.0000
  C   C584      1.0  0.60035  0.00444  0.62017  1.0000
  H   H932      1.0  0.49778  0.97116  0.60715  1.0000
  C   C585      1.0  0.53685  0.90269  0.55229  1.0000
  H   H933      1.0  0.45456  0.83020  0.65415  1.0000
  H   H934      1.0  0.57166  0.01275  0.65978  1.0000
  H   H935      1.0  0.63945  0.98147  0.65503  1.0000
  H   H936      1.0  0.49559  0.97393  0.64585  1.0000
  C   C586      1.0  0.41549  0.80564  0.67558  1.0000
  H   H937      1.0  0.43018  0.79055  0.66995  1.0000
  H   H938      1.0  0.67566  0.91849  0.67284  1.0000
  C   C587      1.0  0.69034  0.93825  0.64100  1.0000
  C   C588      1.0  0.40808  0.02888  0.70582  1.0000
  H   H939      1.0  0.63770  0.95769  0.63877  1.0000
  H   H940      1.0  0.69730  0.88495  0.77933  1.0000
  S   S230      1.0  0.39266  0.87120  0.73195  1.0000
  H   H941      1.0  0.40143  0.84322  0.69789  1.0000
  C   C589      1.0  0.65228  0.97017  0.64566  1.0000
  C   C590      1.0  0.51311  0.98398  0.63804  1.0000
  H   H942      1.0  0.46724  0.01616  0.63946  1.0000
  H   H943      1.0  0.70258  0.87081  0.62984  1.0000
  C   C591      1.0  0.48548  0.02492  0.63168  1.0000
  H   H944      1.0  0.53938  0.02815  0.62180  1.0000
  H   H945      1.0  0.51947  0.02899  0.60308  1.0000
  H   H946      1.0  0.70689  0.92478  0.64684  1.0000
  H   H947      1.0  0.40883  0.02144  0.75667  1.0000
  H   H948      1.0  0.70090  0.95308  0.63148  1.0000
  H   H949      1.0  0.47719  0.03972  0.62164  1.0000
  H   H950      1.0  0.49802  0.03686  0.64012  1.0000
  C   C592      1.0  0.55509  0.88015  0.55117  1.0000
  Fe  Fe120     1.0  0.46732  0.86956  0.84556  1.0000
  S   S231      1.0  0.47534  0.83062  0.86173  1.0000
  S   S232      1.0  0.47417  0.86790  0.81725  1.0000
  Fe  Fe121     1.0  0.45607  0.90294  0.87627  1.0000
  S   S233      1.0  0.46351  0.86678  0.89477  1.0000
  S   S234      1.0  0.44366  0.94533  0.88371  1.0000
  Fe  Fe122     1.0  0.50018  0.85776  0.87718  1.0000
  S   S235      1.0  0.54206  0.84297  0.88668  1.0000
  Fe  Fe123     1.0  0.43796  0.84341  0.87755  1.0000
  S   S236      1.0  0.49462  0.89587  0.85990  1.0000
  S   S237      1.0  0.42786  0.88033  0.86015  1.0000
  H   H951      1.0  0.54701  0.94846  0.91065  1.0000
  Fe  Fe124     1.0  0.69276  0.88456  0.85432  1.0000
  C   C593      1.0  0.44681  0.88186  0.80507  1.0000
  S   S238      1.0  0.64849  0.89697  0.84803  1.0000
  H   H952      1.0  0.53799  0.02474  0.90704  1.0000
  H   H953      1.0  0.42372  0.87930  0.92569  1.0000
  H   H954      1.0  0.43959  0.96331  0.04642  1.0000
  H   H955      1.0  0.53015  0.85105  0.80431  1.0000
  H   H956      1.0  0.57576  0.80416  0.83046  1.0000
  S   S239      1.0  0.70885  0.86623  0.87906  1.0000
  C   C594      1.0  0.42511  0.89698  0.81252  1.0000
  H   H957      1.0  0.59903  0.84716  0.83729  1.0000
  H   H958      1.0  0.58756  0.87967  0.82777  1.0000
  H   H959      1.0  0.66617  0.96961  0.01462  1.0000
  Fe  Fe125     1.0  0.44742  0.01410  0.96379  1.0000
  S   S240      1.0  0.43597  0.96994  0.96127  1.0000
  H   H960      1.0  0.54640  0.80599  0.81694  1.0000
  H   H961      1.0  0.52210  0.83914  0.83504  1.0000
  C   C595      1.0  0.53680  0.00272  0.90419  1.0000
  H   H962      1.0  0.41715  0.00053  0.93111  1.0000
  H   H963      1.0  0.43344  0.99967  0.04418  1.0000
  H   H964      1.0  0.51120  0.95378  0.90494  1.0000
  C   C596      1.0  0.44236  0.98108  0.01325  1.0000
  H   H965      1.0  0.51894  0.94250  0.92638  1.0000
  H   H966      1.0  0.66010  0.98069  0.99280  1.0000
  H   H967      1.0  0.43777  0.97943  0.99964  1.0000
  H   H968      1.0  0.55105  0.83608  0.84887  1.0000
  S   S241      1.0  0.40148  0.81806  0.88873  1.0000
  H   H969      1.0  0.41055  0.84830  0.91817  1.0000
  C   C597      1.0  0.39618  0.99936  0.01970  1.0000
  H   H970      1.0  0.42605  0.79358  0.85919  1.0000
  H   H971      1.0  0.55794  0.99637  0.89932  1.0000
  C   C598      1.0  0.40546  0.78502  0.86195  1.0000
  C   C599      1.0  0.52617  0.95622  0.91517  1.0000
  H   H972      1.0  0.71568  0.01222  0.90785  1.0000
  H   H973      1.0  0.40670  0.90488  0.89997  1.0000
  C   C600      1.0  0.58977  0.85737  0.82570  1.0000
  H   H974      1.0  0.40478  0.02020  0.02099  1.0000
  H   H975      1.0  0.69673  0.92690  0.89506  1.0000
  H   H976      1.0  0.45710  0.92293  0.94461  1.0000
  C   C601      1.0  0.70354  0.93822  0.90541  1.0000
  C   C602      1.0  0.54307  0.84751  0.83728  1.0000
  H   H977      1.0  0.66185  0.95197  0.91257  1.0000
  C   C603      1.0  0.68384  0.95245  0.91532  1.0000
  H   H978      1.0  0.48380  0.99270  0.91553  1.0000
  S   S242      1.0  0.49160  0.02099  0.97058  1.0000
  N   N60       1.0  0.56253  0.84520  0.82238  1.0000
  Fe  Fe126     1.0  0.68430  0.02580  0.94975  1.0000
  C   C604      1.0  0.39500  0.76584  0.85147  1.0000
  H   H979      1.0  0.42606  0.90193  0.82558  1.0000
  C   C605      1.0  0.57235  0.85963  0.87772  1.0000
  C   C606      1.0  0.57048  0.88528  0.86865  1.0000
  C   C607      1.0  0.59432  0.89707  0.86022  1.0000
  C   C608      1.0  0.62032  0.88348  0.86096  1.0000
  C   C609      1.0  0.62258  0.85839  0.87065  1.0000
  C   C610      1.0  0.59857  0.84646  0.87900  1.0000
  H   H980      1.0  0.55068  0.89603  0.86805  1.0000
  H   H981      1.0  0.59255  0.91662  0.85285  1.0000
  H   H982      1.0  0.64259  0.84776  0.87127  1.0000
  H   H983      1.0  0.60022  0.82669  0.88612  1.0000
  C   C611      1.0  0.44113  0.95133  0.90539  1.0000
  C   C612      1.0  0.45137  0.93225  0.91780  1.0000
  C   C613      1.0  0.44891  0.93760  0.93505  1.0000
  C   C614      1.0  0.43684  0.96237  0.93987  1.0000
  C   C615      1.0  0.42671  0.98146  0.92747  1.0000
  C   C616      1.0  0.42869  0.97587  0.91028  1.0000
  H   H984      1.0  0.46163  0.91362  0.91412  1.0000
  H   H985      1.0  0.68433  0.99877  0.00456  1.0000
  H   H986      1.0  0.67237  0.93410  0.98390  1.0000
  H   H987      1.0  0.42075  0.99072  0.90073  1.0000
  H   H988      1.0  0.45866  0.96535  0.01664  1.0000
  N   N61       1.0  0.52752  0.98522  0.91946  1.0000
  S   S243      1.0  0.42826  0.03964  0.98390  1.0000
  H   H989      1.0  0.49946  0.01622  0.92855  1.0000
  H   H990      1.0  0.54107  0.97487  0.94480  1.0000
  H   H991      1.0  0.41252  0.83257  0.80905  1.0000
  C   C617      1.0  0.69260  0.96787  0.92839  1.0000
  C   C618      1.0  0.71478  0.03810  0.02133  1.0000
  H   H992      1.0  0.56904  0.98096  0.92900  1.0000
  H   H993      1.0  0.54892  0.00935  0.93653  1.0000
  C   C619      1.0  0.54753  0.98765  0.93303  1.0000
  H   H994      1.0  0.39711  0.85071  0.82618  1.0000
  H   H995      1.0  0.52202  0.00153  0.89374  1.0000
  H   H996      1.0  0.49192  0.98195  0.93709  1.0000
  S   S244      1.0  0.66792  0.98723  0.93980  1.0000
  C   C620      1.0  0.49944  0.99438  0.92542  1.0000
  C   C621      1.0  0.40484  0.86616  0.92572  1.0000
  H   H997      1.0  0.60530  0.85551  0.81492  1.0000
  H   H998      1.0  0.69712  0.97511  0.97061  1.0000
  H   H999      1.0  0.70606  0.03718  0.89129  1.0000
  C   C622      1.0  0.40183  0.90533  0.80314  1.0000
  H   H1000     1.0  0.40021  0.85790  0.93905  1.0000
  C   C623      1.0  0.56665  0.81584  0.81929  1.0000
  H   H1001     1.0  0.70503  0.91820  0.98967  1.0000
  C   C624      1.0  0.67647  0.97795  0.00243  1.0000
  H   H1002     1.0  0.45184  0.00160  0.01422  1.0000
  C   C625      1.0  0.55052  0.86005  0.80733  1.0000
  H   H1003     1.0  0.58108  0.81327  0.80806  1.0000
  S   S245      1.0  0.66947  0.03913  0.97521  1.0000
  H   H1004     1.0  0.39905  0.94824  0.00902  1.0000
  C   C626      1.0  0.42407  0.97942  0.04232  1.0000
  H   H1005     1.0  0.54624  0.88208  0.80952  1.0000
  C   C627      1.0  0.71267  0.97192  0.98069  1.0000
  C   C628      1.0  0.40461  0.95030  0.02243  1.0000
  C   C629      1.0  0.38934  0.79294  0.87598  1.0000
  N   N62       1.0  0.41681  0.97753  0.02443  1.0000
  H   H1006     1.0  0.40619  0.81508  0.82961  1.0000
  H   H1007     1.0  0.41964  0.93336  0.02593  1.0000
  H   H1008     1.0  0.40762  0.75976  0.84064  1.0000
  H   H1009     1.0  0.67783  0.92273  0.00574  1.0000
  H   H1010     1.0  0.53994  0.86934  0.84019  1.0000
  H   H1011     1.0  0.39018  0.99860  0.00627  1.0000
  H   H1012     1.0  0.39218  0.91984  0.92850  1.0000
  C   C630      1.0  0.47794  0.03722  0.04895  1.0000
  H   H1013     1.0  0.49851  0.02793  0.04999  1.0000
  H   H1014     1.0  0.39196  0.87456  0.89269  1.0000
  C   C631      1.0  0.38770  0.89187  0.90088  1.0000
  H   H1015     1.0  0.71148  0.94793  0.02226  1.0000
  C   C632      1.0  0.68818  0.93247  0.99393  1.0000
  N   N63       1.0  0.69950  0.95977  0.99675  1.0000
  C   C633      1.0  0.39747  0.83071  0.82024  1.0000
  S   S246      1.0  0.71897  0.85705  0.83821  1.0000
  H   H1016     1.0  0.73639  0.12454  0.09701  1.0000
  H   H1017     1.0  0.96002  0.34673  0.13527  1.0000
  H   H1018     1.0  0.93857  0.36567  0.20917  1.0000
  C   C634      1.0  0.77218  0.32470  0.22833  1.0000
  H   H1019     1.0  0.73743  0.05691  0.19619  1.0000
  H   H1020     1.0  0.93359  0.33422  0.10184  1.0000
  H   H1021     1.0  0.74536  0.08924  0.09473  1.0000
  C   C635      1.0  0.73454  0.08904  0.06154  1.0000
  H   H1022     1.0  0.75453  0.11711  0.19624  1.0000
  H   H1023     1.0  0.73362  0.10292  0.18064  1.0000
  H   H1024     1.0  0.76513  0.11581  0.08284  1.0000
  H   H1025     1.0  0.91531  0.33649  0.12211  1.0000
  C   C636      1.0  0.74970  0.28585  0.20806  1.0000
  C   C637      1.0  0.74907  0.28103  0.22574  1.0000
  C   C638      1.0  0.75994  0.30052  0.23584  1.0000
  S   S247      1.0  0.78354  0.34950  0.24155  1.0000
  C   C639      1.0  0.77376  0.32917  0.21060  1.0000
  C   C640      1.0  0.76239  0.30982  0.20050  1.0000
  H   H1026     1.0  0.78316  0.34780  0.20471  1.0000
  H   H1027     1.0  0.97826  0.34400  0.11499  1.0000
  H   H1028     1.0  0.72560  0.07494  0.29018  1.0000
  H   H1029     1.0  0.76312  0.31362  0.18681  1.0000
  H   H1030     1.0  0.74036  0.26223  0.23167  1.0000
  H   H1031     1.0  0.95008  0.34032  0.17543  1.0000
  C   C641      1.0  0.73063  0.15815  0.28763  1.0000
  S   S248      1.0  0.73366  0.26292  0.19524  1.0000
  H   H1032     1.0  0.75794  0.07123  0.21187  1.0000
  H   H1033     1.0  0.90417  0.35732  0.10386  1.0000
  C   C642      1.0  0.92292  0.34870  0.11036  1.0000
  C   C643      1.0  0.94351  0.36158  0.17314  1.0000
  H   H1034     1.0  0.75898  0.29682  0.24954  1.0000
  H   H1035     1.0  0.75071  0.14848  0.28502  1.0000
  H   H1036     1.0  0.73637  0.06802  0.06800  1.0000
  C   C644      1.0  0.96641  0.35834  0.12306  1.0000
  S   S249      1.0  0.72571  0.09471  0.13092  1.0000
  N   N64       1.0  0.94199  0.37075  0.11437  1.0000
  C   C645      1.0  0.91551  0.36917  0.17659  1.0000
  S   S250      1.0  0.99770  0.37157  0.16233  1.0000
  C   C646      1.0  0.74366  0.10976  0.08759  1.0000
  H   H1037     1.0  0.73163  0.14612  0.14636  1.0000
  H   H1038     1.0  0.89203  0.31398  0.29836  1.0000
  H   H1039     1.0  0.97456  0.34972  0.22935  1.0000
  H   H1040     1.0  0.72668  0.05238  0.21831  1.0000
  H   H1041     1.0  0.74327  0.14368  0.05916  1.0000
  H   H1042     1.0  0.75558  0.09466  0.05582  1.0000
  H   H1043     1.0  0.90044  0.35381  0.18145  1.0000
  C   C647      1.0  0.73612  0.06724  0.20834  1.0000
  N   N65       1.0  0.72419  0.10913  0.07356  1.0000
  H   H1044     1.0  0.73952  0.11203  0.22670  1.0000
  C   C648      1.0  0.73275  0.11195  0.19322  1.0000
  S   S251      1.0  0.85954  0.36886  0.22362  1.0000
  H   H1045     1.0  0.77317  0.08324  0.29868  1.0000
  H   H1046     1.0  0.96383  0.37312  0.08983  1.0000
  H   H1047     1.0  0.72008  0.08765  0.05094  1.0000
  S   S252      1.0  0.72163  0.15426  0.25385  1.0000
  C   C649      1.0  0.72240  0.13677  0.06458  1.0000
  H   H1048     1.0  0.95903  0.37103  0.24485  1.0000
  H   H1049     1.0  0.98875  0.37024  0.20047  1.0000
  C   C650      1.0  0.97456  0.37080  0.23392  1.0000
  N   N66       1.0  0.71949  0.09303  0.20663  1.0000
  H   H1050     1.0  0.72083  0.13165  0.19173  1.0000
  Fe  Fe127     1.0  0.76942  0.21157  0.36275  1.0000
  H   H1051     1.0  0.78368  0.26987  0.42920  1.0000
  S   S253      1.0  0.78560  0.25440  0.36542  1.0000
  Fe  Fe128     1.0  0.77395  0.15086  0.35615  1.0000
  H   H1052     1.0  0.80748  0.05653  0.34292  1.0000
  S   S254      1.0  0.79873  0.11398  0.34831  1.0000
  H   H1053     1.0  0.84851  0.35593  0.32707  1.0000
  C   C651      1.0  0.87531  0.29077  0.32885  1.0000
  H   H1054     1.0  0.76550  0.18997  0.41379  1.0000
  S   S255      1.0  0.76784  0.18919  0.33888  1.0000
  S   S256      1.0  0.78023  0.17375  0.37933  1.0000
  Fe  Fe129     1.0  0.92736  0.32495  0.37127  1.0000
  C   C652      1.0  0.75511  0.24405  0.40674  1.0000
  S   S257      1.0  0.91368  0.28048  0.37355  1.0000
  N   N67       1.0  0.77558  0.23154  0.41859  1.0000
  S   S258      1.0  0.01915  0.36603  0.34416  1.0000
  N   N68       1.0  0.86395  0.31629  0.32030  1.0000
  H   H1055     1.0  0.78125  0.19332  0.43369  1.0000
  C   C653      1.0  0.77713  0.24844  0.43331  1.0000
  S   S259      1.0  0.96691  0.33846  0.38251  1.0000
  S   S260      1.0  0.93906  0.34412  0.34524  1.0000
  C   C654      1.0  0.76039  0.06140  0.38384  1.0000
  Fe  Fe130     1.0  0.97634  0.36103  0.35725  1.0000
  H   H1056     1.0  0.87725  0.34744  0.30105  1.0000
  H   H1057     1.0  0.81101  0.25128  0.40521  1.0000
  H   H1058     1.0  0.75645  0.24966  0.44031  1.0000
  C   C655      1.0  0.82118  0.26082  0.36824  1.0000
  C   C656      1.0  0.82925  0.28778  0.37068  1.0000
  C   C657      1.0  0.85752  0.29393  0.37263  1.0000
  C   C658      1.0  0.87788  0.27309  0.37227  1.0000
  C   C659      1.0  0.86971  0.24599  0.37021  1.0000
  C   C660      1.0  0.84142  0.23984  0.36813  1.0000
  H   H1059     1.0  0.81361  0.30404  0.37093  1.0000
  H   H1060     1.0  0.86357  0.31482  0.37434  1.0000
  H   H1061     1.0  0.88542  0.22978  0.36991  1.0000
  H   H1062     1.0  0.83537  0.21898  0.36628  1.0000
  C   C661      1.0  0.78778  0.08379  0.36025  1.0000
  C   C662      1.0  0.77100  0.08542  0.37510  1.0000
  H   H1063     1.0  0.76276  0.11389  0.30880  1.0000
  H   H1064     1.0  0.76639  0.10519  0.38001  1.0000
  C   C663      1.0  0.76655  0.20339  0.42454  1.0000
  C   C664      1.0  0.85640  0.33610  0.33310  1.0000
  H   H1065     1.0  0.87478  0.34103  0.34051  1.0000
  H   H1066     1.0  0.78019  0.08651  0.32054  1.0000
  H   H1067     1.0  0.74014  0.08798  0.34198  1.0000
  H   H1068     1.0  0.72243  0.11367  0.32890  1.0000
  C   C665      1.0  0.04644  0.33745  0.37022  1.0000
  C   C666      1.0  0.88536  0.32852  0.30802  1.0000
  Fe  Fe131     1.0  0.72236  0.18324  0.34625  1.0000
  H   H1069     1.0  0.76166  0.26498  0.40152  1.0000
  H   H1070     1.0  0.85927  0.28037  0.33765  1.0000
  H   H1071     1.0  0.79258  0.23970  0.44245  1.0000
  H   H1072     1.0  0.75313  0.23150  0.39567  1.0000
  H   H1073     1.0  0.83982  0.32785  0.34234  1.0000
  C   C667      1.0  0.80347  0.23034  0.40976  1.0000
  H   H1074     1.0  0.80294  0.21830  0.39834  1.0000
  H   H1075     1.0  0.02623  0.32938  0.37458  1.0000
  Fe  Fe132     1.0  0.73375  0.16962  0.38364  1.0000
  C   C668      1.0  0.79423  0.05793  0.35429  1.0000
  H   H1076     1.0  0.89364  0.29504  0.33651  1.0000
  H   H1077     1.0  0.74758  0.06286  0.39539  1.0000
  H   H1078     1.0  0.81947  0.22060  0.41816  1.0000
  H   H1079     1.0  0.90439  0.33438  0.31452  1.0000
  H   H1080     1.0  0.74525  0.20340  0.43089  1.0000
  H   H1081     1.0  0.88227  0.27573  0.31957  1.0000
  H   H1082     1.0  0.82213  0.30047  0.32015  1.0000
  C   C669      1.0  0.04879  0.35526  0.35550  1.0000
  N   N69       1.0  0.73709  0.07854  0.31596  1.0000
  C   C670      1.0  0.74088  0.04855  0.31974  1.0000
  C   C671      1.0  0.76445  0.09106  0.31071  1.0000
  S   S261      1.0  0.72825  0.14366  0.36184  1.0000
  H   H1083     1.0  0.73389  0.24581  0.41300  1.0000
  S   S262      1.0  0.90194  0.36101  0.37964  1.0000
  H   H1084     1.0  0.73736  0.16083  0.31429  1.0000
  C   C672      1.0  0.83871  0.30979  0.31122  1.0000
  H   H1085     1.0  0.82956  0.32863  0.30464  1.0000
  H   H1086     1.0  0.75534  0.04404  0.33030  1.0000
  H   H1087     1.0  0.84360  0.29491  0.30144  1.0000
  S   S263      1.0  0.72296  0.20874  0.36870  1.0000
  C   C673      1.0  0.72564  0.09105  0.33133  1.0000
  C   C674      1.0  0.72314  0.16527  0.30416  1.0000
  H   H1088     1.0  0.77304  0.10476  0.67795  1.0000
  S   S264      1.0  0.77807  0.14851  0.70210  1.0000
  Fe  Fe133     1.0  0.74677  0.15333  0.72370  1.0000
  Fe  Fe134     1.0  0.79146  0.16301  0.74879  1.0000
  S   S265      1.0  0.82669  0.15812  0.72960  1.0000
  Fe  Fe135     1.0  0.91814  0.33964  0.75368  1.0000
  Fe  Fe136     1.0  0.79984  0.18430  0.71213  1.0000
  S   S266      1.0  0.81558  0.22212  0.69666  1.0000
  Fe  Fe137     1.0  0.80190  0.12272  0.72147  1.0000
  S   S267      1.0  0.82177  0.08175  0.71647  1.0000
  S   S268      1.0  0.76597  0.19155  0.73198  1.0000
  H   H1089     1.0  0.03250  0.30550  0.73169  1.0000
  Fe  Fe138     1.0  0.93917  0.30326  0.72632  1.0000
  Fe  Fe139     1.0  0.93128  0.36454  0.71747  1.0000
  S   S269      1.0  0.93449  0.26037  0.71791  1.0000
  H   H1090     1.0  0.87830  0.31879  0.67809  1.0000
  H   H1091     1.0  0.84958  0.23705  0.73617  1.0000
  H   H1092     1.0  0.93257  0.36850  0.66117  1.0000
  S   S270      1.0  0.88594  0.33901  0.77539  1.0000
  H   H1093     1.0  0.94292  0.34248  0.78639  1.0000
  S   S271      1.0  0.95346  0.30907  0.75255  1.0000
  S   S272      1.0  0.96754  0.33564  0.71333  1.0000
  H   H1094     1.0  0.74860  0.25870  0.77261  1.0000
  Fe  Fe140     1.0  0.97827  0.34434  0.73983  1.0000
  H   H1095     1.0  0.93070  0.31567  0.64214  1.0000
  C   C675      1.0  0.84908  0.23266  0.70170  1.0000
  C   C676      1.0  0.86992  0.21332  0.70611  1.0000
  C   C677      1.0  0.89628  0.22211  0.71064  1.0000
  C   C678      1.0  0.90169  0.25021  0.71127  1.0000
  C   C679      1.0  0.88088  0.26956  0.70680  1.0000
  C   C680      1.0  0.85479  0.26082  0.70177  1.0000
  H   H1096     1.0  0.86588  0.19158  0.70577  1.0000
  H   H1097     1.0  0.91239  0.20703  0.71388  1.0000
  H   H1098     1.0  0.88488  0.29122  0.70709  1.0000
  H   H1099     1.0  0.83872  0.27583  0.69836  1.0000
  H   H1100     1.0  0.89008  0.27232  0.76721  1.0000
  C   C681      1.0  0.77201  0.22049  0.77384  1.0000
  H   H1101     1.0  0.90302  0.22235  0.76847  1.0000
  S   S273      1.0  0.90216  0.33136  0.72840  1.0000
  C   C682      1.0  0.74704  0.23905  0.79800  1.0000
  C   C683      1.0  0.75548  0.24126  0.78074  1.0000
  H   H1102     1.0  0.77814  0.22216  0.76049  1.0000
  C   C684      1.0  0.89487  0.33473  0.67757  1.0000
  H   H1103     1.0  0.73496  0.16984  0.77145  1.0000
  H   H1104     1.0  0.77662  0.09631  0.65623  1.0000
  C   C685      1.0  0.79937  0.05546  0.71141  1.0000
  C   C686      1.0  0.72115  0.09335  0.65118  1.0000
  N   N70       1.0  0.86296  0.23942  0.76158  1.0000
  H   H1105     1.0  0.85659  0.28346  0.75970  1.0000
  C   C687      1.0  0.88632  0.21961  0.75936  1.0000
  C   C688      1.0  0.84112  0.23453  0.74949  1.0000
  C   C689      1.0  0.85081  0.23559  0.77912  1.0000
  H   H1106     1.0  0.82321  0.24919  0.75065  1.0000
  H   H1107     1.0  0.79876  0.32549  0.79910  1.0000
  H   H1108     1.0  0.72623  0.11628  0.69055  1.0000
  H   H1109     1.0  0.83273  0.24981  0.78111  1.0000
  C   C690      1.0  0.78052  0.19770  0.78425  1.0000
  S   S274      1.0  0.80005  0.17083  0.77580  1.0000
  H   H1110     1.0  0.72251  0.18466  0.69524  1.0000
  C   C691      1.0  0.94105  0.34866  0.66688  1.0000
  H   H1111     1.0  0.88307  0.27123  0.74517  1.0000
  S   S275      1.0  0.02090  0.35708  0.74747  1.0000
  N   N71       1.0  0.92004  0.32652  0.66753  1.0000
  H   H1112     1.0  0.87896  0.19794  0.76131  1.0000
  H   H1113     1.0  0.84298  0.21420  0.78200  1.0000
  H   H1114     1.0  0.76038  0.07252  0.67204  1.0000
  C   C692      1.0  0.89960  0.34436  0.79514  1.0000
  H   H1115     1.0  0.89632  0.22231  0.74635  1.0000
  H   H1116     1.0  0.91682  0.28359  0.67615  1.0000
  C   C693      1.0  0.73843  0.13697  0.65863  1.0000
  H   H1117     1.0  0.89633  0.30529  0.65011  1.0000
  C   C694      1.0  0.87358  0.26782  0.75829  1.0000
  H   H1118     1.0  0.86658  0.23943  0.78863  1.0000
  S   S276      1.0  0.76917  0.12511  0.74244  1.0000
  C   C695      1.0  0.76238  0.09475  0.66779  1.0000
  C   C696      1.0  0.92853  0.34564  0.79706  1.0000
  H   H1119     1.0  0.76205  0.08073  0.71126  1.0000
  H   H1120     1.0  0.90000  0.33793  0.69088  1.0000
  H   H1121     1.0  0.88580  0.35453  0.67222  1.0000
  H   H1122     1.0  0.83269  0.21326  0.75158  1.0000
  H   H1123     1.0  0.95132  0.29421  0.66857  1.0000
  C   C697      1.0  0.91218  0.32188  0.65008  1.0000
  C   C698      1.0  0.93199  0.30085  0.67558  1.0000
  C   C699      1.0  0.77077  0.06051  0.70938  1.0000
  H   H1124     1.0  0.96034  0.34336  0.65936  1.0000
  H   H1125     1.0  0.94746  0.35271  0.67982  1.0000
  H   H1126     1.0  0.93769  0.30345  0.68888  1.0000
  H   H1127     1.0  0.90305  0.34088  0.64368  1.0000
  H   H1128     1.0  0.74747  0.14878  0.66860  1.0000
  H   H1129     1.0  0.75260  0.13951  0.64707  1.0000
  H   H1130     1.0  0.73400  0.09466  0.63904  1.0000
  N   N72       1.0  0.73474  0.10764  0.66447  1.0000
  H   H1131     1.0  0.71931  0.21401  0.75763  1.0000
  H   H1132     1.0  0.73142  0.04335  0.70313  1.0000
  C   C700      1.0  0.05111  0.34362  0.73736  1.0000
  C   C701      1.0  0.05155  0.31736  0.73125  1.0000
  H   H1133     1.0  0.74946  0.21451  0.82173  1.0000
  H   H1134     1.0  0.77836  0.05406  0.87579  1.0000
  C   C702      1.0  0.80279  0.35017  0.87859  1.0000
  H   H1135     1.0  0.72158  0.04793  0.91004  1.0000
  S   S277      1.0  0.72399  0.26384  0.80587  1.0000
  Fe  Fe141     1.0  0.72016  0.07637  0.94164  1.0000
  C   C703      1.0  0.72272  0.16110  0.88800  1.0000
  C   C704      1.0  0.77298  0.19603  0.80161  1.0000
  S   S278      1.0  0.93310  0.36743  0.84534  1.0000
  H   H1136     1.0  0.76057  0.34787  0.81575  1.0000
  H   H1137     1.0  0.75710  0.07311  0.89017  1.0000
  C   C705      1.0  0.74783  0.33660  0.87151  1.0000
  C   C706      1.0  0.89142  0.35461  0.82460  1.0000
  H   H1138     1.0  0.80098  0.27523  0.83711  1.0000
  H   H1139     1.0  0.96124  0.35286  0.81417  1.0000
  N   N73       1.0  0.78520  0.31288  0.82479  1.0000
  H   H1140     1.0  0.82401  0.35526  0.88132  1.0000
  C   C707      1.0  0.92031  0.35634  0.82650  1.0000
  H   H1141     1.0  0.98631  0.33860  0.89573  1.0000
  H   H1142     1.0  0.72651  0.33166  0.86894  1.0000
  C   C708      1.0  0.88110  0.34857  0.80896  1.0000
  S   S279      1.0  0.74759  0.09932  0.92156  1.0000
  C   C709      1.0  0.80607  0.32996  0.83231  1.0000
  H   H1143     1.0  0.74201  0.31584  0.81808  1.0000
  H   H1144     1.0  0.79927  0.33455  0.84544  1.0000
  H   H1145     1.0  0.75796  0.15249  0.90389  1.0000
  C   C710      1.0  0.76508  0.31663  0.87946  1.0000
  C   C711      1.0  0.79250  0.32356  0.88314  1.0000
  H   H1146     1.0  0.74171  0.05978  0.87222  1.0000
  S   S280      1.0  0.75321  0.28271  0.88441  1.0000
  C   C712      1.0  0.93889  0.35140  0.81279  1.0000
  C   C713      1.0  0.79532  0.30640  0.80756  1.0000
  H   H1147     1.0  0.80589  0.30822  0.88938  1.0000
  S   S281      1.0  0.73006  0.23195  0.85371  1.0000
  H   H1148     1.0  0.74994  0.33319  0.83648  1.0000
  H   H1149     1.0  0.82682  0.31938  0.83309  1.0000
  H   H1150     1.0  0.80911  0.35009  0.82486  1.0000
  C   C714      1.0  0.75799  0.36324  0.86712  1.0000
  C   C715      1.0  0.73847  0.14481  0.89967  1.0000
  H   H1151     1.0  0.98120  0.34584  0.87340  1.0000
  H   H1152     1.0  0.87701  0.35797  0.83521  1.0000
  H   H1153     1.0  0.77960  0.17845  0.80972  1.0000
  C   C716      1.0  0.75720  0.05518  0.88220  1.0000
  C   C717      1.0  0.75828  0.32813  0.82369  1.0000
  H   H1154     1.0  0.73007  0.18126  0.88324  1.0000
  H   H1155     1.0  0.93997  0.37316  0.88073  1.0000
  H   H1156     1.0  0.77274  0.29113  0.84857  1.0000
  C   C718      1.0  0.78105  0.28703  0.83560  1.0000
  C   C719      1.0  0.72865  0.11899  0.90623  1.0000
  H   H1157     1.0  0.85874  0.34770  0.80747  1.0000
  C   C720      1.0  0.78553  0.37007  0.87052  1.0000
  H   H1158     1.0  0.81551  0.29477  0.80794  1.0000
  H   H1159     1.0  0.76577  0.27343  0.83017  1.0000
  C   C721      1.0  0.75599  0.21652  0.80845  1.0000
  C   C722      1.0  0.99142  0.35336  0.88460  1.0000
  H   H1160     1.0  0.01450  0.35252  0.88203  1.0000
  H   H1161     1.0  0.77987  0.29365  0.80154  1.0000
  H   H1162     1.0  0.94525  0.36865  0.90312  1.0000
  H   H1163     1.0  0.77148  0.04198  0.91423  1.0000
  C   C723      1.0  0.03099  0.42205  0.06322  1.0000
  C   C724      1.0  0.03965  0.68947  0.05259  1.0000
  S   S282      1.0  0.99854  0.43095  0.12608  1.0000
  S   S283      1.0  0.87183  0.40602  0.17678  1.0000
  H   H1164     1.0  0.99252  0.67154  0.08492  1.0000
  Fe  Fe142     1.0  0.87857  0.62334  0.20176  1.0000
  S   S284      1.0  0.91394  0.63180  0.21833  1.0000
  S   S285      1.0  0.87881  0.58184  0.19089  1.0000
  C   C725      1.0  0.89563  0.50969  0.27186  1.0000
  Fe  Fe143     1.0  0.91977  0.67024  0.20119  1.0000
  C   C726      1.0  0.87022  0.47559  0.29006  1.0000
  Fe  Fe144     1.0  0.88177  0.65629  0.23245  1.0000
  Fe  Fe145     1.0  0.85766  0.68323  0.20045  1.0000
  S   S286      1.0  0.88689  0.66003  0.18349  1.0000
  S   S287      1.0  0.84552  0.64529  0.21703  1.0000
  Fe  Fe146     1.0  0.87216  0.40009  0.24137  1.0000
  S   S288      1.0  0.82833  0.40974  0.25017  1.0000
  H   H1165     1.0  0.89272  0.45842  0.26094  1.0000
  Fe  Fe147     1.0  0.85674  0.40485  0.20422  1.0000
  S   S289      1.0  0.81150  0.41501  0.21042  1.0000
  C   C727      1.0  0.92691  0.38949  0.12561  1.0000
  Fe  Fe148     1.0  0.82932  0.44257  0.22875  1.0000
  S   S290      1.0  0.81552  0.48543  0.23465  1.0000
  H   H1166     1.0  0.01906  0.63101  0.07581  1.0000
  H   H1167     1.0  0.93584  0.66737  0.16261  1.0000
  S   S291      1.0  0.87422  0.43479  0.22113  1.0000
  H   H1168     1.0  0.84556  0.52013  0.25892  1.0000
  N   N74       1.0  0.01932  0.67113  0.06230  1.0000
  C   C728      1.0  0.92352  0.39234  0.29188  1.0000
  C   C729      1.0  0.04025  0.55373  0.14042  1.0000
  C   C730      1.0  0.86084  0.55534  0.20306  1.0000
  C   C731      1.0  0.86377  0.52817  0.19843  1.0000
  C   C732      1.0  0.84976  0.50664  0.20799  1.0000
  C   C733      1.0  0.83248  0.51222  0.22210  1.0000
  C   C734      1.0  0.82920  0.53945  0.22656  1.0000
  C   C735      1.0  0.84361  0.56094  0.21719  1.0000
  H   H1169     1.0  0.87678  0.52374  0.18739  1.0000
  H   H1170     1.0  0.85190  0.48583  0.20419  1.0000
  H   H1171     1.0  0.81547  0.54399  0.23728  1.0000
  H   H1172     1.0  0.84105  0.58186  0.22075  1.0000
  H   H1173     1.0  0.98859  0.42440  0.23137  1.0000
  C   C736      1.0  0.90264  0.66761  0.28911  1.0000
  C   C737      1.0  0.84521  0.50773  0.27134  1.0000
  C   C738      1.0  0.99800  0.66596  0.13981  1.0000
  C   C739      1.0  0.97553  0.67831  0.17198  1.0000
  Fe  Fe149     1.0  0.81535  0.38098  0.23111  1.0000
  H   H1174     1.0  0.89686  0.52172  0.25927  1.0000
  H   H1175     1.0  0.82058  0.70625  0.29289  1.0000
  H   H1176     1.0  0.90829  0.39921  0.11952  1.0000
  C   C740      1.0  0.92634  0.41637  0.16702  1.0000
  C   C741      1.0  0.95436  0.40883  0.16374  1.0000
  H   H1177     1.0  0.94427  0.38697  0.28704  1.0000
  H   H1178     1.0  0.91966  0.43757  0.16459  1.0000
  H   H1179     1.0  0.96934  0.42434  0.15909  1.0000
  C   C742      1.0  0.87372  0.47180  0.25975  1.0000
  C   C743      1.0  0.96919  0.66340  0.14372  1.0000
  C   C744      1.0  0.95801  0.66935  0.15980  1.0000
  C   C745      1.0  0.90176  0.39718  0.28065  1.0000
  H   H1180     1.0  0.95551  0.65676  0.13428  1.0000
  H   H1181     1.0  0.92313  0.38690  0.22461  1.0000
  S   S292      1.0  0.90855  0.39441  0.25874  1.0000
  H   H1182     1.0  0.99705  0.70458  0.07339  1.0000
  H   H1183     1.0  0.91937  0.37841  0.13778  1.0000
  H   H1184     1.0  0.88665  0.65558  0.29627  1.0000
  Fe  Fe150     1.0  0.03229  0.41926  0.10729  1.0000
  H   H1185     1.0  0.03759  0.67765  0.14896  1.0000
  H   H1186     1.0  0.01786  0.68858  0.17725  1.0000
  S   S293      1.0  0.01369  0.50487  0.13841  1.0000
  Fe  Fe151     1.0  0.02875  0.46248  0.13313  1.0000
  H   H1187     1.0  0.93342  0.40195  0.20398  1.0000
  S   S294      1.0  0.87697  0.65311  0.26098  1.0000
  H   H1188     1.0  0.89434  0.52475  0.28181  1.0000
  C   C746      1.0  0.03352  0.64520  0.06811  1.0000
  C   C747      1.0  0.03902  0.44956  0.06308  1.0000
  H   H1189     1.0  0.87465  0.48288  0.24687  1.0000
  C   C748      1.0  0.95167  0.38639  0.09846  1.0000
  C   C749      1.0  0.87509  0.40418  0.28706  1.0000
  H   H1190     1.0  0.96217  0.43571  0.21676  1.0000
  H   H1191     1.0  0.93383  0.39568  0.09137  1.0000
  N   N75       1.0  0.95651  0.57767  0.16387  1.0000
  C   C750      1.0  0.98027  0.56080  0.17031  1.0000
  C   C751      1.0  0.96427  0.59051  0.14678  1.0000
  C   C752      1.0  0.94962  0.59940  0.17555  1.0000
  C   C753      1.0  0.93187  0.55990  0.16283  1.0000
  H   H1192     1.0  0.99946  0.57340  0.17087  1.0000
  H   H1193     1.0  0.98560  0.54382  0.16196  1.0000
  H   H1194     1.0  0.97532  0.55119  0.18330  1.0000
  H   H1195     1.0  0.96936  0.57467  0.13761  1.0000
  H   H1196     1.0  0.94691  0.60360  0.14160  1.0000
  H   H1197     1.0  0.98300  0.60387  0.14704  1.0000
  H   H1198     1.0  0.93159  0.61235  0.17112  1.0000
  H   H1199     1.0  0.96767  0.61331  0.17665  1.0000
  H   H1200     1.0  0.94343  0.59044  0.18855  1.0000
  H   H1201     1.0  0.92550  0.54982  0.17552  1.0000
  H   H1202     1.0  0.93620  0.54335  0.15404  1.0000
  H   H1203     1.0  0.91335  0.57201  0.15828  1.0000
  Fe  Fe152     1.0  0.02091  0.40287  0.14488  1.0000
  C   C754      1.0  0.92214  0.68206  0.29770  1.0000
  H   H1204     1.0  0.92565  0.68488  0.24839  1.0000
  H   H1205     1.0  0.98064  0.65109  0.05821  1.0000
  H   H1206     1.0  0.88937  0.46256  0.29189  1.0000
  C   C755      1.0  0.98859  0.39067  0.20595  1.0000
  C   C756      1.0  0.00423  0.68137  0.16795  1.0000
  C   C757      1.0  0.90352  0.66897  0.27132  1.0000
  H   H1207     1.0  0.01994  0.56332  0.13894  1.0000
  C   C758      1.0  0.01547  0.67504  0.15196  1.0000
  S   S295      1.0  0.02147  0.40288  0.08238  1.0000
  N   N76       1.0  0.87122  0.49121  0.27327  1.0000
  H   H1208     1.0  0.82639  0.49437  0.27165  1.0000
  S   S296      1.0  0.96213  0.68661  0.19213  1.0000
  H   H1209     1.0  0.05125  0.64916  0.07621  1.0000
  H   H1210     1.0  0.02467  0.68960  0.08584  1.0000
  C   C759      1.0  0.90694  0.39658  0.17351  1.0000
  H   H1211     1.0  0.03886  0.45965  0.07484  1.0000
  C   C760      1.0  0.96288  0.38138  0.16662  1.0000
  C   C761      1.0  0.92461  0.68405  0.26212  1.0000
  H   H1212     1.0  0.85185  0.46162  0.29150  1.0000
  H   H1213     1.0  0.84215  0.52222  0.28152  1.0000
  S   S297      1.0  0.01148  0.65770  0.11970  1.0000
  C   C762      1.0  0.93951  0.38635  0.21421  1.0000
  H   H1214     1.0  0.91560  0.49786  0.27325  1.0000
  C   C763      1.0  0.04315  0.52512  0.14056  1.0000
  H   H1215     1.0  0.85526  0.45807  0.26022  1.0000
  H   H1216     1.0  0.98413  0.40643  0.19544  1.0000
  S   S298      1.0  0.89122  0.69584  0.21712  1.0000
  H   H1217     1.0  0.85817  0.40788  0.27864  1.0000
  C   C764      1.0  0.96769  0.41947  0.22677  1.0000
  H   H1218     1.0  0.94063  0.40640  0.12893  1.0000
  H   H1219     1.0  0.96574  0.40350  0.10103  1.0000
  H   H1220     1.0  0.95211  0.42097  0.23759  1.0000
  S   S299      1.0  0.04850  0.43539  0.15360  1.0000
  N   N77       1.0  0.96761  0.39182  0.22022  1.0000
  H   H1221     1.0  0.84990  0.69718  0.27938  1.0000
  H   H1222     1.0  0.01015  0.39437  0.21000  1.0000
  H   H1223     1.0  0.04248  0.63417  0.05723  1.0000
  C   C765      1.0  0.00782  0.68486  0.07721  1.0000
  C   C766      1.0  0.99633  0.66496  0.05128  1.0000
  C   C767      1.0  0.94263  0.69792  0.28853  1.0000
  C   C768      1.0  0.94421  0.69845  0.27074  1.0000
  H   H1224     1.0  0.99558  0.37434  0.23885  1.0000
  H   H1225     1.0  0.98138  0.37430  0.12617  1.0000
  Fe  Fe153     1.0  0.98714  0.52803  0.46501  1.0000
  S   S300      1.0  0.94480  0.51673  0.47654  1.0000
  H   H1226     1.0  0.01492  0.38526  0.42269  1.0000
  Fe  Fe154     1.0  0.96629  0.58027  0.44563  1.0000
  S   S301      1.0  0.92208  0.57394  0.45583  1.0000
  S   S302      1.0  0.98434  0.61385  0.42724  1.0000
  Fe  Fe155     1.0  0.94123  0.56177  0.48099  1.0000
  S   S303      1.0  0.92871  0.57999  0.50583  1.0000
  Fe  Fe156     1.0  0.92976  0.52956  0.45050  1.0000
  S   S304      1.0  0.90055  0.50665  0.43497  1.0000
  S   S305      1.0  0.98479  0.57217  0.47104  1.0000
  S   S306      1.0  0.97261  0.53692  0.43860  1.0000
  H   H1227     1.0  0.85446  0.70027  0.30160  1.0000
  S   S307      1.0  0.88471  0.40337  0.33760  1.0000
  H   H1228     1.0  0.99979  0.41260  0.38884  1.0000
  H   H1229     1.0  0.04791  0.60825  0.41985  1.0000
  C   C769      1.0  0.02414  0.40579  0.41878  1.0000
  H   H1230     1.0  0.98741  0.54248  0.53226  1.0000
  C   C770      1.0  0.89182  0.40131  0.31576  1.0000
  C   C771      1.0  0.01818  0.39832  0.38929  1.0000
  C   C772      1.0  0.87015  0.40634  0.30454  1.0000
  C   C773      1.0  0.93823  0.42514  0.41887  1.0000
  C   C774      1.0  0.91512  0.43688  0.41064  1.0000
  C   C775      1.0  0.90323  0.46165  0.41585  1.0000
  C   C776      1.0  0.91493  0.47514  0.42893  1.0000
  C   C777      1.0  0.93834  0.46364  0.43690  1.0000
  C   C778      1.0  0.94963  0.43851  0.43208  1.0000
  H   H1231     1.0  0.90604  0.42655  0.40055  1.0000
  H   H1232     1.0  0.88494  0.47030  0.40976  1.0000
  H   H1233     1.0  0.94737  0.47377  0.44709  1.0000
  H   H1234     1.0  0.96714  0.42934  0.43874  1.0000
  C   C779      1.0  0.96110  0.63076  0.41326  1.0000
  C   C780      1.0  0.97194  0.64568  0.39865  1.0000
  C   C781      1.0  0.95388  0.65924  0.38716  1.0000
  C   C782      1.0  0.92487  0.65782  0.39017  1.0000
  C   C783      1.0  0.91400  0.64275  0.40475  1.0000
  C   C784      1.0  0.93209  0.62934  0.41633  1.0000
  H   H1235     1.0  0.99437  0.64665  0.39614  1.0000
  H   H1236     1.0  0.92139  0.68077  0.31143  1.0000
  H   H1237     1.0  0.89154  0.64177  0.40720  1.0000
  H   H1238     1.0  0.92357  0.61808  0.42766  1.0000
  N   N78       1.0  0.02449  0.55183  0.54510  1.0000
  C   C785      1.0  0.93110  0.55891  0.52486  1.0000
  C   C786      1.0  0.93048  0.53020  0.52498  1.0000
  C   C787      1.0  0.04888  0.43404  0.39674  1.0000
  S   S308      1.0  0.95430  0.40003  0.36382  1.0000
  H   H1239     1.0  0.92826  0.52050  0.51324  1.0000
  H   H1240     1.0  0.93348  0.69294  0.41814  1.0000
  H   H1241     1.0  0.04794  0.68694  0.30428  1.0000
  H   H1242     1.0  0.03144  0.44944  0.39630  1.0000
  N   N79       1.0  0.92006  0.55717  0.39235  1.0000
  C   C788      1.0  0.94535  0.57445  0.39010  1.0000
  C   C789      1.0  0.92851  0.52789  0.39483  1.0000
  C   C790      1.0  0.90317  0.56133  0.37711  1.0000
  C   C791      1.0  0.90315  0.56500  0.40740  1.0000
  H   H1243     1.0  0.95791  0.57280  0.40172  1.0000
  H   H1244     1.0  0.93972  0.59654  0.38747  1.0000
  H   H1245     1.0  0.95919  0.56839  0.37928  1.0000
  H   H1246     1.0  0.90990  0.51430  0.39667  1.0000
  H   H1247     1.0  0.94133  0.52108  0.38379  1.0000
  H   H1248     1.0  0.94102  0.52399  0.40637  1.0000
  H   H1249     1.0  0.89645  0.58327  0.37491  1.0000
  H   H1250     1.0  0.88387  0.54861  0.37848  1.0000
  H   H1251     1.0  0.91523  0.55558  0.36550  1.0000
  H   H1252     1.0  0.88439  0.55170  0.40986  1.0000
  H   H1253     1.0  0.89568  0.58671  0.40583  1.0000
  H   H1254     1.0  0.91544  0.56272  0.41908  1.0000
  N   N80       1.0  0.03832  0.40610  0.40175  1.0000
  S   S309      1.0  0.95330  0.39373  0.41320  1.0000
  H   H1255     1.0  0.93417  0.59343  0.54019  1.0000
  S   S310      1.0  0.02557  0.50194  0.46911  1.0000
  C   C792      1.0  0.93201  0.51395  0.54040  1.0000
  H   H1256     1.0  0.01338  0.56095  0.51913  1.0000
  C   C793      1.0  0.93363  0.57122  0.54023  1.0000
  H   H1257     1.0  0.00987  0.37729  0.39265  1.0000
  C   C794      1.0  0.04662  0.54425  0.48550  1.0000
  H   H1258     1.0  0.02557  0.54737  0.49050  1.0000
  H   H1259     1.0  0.03875  0.41090  0.42866  1.0000
  H   H1260     1.0  0.02795  0.39845  0.37622  1.0000
  H   H1261     1.0  0.84939  0.41160  0.30943  1.0000
  S   S311      1.0  0.90179  0.67472  0.37603  1.0000
  H   H1262     1.0  0.96245  0.67045  0.37586  1.0000
  C   C795      1.0  0.91856  0.39432  0.30942  1.0000
  H   H1263     1.0  0.93108  0.49175  0.54041  1.0000
  H   H1264     1.0  0.01841  0.52495  0.52510  1.0000
  H   H1265     1.0  0.04377  0.61397  0.44194  1.0000
  C   C796      1.0  0.01036  0.54474  0.52973  1.0000
  H   H1266     1.0  0.01815  0.59540  0.53992  1.0000
  Fe  Fe157     1.0  0.91615  0.38110  0.35418  1.0000
  H   H1267     1.0  0.00653  0.42097  0.41895  1.0000
  H   H1268     1.0  0.93549  0.39070  0.31800  1.0000
  Fe  Fe158     1.0  0.94254  0.37657  0.38853  1.0000
  H   H1269     1.0  0.98434  0.69722  0.40805  1.0000
  H   H1270     1.0  0.96983  0.70506  0.43733  1.0000
  C   C797      1.0  0.01408  0.57886  0.55019  1.0000
  H   H1271     1.0  0.86851  0.48951  0.30062  1.0000
  H   H1272     1.0  0.93304  0.63666  0.70913  1.0000
  H   H1273     1.0  0.86838  0.53531  0.59960  1.0000
  H   H1274     1.0  0.90501  0.47444  0.77304  1.0000
  C   C798      1.0  0.94755  0.58366  0.71080  1.0000
  Fe  Fe159     1.0  0.97798  0.50612  0.63280  1.0000
  S   S312      1.0  0.93376  0.51308  0.62481  1.0000
  S   S313      1.0  0.99573  0.47267  0.65084  1.0000
  Fe  Fe160     1.0  0.99950  0.55555  0.61037  1.0000
  S   S314      1.0  0.95734  0.56723  0.60088  1.0000
  H   H1275     1.0  0.92306  0.70302  0.76938  1.0000
  Fe  Fe161     1.0  0.94227  0.55774  0.62794  1.0000
  S   S315      1.0  0.90930  0.58410  0.64024  1.0000
  Fe  Fe162     1.0  0.95262  0.52215  0.59838  1.0000
  S   S316      1.0  0.93647  0.50519  0.57487  1.0000
  S   S317      1.0  0.98519  0.55024  0.63787  1.0000
  S   S318      1.0  0.99612  0.51095  0.60604  1.0000
  H   H1276     1.0  0.91242  0.48142  0.79438  1.0000
  H   H1277     1.0  0.99604  0.63229  0.69817  1.0000
  H   H1278     1.0  0.92813  0.57582  0.70561  1.0000
  C   C799      1.0  0.91260  0.41951  0.77704  1.0000
  C   C800      1.0  0.94169  0.66616  0.65580  1.0000
  C   C801      1.0  0.91487  0.65717  0.66125  1.0000
  C   C802      1.0  0.90487  0.63213  0.65622  1.0000
  C   C803      1.0  0.92176  0.61587  0.64587  1.0000
  C   C804      1.0  0.94849  0.62496  0.64031  1.0000
  C   C805      1.0  0.95828  0.65019  0.64512  1.0000
  H   H1279     1.0  0.90183  0.66958  0.66932  1.0000
  H   H1280     1.0  0.88413  0.62523  0.66049  1.0000
  H   H1281     1.0  0.96159  0.61266  0.63222  1.0000
  H   H1282     1.0  0.97894  0.65721  0.64073  1.0000
  C   C806      1.0  0.93687  0.41616  0.68461  1.0000
  C   C807      1.0  0.92584  0.43552  0.67256  1.0000
  C   C808      1.0  0.94366  0.45304  0.66220  1.0000
  C   C809      1.0  0.97269  0.45116  0.66373  1.0000
  C   C810      1.0  0.98374  0.43164  0.67571  1.0000
  C   C811      1.0  0.96589  0.41422  0.68616  1.0000
  H   H1283     1.0  0.90340  0.43709  0.67129  1.0000
  H   H1284     1.0  0.93492  0.46795  0.65302  1.0000
  H   H1285     1.0  0.00618  0.43006  0.67698  1.0000
  H   H1286     1.0  0.97461  0.39937  0.69541  1.0000
  S   S319      1.0  0.94371  0.37574  0.74312  1.0000
  H   H1287     1.0  0.86431  0.44621  0.78400  1.0000
  S   S320      1.0  0.03696  0.57701  0.59799  1.0000
  C   C812      1.0  0.92744  0.63841  0.77757  1.0000
  H   H1288     1.0  0.83148  0.56951  0.60634  1.0000
  H   H1289     1.0  0.99551  0.52908  0.56227  1.0000
  C   C813      1.0  0.01844  0.53061  0.55911  1.0000
  H   H1290     1.0  0.98308  0.57765  0.68375  1.0000
  C   C814      1.0  0.88370  0.55241  0.59880  1.0000
  H   H1291     1.0  0.93921  0.46688  0.78099  1.0000
  H   H1292     1.0  0.88275  0.62132  0.58794  1.0000
  C   C815      1.0  0.93588  0.55493  0.55559  1.0000
  C   C816      1.0  0.85962  0.57664  0.57591  1.0000
  C   C817      1.0  0.87676  0.43915  0.79512  1.0000
  H   H1293     1.0  0.96224  0.56593  0.71289  1.0000
  H   H1294     1.0  0.93537  0.41802  0.77352  1.0000
  H   H1295     1.0  0.02436  0.58485  0.56176  1.0000
  H   H1296     1.0  0.93821  0.56461  0.56725  1.0000
  H   H1297     1.0  0.92086  0.62206  0.69078  1.0000
  H   H1298     1.0  0.85578  0.58769  0.61805  1.0000
  H   H1299     1.0  0.94932  0.64619  0.68881  1.0000
  N   N81       1.0  0.96030  0.60572  0.69921  1.0000
  C   C818      1.0  0.93999  0.62863  0.69684  1.0000
  H   H1300     1.0  0.00142  0.59895  0.70893  1.0000
  H   H1301     1.0  0.90944  0.59675  0.58272  1.0000
  C   C819      1.0  0.91637  0.46654  0.78444  1.0000
  H   H1302     1.0  0.84987  0.59634  0.57095  1.0000
  H   H1303     1.0  0.90536  0.39834  0.78114  1.0000
  H   H1304     1.0  0.89215  0.55338  0.61165  1.0000
  Fe  Fe163     1.0  0.94278  0.68349  0.72586  1.0000
  S   S321      1.0  0.93519  0.64502  0.74295  1.0000
  C   C820      1.0  0.89197  0.60090  0.59198  1.0000
  C   C821      1.0  0.96682  0.66638  0.76687  1.0000
  C   C822      1.0  0.84777  0.58575  0.60512  1.0000
  H   H1305     1.0  0.04254  0.51356  0.64248  1.0000
  H   H1306     1.0  0.02874  0.53543  0.57093  1.0000
  N   N82       1.0  0.87075  0.57894  0.59293  1.0000
  C   C823      1.0  0.98576  0.61577  0.70668  1.0000
  H   H1307     1.0  0.83738  0.60563  0.60113  1.0000
  C   C824      1.0  0.96775  0.59500  0.68254  1.0000
  C   C825      1.0  0.94404  0.64993  0.76385  1.0000
  H   H1308     1.0  0.98067  0.62456  0.71911  1.0000
  H   H1309     1.0  0.90124  0.54657  0.59001  1.0000
  H   H1310     1.0  0.97720  0.61134  0.67351  1.0000
  H   H1311     1.0  0.87655  0.57119  0.56651  1.0000
  H   H1312     1.0  0.90982  0.62565  0.77526  1.0000
  H   H1313     1.0  0.94894  0.58741  0.67650  1.0000
  H   H1314     1.0  0.97979  0.67525  0.75633  1.0000
  H   H1315     1.0  0.84349  0.56030  0.57617  1.0000
  H   H1316     1.0  0.94172  0.59132  0.72348  1.0000
  C   C826      1.0  0.97287  0.67140  0.78359  1.0000
  H   H1317     1.0  0.90124  0.60280  0.60455  1.0000
  N   N83       1.0  0.90710  0.43857  0.79057  1.0000
  S   S322      1.0  0.97970  0.69002  0.70767  1.0000
  S   S323      1.0  0.91381  0.39420  0.69712  1.0000
  H   H1318     1.0  0.99053  0.68412  0.78588  1.0000
  H   H1319     1.0  0.03522  0.58228  0.63429  1.0000
  H   H1320     1.0  0.90151  0.42621  0.76530  1.0000
  C   C827      1.0  0.93480  0.52623  0.55575  1.0000
  H   H1321     1.0  0.89394  0.69074  0.78266  1.0000
  H   H1322     1.0  0.04583  0.46922  0.62810  1.0000
  S   S324      1.0  0.91110  0.69740  0.70684  1.0000
  S   S325      1.0  0.95501  0.69720  0.66205  1.0000
  C   C828      1.0  0.95577  0.66060  0.79728  1.0000
  C   C829      1.0  0.93306  0.64406  0.79427  1.0000
  H   H1323     1.0  0.99111  0.57851  0.55317  1.0000
  H   H1324     1.0  0.02587  0.50989  0.55574  1.0000
  H   H1325     1.0  0.86912  0.41837  0.79990  1.0000
  Fe  Fe164     1.0  0.87187  0.64165  0.85071  1.0000
  S   S326      1.0  0.91657  0.63773  0.85825  1.0000
  S   S327      1.0  0.84331  0.60506  0.85331  1.0000
  H   H1326     1.0  0.97813  0.39409  0.86133  1.0000
  C   C830      1.0  0.92267  0.42905  0.80572  1.0000
  S   S328      1.0  0.96263  0.66880  0.81797  1.0000
  Fe  Fe165     1.0  0.92475  0.66807  0.83578  1.0000
  S   S329      1.0  0.02782  0.46358  0.96765  1.0000
  Fe  Fe166     1.0  0.90679  0.67495  0.87261  1.0000
  C   C831      1.0  0.03906  0.42389  0.03241  1.0000
  S   S330      1.0  0.88072  0.66915  0.82695  1.0000
  S   S331      1.0  0.86123  0.67682  0.86683  1.0000
  Fe  Fe167     1.0  0.88326  0.45697  0.84748  1.0000
  S   S332      1.0  0.91994  0.43901  0.86116  1.0000
  S   S333      1.0  0.89278  0.49288  0.82862  1.0000
  Fe  Fe168     1.0  0.90285  0.39809  0.85603  1.0000
  H   H1327     1.0  0.97476  0.63449  0.92081  1.0000
  Fe  Fe169     1.0  0.89104  0.43623  0.88427  1.0000
  H   H1328     1.0  0.96922  0.58940  0.90861  1.0000
  S   S334      1.0  0.86851  0.41626  0.84024  1.0000
  S   S335      1.0  0.85515  0.45703  0.87083  1.0000
  C   C832      1.0  0.03082  0.53242  0.94435  1.0000
  H   H1329     1.0  0.03825  0.60518  0.88655  1.0000
  S   S336      1.0  0.79780  0.40323  0.86376  1.0000
  C   C833      1.0  0.95374  0.45361  0.92523  1.0000
  C   C834      1.0  0.89529  0.52925  0.88354  1.0000
  C   C835      1.0  0.97332  0.44012  0.93580  1.0000
  Fe  Fe170     1.0  0.87441  0.70405  0.84383  1.0000
  H   H1330     1.0  0.03896  0.41388  0.02063  1.0000
  C   C836      1.0  0.03417  0.57978  0.95148  1.0000
  H   H1331     1.0  0.04220  0.63757  0.89568  1.0000
  C   C837      1.0  0.99212  0.58927  0.90533  1.0000
  C   C838      1.0  0.94639  0.39831  0.93636  1.0000
  H   H1332     1.0  0.94339  0.37694  0.94079  1.0000
  H   H1333     1.0  0.91329  0.54352  0.88330  1.0000
  C   C839      1.0  0.93075  0.43934  0.91994  1.0000
  C   C840      1.0  0.85679  0.57440  0.84554  1.0000
  C   C841      1.0  0.88285  0.57370  0.83678  1.0000
  C   C842      1.0  0.89354  0.54868  0.83127  1.0000
  C   C843      1.0  0.87854  0.52423  0.83488  1.0000
  C   C844      1.0  0.85248  0.52496  0.84363  1.0000
  C   C845      1.0  0.84150  0.55004  0.84878  1.0000
  H   H1334     1.0  0.89467  0.59244  0.83413  1.0000
  H   H1335     1.0  0.91365  0.54825  0.82443  1.0000
  H   H1336     1.0  0.84055  0.50627  0.84619  1.0000
  H   H1337     1.0  0.82120  0.55055  0.85540  1.0000
  H   H1338     1.0  0.01904  0.39125  0.90058  1.0000
  C   C846      1.0  0.94900  0.69211  0.90452  1.0000
  H   H1339     1.0  0.99816  0.55421  0.95773  1.0000
  C   C847      1.0  0.96968  0.41243  0.94142  1.0000
  H   H1340     1.0  0.91941  0.44324  0.81608  1.0000
  S   S337      1.0  0.99459  0.39464  0.95397  1.0000
  H   H1341     1.0  0.95660  0.47507  0.92103  1.0000
  H   H1342     1.0  0.99575  0.57718  0.89401  1.0000
  S   S338      1.0  0.02084  0.60734  0.96240  1.0000
  H   H1343     1.0  0.90891  0.40078  0.92192  1.0000
  H   H1344     1.0  0.04485  0.60599  0.90876  1.0000
  N   N84       1.0  0.98180  0.38153  0.88783  1.0000
  C   C848      1.0  0.03337  0.61650  0.89807  1.0000
  H   H1345     1.0  0.85183  0.56573  0.88177  1.0000
  H   H1346     1.0  0.04484  0.56327  0.01533  1.0000
  H   H1347     1.0  0.03522  0.55077  0.98606  1.0000
  C   C849      1.0  0.92699  0.41171  0.92562  1.0000
  N   N85       1.0  0.00287  0.61757  0.90212  1.0000
  H   H1348     1.0  0.98159  0.42186  0.87479  1.0000
  H   H1349     1.0  0.94559  0.42766  0.80273  1.0000
  S   S339      1.0  0.87698  0.39313  0.88056  1.0000
  H   H1350     1.0  0.99163  0.62102  0.87590  1.0000
  C   C850      1.0  0.95713  0.69118  0.92140  1.0000
  H   H1351     1.0  0.96548  0.63374  0.89056  1.0000
  H   H1352     1.0  0.90364  0.50781  0.88530  1.0000
  C   C851      1.0  0.01882  0.55552  0.95153  1.0000
  H   H1353     1.0  0.99128  0.45112  0.93955  1.0000
  H   H1354     1.0  0.87992  0.57887  0.89292  1.0000
  C   C852      1.0  0.98863  0.40042  0.87273  1.0000
  S   S340      1.0  0.90664  0.45684  0.90669  1.0000
  C   C853      1.0  0.04705  0.46418  0.04763  1.0000
  C   C854      1.0  0.03092  0.40930  0.04785  1.0000
  Fe  Fe171     1.0  0.84338  0.41423  0.86500  1.0000
  H   H1355     1.0  0.00768  0.62237  0.92866  1.0000
  S   S341      1.0  0.03868  0.68584  0.96347  1.0000
  Fe  Fe172     1.0  0.03136  0.41948  0.96109  1.0000
  H   H1356     1.0  0.99643  0.65328  0.88498  1.0000
  H   H1357     1.0  0.01931  0.51338  0.94488  1.0000
  N   N86       1.0  0.87405  0.53504  0.89703  1.0000
  C   C855      1.0  0.88705  0.53228  0.91373  1.0000
  C   C856      1.0  0.86293  0.56335  0.89388  1.0000
  C   C857      1.0  0.85088  0.51521  0.89696  1.0000
  H   H1358     1.0  0.89590  0.51120  0.91642  1.0000
  H   H1359     1.0  0.87149  0.53599  0.92425  1.0000
  H   H1360     1.0  0.90444  0.54710  0.91429  1.0000
  H   H1361     1.0  0.84761  0.56883  0.90413  1.0000
  H   H1362     1.0  0.85840  0.49369  0.89983  1.0000
  H   H1363     1.0  0.84119  0.51610  0.88434  1.0000
  H   H1364     1.0  0.83405  0.51937  0.90665  1.0000
  H   H1365     1.0  0.88632  0.53155  0.87076  1.0000
  C   C858      1.0  0.98848  0.63194  0.88774  1.0000
  C   C859      1.0  0.95114  0.38149  0.89128  1.0000
  S   S342      1.0  0.91707  0.67716  0.90007  1.0000
  C   C860      1.0  0.99756  0.63271  0.91747  1.0000
  H   H1366     1.0  0.00608  0.65389  0.91563  1.0000
  H   H1367     1.0  0.00269  0.57803  0.91615  1.0000
  S   S343      1.0  0.91927  0.70499  0.85091  1.0000
  C   C861      1.0  0.98320  0.70156  0.92526  1.0000
  H   H1368     1.0  0.98519  0.68408  0.04663  1.0000
  Fe  Fe173     1.0  0.04979  0.64302  0.95695  1.0000
  H   H1369     1.0  0.92002  0.63533  0.80480  1.0000
  H   H1370     1.0  0.94287  0.40267  0.89275  1.0000
  H   H1371     1.0  0.94355  0.68187  0.93150  1.0000
  H   H1372     1.0  0.00444  0.65461  0.03991  1.0000
  H   H1373     1.0  0.99121  0.37712  0.91437  1.0000
  H   H1374     1.0  0.87189  0.45341  0.80530  1.0000
  H   H1375     1.0  0.02464  0.38804  0.04786  1.0000
  H   H1376     1.0  0.01158  0.40088  0.86967  1.0000
  H   H1377     1.0  0.98959  0.70031  0.93828  1.0000
  C   C862      1.0  0.99586  0.39086  0.90268  1.0000
  H   H1378     1.0  0.04840  0.67992  0.04108  1.0000
  H   H1379     1.0  0.98885  0.41198  0.90552  1.0000
  H   H1380     1.0  0.04895  0.51715  0.99186  1.0000
  H   H1381     1.0  0.91567  0.40834  0.81091  1.0000
  C   C863      1.0  0.04714  0.45139  0.03226  1.0000
  H   H1382     1.0  0.96050  0.70516  0.87850  1.0000
  C   C864      1.0  0.96660  0.70430  0.89155  1.0000
  H   H1383     1.0  0.74447  0.37862  0.86102  1.0000
  H   H1384     1.0  0.86132  0.70653  0.90032  1.0000
  C   C865      1.0  0.73784  0.91778  0.15400  1.0000
  H   H1385     1.0  0.82046  0.71158  0.22447  1.0000
  H   H1386     1.0  0.75267  0.93950  0.27882  1.0000
  C   C866      1.0  0.83580  0.74976  0.27143  1.0000
  S   S344      1.0  0.75736  0.78737  0.23797  1.0000
  H   H1387     1.0  0.88880  0.73018  0.27300  1.0000
  H   H1388     1.0  0.88879  0.78612  0.19287  1.0000
  H   H1389     1.0  0.95574  0.74886  0.18290  1.0000
  Fe  Fe174     1.0  0.73227  0.82572  0.23017  1.0000
  Fe  Fe175     1.0  0.72709  0.88540  0.21633  1.0000
  H   H1390     1.0  0.88094  0.75041  0.19795  1.0000
  C   C867      1.0  0.91907  0.77901  0.16389  1.0000
  C   C868      1.0  0.73623  0.92756  0.28560  1.0000
  C   C869      1.0  0.88659  0.76596  0.18734  1.0000
  H   H1391     1.0  0.79133  0.73944  0.24370  1.0000
  C   C870      1.0  0.84345  0.70935  0.29032  1.0000
  H   H1392     1.0  0.96021  0.71050  0.26360  1.0000
  S   S345      1.0  0.74054  0.86573  0.24143  1.0000
  H   H1393     1.0  0.90406  0.71489  0.18111  1.0000
  H   H1394     1.0  0.90179  0.78116  0.15484  1.0000
  C   C871      1.0  0.77868  0.76912  0.22382  1.0000
  C   C872      1.0  0.78064  0.77672  0.20638  1.0000
  C   C873      1.0  0.79683  0.76066  0.19545  1.0000
  C   C874      1.0  0.81128  0.73715  0.20193  1.0000
  H   H1395     1.0  0.93169  0.73980  0.20028  1.0000
  C   C875      1.0  0.79311  0.74561  0.23026  1.0000
  H   H1396     1.0  0.76969  0.79488  0.20131  1.0000
  H   H1397     1.0  0.79819  0.76646  0.18194  1.0000
  H   H1398     1.0  0.89229  0.73402  0.29521  1.0000
  C   C876      1.0  0.73929  0.91115  0.17159  1.0000
  C   C877      1.0  0.93599  0.75553  0.18954  1.0000
  H   H1399     1.0  0.94004  0.77537  0.19507  1.0000
  C   C878      1.0  0.90836  0.73117  0.17080  1.0000
  C   C879      1.0  0.74660  0.96557  0.15815  1.0000
  C   C880      1.0  0.74871  0.95885  0.17564  1.0000
  H   H1400     1.0  0.74974  0.98656  0.15303  1.0000
  C   C881      1.0  0.88080  0.74187  0.28384  1.0000
  S   S346      1.0  0.74668  0.92442  0.20452  1.0000
  H   H1401     1.0  0.84246  0.73849  0.26012  1.0000
  H   H1402     1.0  0.05176  0.71082  0.28587  1.0000
  H   H1403     1.0  0.92228  0.79955  0.16878  1.0000
  N   N87       1.0  0.85017  0.73880  0.28675  1.0000
  N   N88       1.0  0.91250  0.75796  0.17790  1.0000
  H   H1404     1.0  0.93854  0.77353  0.15655  1.0000
  H   H1405     1.0  0.92736  0.72448  0.16345  1.0000
  H   H1406     1.0  0.89022  0.73175  0.16238  1.0000
  H   H1407     1.0  0.86768  0.90552  0.29903  1.0000
  C   C882      1.0  0.80952  0.72976  0.21939  1.0000
  H   H1408     1.0  0.75324  0.97476  0.18395  1.0000
  C   C883      1.0  0.74096  0.94511  0.14730  1.0000
  H   H1409     1.0  0.73373  0.90185  0.14561  1.0000
  C   C884      1.0  0.74474  0.93173  0.18244  1.0000
  H   H1410     1.0  0.73347  0.73620  0.21568  1.0000
  H   H1411     1.0  0.83517  0.89912  0.28935  1.0000
  S   S347      1.0  0.83125  0.71721  0.18802  1.0000
  H   H1412     1.0  0.81262  0.74783  0.27319  1.0000
  H   H1413     1.0  0.86832  0.76752  0.17899  1.0000
  H   H1414     1.0  0.84602  0.77638  0.29945  1.0000
  S   S348      1.0  0.72319  0.03036  0.10310  1.0000
  S   S349      1.0  0.72274  0.84540  0.20428  1.0000
  H   H1415     1.0  0.72188  0.91082  0.26302  1.0000
  H   H1416     1.0  0.73662  0.89011  0.17671  1.0000
  S   S350      1.0  0.73598  0.95372  0.12560  1.0000
  H   H1417     1.0  0.88671  0.76380  0.28106  1.0000
  H   H1418     1.0  0.84040  0.77196  0.26834  1.0000
  S   S351      1.0  0.96540  0.71818  0.29911  1.0000
  C   C885      1.0  0.04798  0.70920  0.29991  1.0000
  S   S352      1.0  0.90229  0.72245  0.33317  1.0000
  S   S353      1.0  0.75067  0.92629  0.39146  1.0000
  Fe  Fe176     1.0  0.75081  0.93934  0.34256  1.0000
  S   S354      1.0  0.78689  0.95127  0.35761  1.0000
  H   H1419     1.0  0.97237  0.71958  0.39068  1.0000
  Fe  Fe177     1.0  0.78058  0.90988  0.37171  1.0000
  S   S355      1.0  0.81927  0.88520  0.37890  1.0000
  Fe  Fe178     1.0  0.75389  0.96652  0.37572  1.0000
  S   S356      1.0  0.75180  0.00611  0.38876  1.0000
  S   S357      1.0  0.74668  0.89678  0.35531  1.0000
  C   C886      1.0  0.02757  0.77434  0.36194  1.0000
  Fe  Fe179     1.0  0.90345  0.76570  0.34112  1.0000
  C   C887      1.0  0.02974  0.78808  0.34575  1.0000
  S   S358      1.0  0.86592  0.79172  0.33324  1.0000
  Fe  Fe180     1.0  0.96064  0.75640  0.35634  1.0000
  S   S359      1.0  0.99475  0.76964  0.37265  1.0000
  C   C888      1.0  0.95275  0.75981  0.41037  1.0000
  S   S360      1.0  0.75461  0.94864  0.31424  1.0000
  S   S361      1.0  0.94745  0.77362  0.33069  1.0000
  S   S362      1.0  0.91658  0.75243  0.36745  1.0000
  H   H1420     1.0  0.85207  0.87990  0.33391  1.0000
  N   N89       1.0  0.95727  0.73029  0.41541  1.0000
  H   H1421     1.0  0.01103  0.79554  0.33959  1.0000
  C   C889      1.0  0.83085  0.85747  0.36717  1.0000
  C   C890      1.0  0.81458  0.84758  0.35468  1.0000
  C   C891      1.0  0.82538  0.82701  0.34455  1.0000
  C   C892      1.0  0.85228  0.81591  0.34703  1.0000
  C   C893      1.0  0.86822  0.82519  0.35986  1.0000
  C   C894      1.0  0.85753  0.84598  0.36986  1.0000
  H   H1422     1.0  0.79380  0.85591  0.35275  1.0000
  H   H1423     1.0  0.81282  0.81964  0.33478  1.0000
  H   H1424     1.0  0.88900  0.81680  0.36184  1.0000
  H   H1425     1.0  0.87017  0.85351  0.37954  1.0000
  H   H1426     1.0  0.93632  0.76914  0.41862  1.0000
  H   H1427     1.0  0.92374  0.71653  0.40084  1.0000
  H   H1428     1.0  0.94609  0.76292  0.39705  1.0000
  H   H1429     1.0  0.04227  0.73091  0.33039  1.0000
  C   C895      1.0  0.84678  0.89575  0.30128  1.0000
  H   H1430     1.0  0.84694  0.94807  0.31002  1.0000
  Fe  Fe181     1.0  0.91942  0.70977  0.35863  1.0000
  H   H1431     1.0  0.78808  0.01400  0.35820  1.0000
  H   H1432     1.0  0.83510  0.90899  0.34272  1.0000
  H   H1433     1.0  0.02647  0.71744  0.30259  1.0000
  H   H1434     1.0  0.95031  0.73555  0.44206  1.0000
  H   H1435     1.0  0.04763  0.76323  0.30515  1.0000
  C   C896      1.0  0.93088  0.71519  0.41414  1.0000
  H   H1436     1.0  0.05035  0.75454  0.38251  1.0000
  C   C897      1.0  0.73238  0.92839  0.30324  1.0000
  C   C898      1.0  0.05192  0.76509  0.36997  1.0000
  C   C899      1.0  0.80354  0.89350  0.31822  1.0000
  N   N90       1.0  0.83104  0.90711  0.31574  1.0000
  H   H1437     1.0  0.99891  0.73097  0.40377  1.0000
  H   H1438     1.0  0.81500  0.94618  0.32291  1.0000
  Fe  Fe182     1.0  0.94711  0.72938  0.32449  1.0000
  C   C900      1.0  0.97918  0.71897  0.40402  1.0000
  H   H1439     1.0  0.97237  0.77178  0.41093  1.0000
  H   H1440     1.0  0.86732  0.91330  0.33026  1.0000
  H   H1441     1.0  0.80586  0.87083  0.32062  1.0000
  H   H1442     1.0  0.91363  0.72349  0.42226  1.0000
  S   S363      1.0  0.96426  0.71284  0.34920  1.0000
  H   H1443     1.0  0.79135  0.90123  0.32923  1.0000
  H   H1444     1.0  0.85079  0.74606  0.31328  1.0000
  C   C901      1.0  0.84708  0.90215  0.33131  1.0000
  H   H1445     1.0  0.98631  0.73817  0.43445  1.0000
  C   C902      1.0  0.96633  0.72715  0.43311  1.0000
  H   H1446     1.0  0.81761  0.75276  0.30393  1.0000
  C   C903      1.0  0.76625  0.03561  0.37769  1.0000
  C   C904      1.0  0.82671  0.93704  0.31215  1.0000
  C   C905      1.0  0.78321  0.03387  0.36289  1.0000
  H   H1447     1.0  0.79049  0.89751  0.30692  1.0000
  H   H1448     1.0  0.85033  0.87315  0.30365  1.0000
  H   H1449     1.0  0.74987  0.03845  0.30850  1.0000
  H   H1450     1.0  0.72068  0.03831  0.32365  1.0000
  H   H1451     1.0  0.81411  0.94153  0.30070  1.0000
  C   C906      1.0  0.84068  0.75415  0.30145  1.0000
  Fe  Fe183     1.0  0.74510  0.89187  0.72157  1.0000
  S   S364      1.0  0.77939  0.92290  0.72122  1.0000
  C   C907      1.0  0.82400  0.84941  0.66712  1.0000
  Fe  Fe184     1.0  0.74878  0.88886  0.68320  1.0000
  S   S365      1.0  0.78300  0.92001  0.67991  1.0000
  Fe  Fe185     1.0  0.80099  0.89621  0.70248  1.0000
  S   S366      1.0  0.84696  0.88485  0.70123  1.0000
  Fe  Fe186     1.0  0.75787  0.94331  0.69885  1.0000
  S   S367      1.0  0.74266  0.98748  0.69600  1.0000
  S   S368      1.0  0.76821  0.86345  0.70454  1.0000
  H   H1452     1.0  0.84352  0.80519  0.68559  1.0000
  C   C908      1.0  0.73616  0.88672  0.76437  1.0000
  S   S369      1.0  0.95149  0.75132  0.69696  1.0000
  N   N91       1.0  0.90333  0.73359  0.78411  1.0000
  H   H1453     1.0  0.90058  0.76087  0.76146  1.0000
  H   H1454     1.0  0.77255  0.82765  0.67264  1.0000
  Fe  Fe187     1.0  0.91671  0.73944  0.71621  1.0000
  S   S370      1.0  0.87773  0.76158  0.72575  1.0000
  Fe  Fe188     1.0  0.94835  0.70772  0.68936  1.0000
  S   S371      1.0  0.02052  0.75121  0.72422  1.0000
  C   C909      1.0  0.83318  0.80840  0.65236  1.0000
  H   H1455     1.0  0.77800  0.88904  0.75308  1.0000
  H   H1456     1.0  0.82041  0.86199  0.65504  1.0000
  C   C910      1.0  0.75578  0.97404  0.77528  1.0000
  S   S372      1.0  0.94602  0.72452  0.73639  1.0000
  H   H1457     1.0  0.81153  0.85910  0.67732  1.0000
  C   C911      1.0  0.85607  0.85103  0.70869  1.0000
  C   C912      1.0  0.88187  0.83960  0.70343  1.0000
  C   C913      1.0  0.88893  0.81218  0.70860  1.0000
  C   C914      1.0  0.87029  0.79619  0.71921  1.0000
  C   C915      1.0  0.84471  0.80780  0.72467  1.0000
  C   C916      1.0  0.83760  0.83509  0.71942  1.0000
  H   H1458     1.0  0.89634  0.85191  0.69523  1.0000
  H   H1459     1.0  0.90878  0.80346  0.70442  1.0000
  H   H1460     1.0  0.83027  0.79555  0.73293  1.0000
  H   H1461     1.0  0.81790  0.84383  0.72378  1.0000
  H   H1462     1.0  0.74921  0.83551  0.78372  1.0000
  Fe  Fe189     1.0  0.98041  0.73264  0.71651  1.0000
  H   H1463     1.0  0.77927  0.79750  0.66131  1.0000
  H   H1464     1.0  0.82786  0.78644  0.65126  1.0000
  H   H1465     1.0  0.84647  0.85129  0.67007  1.0000
  C   C917      1.0  0.73211  0.89330  0.79462  1.0000
  H   H1466     1.0  0.81526  0.78266  0.68218  1.0000
  H   H1467     1.0  0.82988  0.81976  0.63983  1.0000
  H   H1468     1.0  0.73503  0.98285  0.77907  1.0000
  C   C918      1.0  0.78604  0.81903  0.66241  1.0000
  H   H1469     1.0  0.72031  0.97727  0.74964  1.0000
  H   H1470     1.0  0.76907  0.01646  0.73971  1.0000
  C   C919      1.0  0.82106  0.80467  0.68242  1.0000
  C   C920      1.0  0.92246  0.72829  0.79825  1.0000
  H   H1471     1.0  0.80191  0.98769  0.70285  1.0000
  H   H1472     1.0  0.79685  0.97350  0.73902  1.0000
  C   C921      1.0  0.75351  0.03940  0.70475  1.0000
  N   N92       1.0  0.81606  0.82037  0.66607  1.0000
  H   H1473     1.0  0.75472  0.95139  0.77838  1.0000
  C   C922      1.0  0.74225  0.82155  0.79488  1.0000
  H   H1474     1.0  0.80863  0.81329  0.69308  1.0000
  C   C923      1.0  0.76507  0.89076  0.76454  1.0000
  H   H1475     1.0  0.78128  0.83118  0.65034  1.0000
  H   H1476     1.0  0.85596  0.80919  0.65480  1.0000
  C   C924      1.0  0.76470  0.01314  0.70230  1.0000
  C   C925      1.0  0.87500  0.74024  0.79099  1.0000
  N   N93       1.0  0.76292  0.98065  0.75703  1.0000
  C   C926      1.0  0.04919  0.72232  0.70034  1.0000
  S   S373      1.0  0.72208  0.91383  0.70035  1.0000
  C   C927      1.0  0.79311  0.00788  0.70477  1.0000
  C   C928      1.0  0.78266  0.79205  0.79098  1.0000
  H   H1477     1.0  0.79991  0.89889  0.77986  1.0000
  C   C929      1.0  0.74158  0.96882  0.74674  1.0000
  C   C930      1.0  0.79078  0.96886  0.75272  1.0000
  C   C931      1.0  0.71970  0.88804  0.77942  1.0000
  H   H1478     1.0  0.79110  0.94607  0.75530  1.0000
  C   C932      1.0  0.91386  0.75698  0.77269  1.0000
  C   C933      1.0  0.77747  0.89609  0.77972  1.0000
  H   H1479     1.0  0.74049  0.94601  0.74916  1.0000
  C   C934      1.0  0.76358  0.01086  0.75337  1.0000
  H   H1480     1.0  0.02959  0.72176  0.69402  1.0000
  H   H1481     1.0  0.93560  0.75298  0.76773  1.0000
  S   S374      1.0  0.73638  0.87251  0.65876  1.0000
  C   C935      1.0  0.05056  0.73555  0.71539  1.0000
  H   H1482     1.0  0.83256  0.02510  0.71079  1.0000
  H   H1483     1.0  0.77170  0.98212  0.78348  1.0000
  H   H1484     1.0  0.80738  0.97732  0.76025  1.0000
  H   H1485     1.0  0.91426  0.77628  0.77937  1.0000
  S   S375      1.0  0.72033  0.87917  0.74567  1.0000
  H   H1486     1.0  0.72790  0.80625  0.79021  1.0000
  C   C936      1.0  0.81043  0.02906  0.70923  1.0000
  C   C937      1.0  0.76104  0.89712  0.79480  1.0000
  H   H1487     1.0  0.86008  0.74423  0.78062  1.0000
  H   H1488     1.0  0.77949  0.02052  0.76088  1.0000
  H   H1489     1.0  0.88825  0.71214  0.76346  1.0000
  H   H1490     1.0  0.74289  0.02055  0.75632  1.0000
  H   H1491     1.0  0.87519  0.75882  0.79839  1.0000
  H   H1492     1.0  0.76961  0.77586  0.78608  1.0000
  H   H1493     1.0  0.79065  0.80556  0.77985  1.0000
  H   H1494     1.0  0.80108  0.78164  0.79694  1.0000
  H   H1495     1.0  0.74629  0.97339  0.73289  1.0000
  C   C938      1.0  0.90198  0.70880  0.77449  1.0000
  H   H1496     1.0  0.94415  0.72345  0.79351  1.0000
  H   H1497     1.0  0.79196  0.84421  0.79883  1.0000
  H   H1498     1.0  0.86655  0.72305  0.79976  1.0000
  S   S376      1.0  0.77214  0.87329  0.86070  1.0000
  H   H1499     1.0  0.86178  0.79419  0.89134  1.0000
  C   C939      1.0  0.75110  0.00610  0.88156  1.0000
  H   H1500     1.0  0.83375  0.72687  0.90949  1.0000
  S   S377      1.0  0.85760  0.74584  0.83465  1.0000
  S   S378      1.0  0.77718  0.90263  0.81373  1.0000
  H   H1501     1.0  0.72798  0.97961  0.94212  1.0000
  C   C940      1.0  0.72480  0.02628  0.03668  1.0000
  C   C941      1.0  0.88598  0.74780  0.88102  1.0000
  C   C942      1.0  0.75622  0.78944  0.81783  1.0000
  C   C943      1.0  0.77955  0.78281  0.86021  1.0000
  C   C944      1.0  0.78460  0.75432  0.86219  1.0000
  C   C945      1.0  0.80894  0.74273  0.85483  1.0000
  C   C946      1.0  0.82824  0.75965  0.84539  1.0000
  C   C947      1.0  0.82363  0.78818  0.84385  1.0000
  C   C948      1.0  0.79942  0.79976  0.85129  1.0000
  H   H1502     1.0  0.76926  0.74109  0.86906  1.0000
  H   H1503     1.0  0.02989  0.70947  0.04821  1.0000
  H   H1504     1.0  0.83872  0.80138  0.83673  1.0000
  H   H1505     1.0  0.79586  0.82173  0.84980  1.0000
  H   H1506     1.0  0.83588  0.72362  0.88698  1.0000
  H   H1507     1.0  0.87436  0.74550  0.86931  1.0000
  H   H1508     1.0  0.76264  0.95417  0.92488  1.0000
  Fe  Fe190     1.0  0.73828  0.84179  0.86263  1.0000
  C   C949      1.0  0.74064  0.95375  0.92217  1.0000
  H   H1509     1.0  0.72960  0.97723  0.01224  1.0000
  H   H1510     1.0  0.89719  0.77038  0.90984  1.0000
  Fe  Fe191     1.0  0.74149  0.89916  0.87510  1.0000
  H   H1511     1.0  0.77380  0.77781  0.82390  1.0000
  S   S379      1.0  0.75754  0.92377  0.89571  1.0000
  C   C950      1.0  0.84859  0.72575  0.89830  1.0000
  H   H1512     1.0  0.74630  0.98629  0.88900  1.0000
  H   H1513     1.0  0.83632  0.77431  0.88170  1.0000
  H   H1514     1.0  0.83387  0.77772  0.90416  1.0000
  H   H1515     1.0  0.74522  0.80101  0.82787  1.0000
  H   H1516     1.0  0.86925  0.75419  0.92280  1.0000
  S   S380      1.0  0.74762  0.79637  0.86813  1.0000
  H   H1517     1.0  0.91556  0.71037  0.80689  1.0000
  N   N94       1.0  0.76640  0.80808  0.80328  1.0000
  C   C951      1.0  0.73201  0.93904  0.90877  1.0000
  H   H1518     1.0  0.90007  0.72955  0.88287  1.0000
  H   H1519     1.0  0.73541  0.00889  0.87155  1.0000
  H   H1520     1.0  0.77211  0.00355  0.87517  1.0000
  C   C952      1.0  0.88310  0.75226  0.91124  1.0000
  N   N95       1.0  0.86662  0.75030  0.89595  1.0000
  S   S381      1.0  0.03428  0.72529  0.91681  1.0000
  Fe  Fe192     1.0  0.75086  0.89048  0.83743  1.0000
  H   H1521     1.0  0.80337  0.82003  0.81538  1.0000
  H   H1522     1.0  0.89953  0.76620  0.87859  1.0000
  H   H1523     1.0  0.76649  0.00553  0.91407  1.0000
  H   H1524     1.0  0.00615  0.72446  0.88541  1.0000
  N   N96       1.0  0.75044  0.02940  0.89257  1.0000
  H   H1525     1.0  0.89660  0.73359  0.91359  1.0000
  H   H1526     1.0  0.72979  0.83419  0.80372  1.0000
  H   H1527     1.0  0.81222  0.72066  0.85597  1.0000
  C   C953      1.0  0.84891  0.77523  0.89320  1.0000
  H   H1528     1.0  0.71925  0.89449  0.80618  1.0000
  H   H1529     1.0  0.72975  0.95853  0.97577  1.0000
  H   H1530     1.0  0.72198  0.99227  0.98245  1.0000
  C   C954      1.0  0.78453  0.82930  0.80938  1.0000
  H   H1531     1.0  0.74133  0.77402  0.81386  1.0000
  C   C955      1.0  0.72103  0.96824  0.93191  1.0000
  C   C956      1.0  0.77124  0.02456  0.90583  1.0000
  H   H1532     1.0  0.74537  0.01670  0.03684  1.0000
  S   S382      1.0  0.72967  0.03398  0.95322  1.0000
  C   C957      1.0  0.72219  0.03182  0.90076  1.0000
  H   H1533     1.0  0.92352  0.74630  0.80607  1.0000
  C   C958      1.0  0.00101  0.71342  0.91229  1.0000
  S   S383      1.0  0.72344  0.91942  0.85155  1.0000
  H   H1534     1.0  0.79280  0.02222  0.90014  1.0000
  H   H1535     1.0  0.77323  0.84143  0.81901  1.0000
  C   C959      1.0  0.72068  0.95687  0.00990  1.0000
  C   C960      1.0  0.99245  0.71519  0.89547  1.0000
  S   S384      1.0  0.73545  0.03652  0.00237  1.0000
  H   H1536     1.0  0.73848  0.94341  0.00603  1.0000
