data_image0
_chemical_formula_structural       FeS2FeS2FeSFeS3FeS2FeS2FeSFeS3FeS2FeS2FeSFeS3FeS2FeS2FeSFeS3FeS2FeS2FeSFeS3FeS2FeS2FeSFeS3FeS2FeS2FeSFeS3FeS2FeS2FeSFeS3FeS2FeS2FeSFeS3FeS2FeS2FeSFeS3FeS2FeS2FeSFeS3FeS2FeS2FeSFeS3FeS2FeS2FeSFeS3FeS2FeS2FeSFeS3FeS2FeS2FeSFeS3FeS2FeS2FeSFeS3FeS2FeS2FeSFeS3FeS2FeS2FeSFeS3FeS2FeS2FeSFeS3FeS2FeS2FeSFeS3FeS2FeS2FeSFeS3FeS2FeS2FeSFeS3FeS2FeS2FeSFeS3FeS2FeS2FeSFeS3FeS2FeS2FeSFeS3FeS2FeS2FeSFeS3FeS2FeS2FeSFeS3FeS2FeS2FeSFeS3FeS2FeS2FeSFeS3FeS2FeS2FeSFeS3FeS2FeS2FeSFeS3FeS2FeS2FeSFeS3C6H4C6H4C6H4C6H4C6H4C6H4C6H4C6H4C6H4C6H4C6H4C6H4C6H4C6H4C6H4C6H4C6H4C6H4C6H4C6H4C6H4C6H4C6H4C6H4C6H4C6H4C6H4C6H4C6H4C6H4C6H4C6H4C6H4C6H4C6H4C6H4C6H4C6H4C6H4C6H4C6H4C6H4C6H4C6H4C6H4C6H4C6H4C6H4C6H4C6H4C6H4C6H4C6H4C6H4C6H4C6H4C6H4C6H4C6H4C6H4C6H4C6H4C6H4C6H4NC4H12NC4H12NC4H12NC4H12NC4H12NC4H12NC4H12NC4H12NC4H12NC4H12NC4H12NC4H12NC4H12NC4H12NC4H12NC4H12NC4H12NC4H12NC4H12NC4H12NC4H12NC4H12NC4H12NC4H12NC4H12NC4H12NC4H12NC4H12NC4H12NC4H12NC4H12NC4H12NC4H12NC4H12NC4H12NC4H12NC4H12NC4H12NC4H12NC4H12NC4H12NC4H12NC4H12NC4H12NC4H12NC4H12NC4H12NC4H12NC4H12NC4H12NC4H12NC4H12NC4H12NC4H12NC4H12NC4H12NC4H12NC4H12NC4H12NC4H12NC4H12NC4H12NC4H12NC4H12
_chemical_formula_sum              "Fe128 S256 C640 H1024 N64"
_cell_length_a       56.947141672139765
_cell_length_b       57.415978039880244
_cell_length_c       33.147191927558104
_cell_angle_alpha    89.33349648298963
_cell_angle_beta     89.75247796831793
_cell_angle_gamma    85.06542453406786

_space_group_name_H-M_alt    "P 1"
_space_group_IT_number       1

loop_
  _space_group_symop_operation_xyz
  'x, y, z'

loop_
  _atom_site_type_symbol
  _atom_site_label
  _atom_site_symmetry_multiplicity
  _atom_site_fract_x
  _atom_site_fract_y
  _atom_site_fract_z
  _atom_site_occupancy
  Fe  Fe1       1.0  0.16889389513189954  0.7271025005325614  0.3557825320426742  1.0000
  S   S1        1.0  0.15143083432423493  0.7437603301413643  0.30092686691302095  1.0000
  S   S2        1.0  0.1575768419072334  0.7428220183293789  0.4152042818839378  1.0000
  Fe  Fe2       1.0  0.1934743238484695  0.687158780500718  0.3092883352760608  1.0000
  S   S3        1.0  0.17887415686049551  0.7007667178991583  0.25063262033075573  1.0000
  S   S4        1.0  0.2146442742485262  0.6524775178117668  0.3045164705721228  1.0000
  Fe  Fe3       1.0  0.1866773455999706  0.7359062571794889  0.2717819261269074  1.0000
  S   S5        1.0  0.19923319208527301  0.7592036815556684  0.22313225995033487  1.0000
  Fe  Fe4       1.0  0.14504806341854737  0.7073153419528967  0.2837286285254884  1.0000
  S   S6        1.0  0.11342025948667196  0.6999119637037404  0.24780203872451853  1.0000
  S   S7        1.0  0.20513650923832213  0.7219340009894224  0.3279070547364359  1.0000
  S   S8        1.0  0.1587961592840183  0.6912236069770156  0.34181168214127305  1.0000
  Fe  Fe5       1.0  0.19798927593490642  0.8520440823012365  0.47740712206863223  1.0000
  S   S9        1.0  0.19635653988747684  0.877390523823481  0.42519441686411974  1.0000
  S   S10       1.0  0.22213512458125134  0.8191485663574061  0.47306071389828686  1.0000
  Fe  Fe6       1.0  0.16006104328884668  0.879837378792328  0.5248342519229011  1.0000
  S   S11       1.0  0.15497081845216648  0.907646722540741  0.4770359821269228  1.0000
  S   S12       1.0  0.13598931648319035  0.8822868596266212  0.5789247525312601  1.0000
  Fe  Fe7       1.0  0.15718376614198426  0.8781574137133021  0.43322744412214087  1.0000
  S   S13       1.0  0.1321703334133322  0.8722736332136096  0.38271736082329144  1.0000
  Fe  Fe8       1.0  0.19453911763415652  0.9046770137019698  0.47333334241586617  1.0000
  S   S14       1.0  0.21207558322878095  0.9383508053673176  0.47031964745305677  1.0000
  S   S15       1.0  0.15892373498749807  0.8505495799920801  0.48133572388951373  1.0000
  S   S16       1.0  0.19951571077792052  0.8792648978608849  0.5253424893533272  1.0000
  Fe  Fe9       1.0  0.32307233582743594  0.9725109429329668  0.368854175387083  1.0000
  S   S17       1.0  0.3323691576303705  0.9727785730032463  0.303085836090593  1.0000
  S   S18       1.0  0.31463684864644126  0.937957429649096  0.3957914028182503  1.0000
  Fe  Fe10      1.0  0.33260851247838796  0.02300696865013574  0.37918475517389894  1.0000
  S   S19       1.0  0.34294466261287454  0.027769116837782493  0.3146577488852309  1.0000
  S   S20       1.0  0.3357997787527227  0.052947814152517036  0.420582923644656  1.0000
  Fe  Fe11      1.0  0.3118676748136012  0.007906673545408971  0.30116179565056395  1.0000
  S   S21       1.0  0.2867153459495314  0.02230425516932555  0.25303453181137836  1.0000
  Fe  Fe12      1.0  0.3625638634323049  0.9926194241326579  0.3220537464651762  1.0000
  S   S22       1.0  0.3985129223707148  0.9841574580126355  0.29594996582691113  1.0000
  S   S23       1.0  0.2996213727682605  0.005988675846684721  0.365530902828184  1.0000
  S   S24       1.0  0.35515170108387245  0.9895350636037404  0.38804820214303015  1.0000
  Fe  Fe13      1.0  0.46737332863461184  0.9719086323897757  0.48699209147321554  1.0000
  S   S25       1.0  0.43349200820893  0.9910171251397825  0.5077334372973608  1.0000
  S   S26       1.0  0.4676470269326379  0.9472447800716833  0.4351457245264876  1.0000
  Fe  Fe14      1.0  0.49723166726218626  0.9956348838538441  0.5473942011824969  1.0000
  S   S27       1.0  0.4657491177462571  0.016478515264001015  0.5726741006201572  1.0000
  S   S28       1.0  0.5303131755097821  0.005044219577628795  0.5772614886903578  1.0000
  Fe  Fe15      1.0  0.4482683959033321  0.9831725313734075  0.569339914421816  1.0000
  S   S29       1.0  0.4290416246924996  0.9699601345658612  0.6226013629759044  1.0000
  Fe  Fe16      1.0  0.45491610068635874  0.0220880355168247  0.5084865925673593  1.0000
  S   S30       1.0  0.4460855466824224  0.05825850364621643  0.48368862027683657  1.0000
  S   S31       1.0  0.4806996639231448  0.9616333931095032  0.5490208063910701  1.0000
  S   S32       1.0  0.4877158459283742  0.0034576140624376084  0.4829355744692593  1.0000
  Fe  Fe17      1.0  0.0019524043629812748  0.6898815840827641  0.2723586645820187  1.0000
  S   S33       1.0  0.9728388785666647  0.6988952427670019  0.3162240273717814  1.0000
  S   S34       1.0  0.006814379618453215  0.7108579157678289  0.21632383103419975  1.0000
  Fe  Fe18      1.0  0.02316433429583653  0.6495395187674263  0.32321138789326753  1.0000
  S   S35       1.0  0.9962492478495283  0.6549567696127967  0.3723842417929739  1.0000
  S   S36       1.0  0.055317146528010674  0.6243485297603041  0.325216471860453  1.0000
  Fe  Fe19      1.0  0.9708936815976362  0.6601510435890765  0.32080016873677386  1.0000
  S   S37       1.0  0.9350673460469194  0.647173238241811  0.32150318152997986  1.0000
  Fe  Fe20      1.0  0.000792740274724979  0.6931187427753662  0.36340944180051243  1.0000
  S   S38       1.0  0.004361548278188021  0.7175333184752185  0.4150811596864176  1.0000
  S   S39       1.0  0.9975020663705054  0.651496417284191  0.2720200285164311  1.0000
  S   S40       1.0  0.03009974625524614  0.6873503541216431  0.3190508644755543  1.0000
  Fe  Fe21      1.0  0.8653398388798678  0.9899579998788571  0.3085356574493729  1.0000
  S   S41       1.0  0.8291182552914254  0.007250615334935651  0.2982869919825477  1.0000
  S   S42       1.0  0.8733435722815157  0.9509708977754744  0.3059930594084939  1.0000
  Fe  Fe22      1.0  0.8873273403870773  0.03570281129147057  0.31481602905507033  1.0000
  S   S43       1.0  0.8531377914835578  0.05749760815815508  0.30571633549298444  1.0000
  S   S44       1.0  0.9223259163761848  0.048256438643738075  0.3300599051070219  1.0000
  Fe  Fe23      1.0  0.8379780547512143  0.031568091408540555  0.34713794411293686  1.0000
  S   S45       1.0  0.811728406888894  0.04590103363618181  0.39303483745724366  1.0000
  Fe  Fe24      1.0  0.8467160079449891  0.03178258120494326  0.2576800469691051  1.0000
  S   S46       1.0  0.8264375152075226  0.04290406558708959  0.20197765376241852  1.0000
  S   S47       1.0  0.8728118878861431  0.012208533991077575  0.3612827720825809  1.0000
  S   S48       1.0  0.8824191046656135  0.012080228992596531  0.26270628581369687  1.0000
  Fe  Fe25      1.0  0.992135620514166  0.8553109301658759  0.5000636942569736  1.0000
  S   S49       1.0  0.985227552038413  0.894165579928074  0.4956819139537617  1.0000
  S   S50       1.0  0.005430117645512045  0.8377663112497435  0.5575877610968132  1.0000
  Fe  Fe26      1.0  0.9825397747065885  0.8486703414670531  0.41183717813760573  1.0000
  S   S51       1.0  0.9748649168148297  0.88712793417044  0.39920108336848387  1.0000
  S   S52       1.0  0.9822223681258266  0.8230389944301991  0.36132633813905696  1.0000
  Fe  Fe27      1.0  0.006061636119440106  0.8911337311921728  0.4384316239414263  1.0000
  S   S53       1.0  0.031204721903562715  0.9185638466345553  0.42781213221155395  1.0000
  Fe  Fe28      1.0  0.9544697997035391  0.8870281625738088  0.45714827346443054  1.0000
  S   S54       1.0  0.9212738413032597  0.9106407448838132  0.46641626500863004  1.0000
  S   S55       1.0  0.015841400730018718  0.8527240243787919  0.4457930386238617  1.0000
  S   S56       1.0  0.9593096614187342  0.8480706573779062  0.4667534979654088  1.0000
  Fe  Fe29      1.0  0.6714831291800604  0.03103861725243151  0.5135338845097923  1.0000
  S   S57       1.0  0.6834351342219348  0.9929202532530264  0.5206132841513301  1.0000
  S   S58       1.0  0.6753529989534205  0.055327992432919526  0.5652520851996834  1.0000
  Fe  Fe30      1.0  0.6553819111610008  0.02587298103000002  0.42776695881871  1.0000
  S   S59       1.0  0.6658571203221776  0.9874377658014402  0.4272897652327068  1.0000
  S   S60       1.0  0.6366382461814935  0.042238956784039994  0.37384416118033537  1.0000
  Fe  Fe31      1.0  0.6497182766179845  0.9872456963100623  0.4889189471034053  1.0000
  S   S61       1.0  0.6258081294951576  0.9593278670715569  0.5054424783691825  1.0000
  Fe  Fe32      1.0  0.6986336868721907  0.9966481941375173  0.4585112078434268  1.0000
  S   S62       1.0  0.7336384862058842  0.9784843914565999  0.439792512924314  1.0000
  S   S63       1.0  0.6364242743305424  0.025119510347764384  0.4868365004509  1.0000
  S   S64       1.0  0.6894981202324484  0.035381968843829714  0.453944099150108  1.0000
  Fe  Fe33      1.0  0.36128211196754806  0.16633048063932948  0.3346658630836263  1.0000
  S   S65       1.0  0.3284651052457864  0.18430080401346127  0.3619149876693906  1.0000
  S   S66       1.0  0.3904779952246292  0.14878963481765325  0.3729390611512699  1.0000
  Fe  Fe34      1.0  0.3410131641565999  0.16857073846031745  0.2495916793938621  1.0000
  S   S67       1.0  0.3065442069642735  0.1866806301051966  0.2690873237145687  1.0000
  S   S68       1.0  0.3448553356011425  0.15605814047280392  0.1858446820943955  1.0000
  Fe  Fe35      1.0  0.3287438299284008  0.20792585448053125  0.307522812386099  1.0000
  S   S69       1.0  0.3203092402047585  0.24674933931252094  0.3122603677425294  1.0000
  Fe  Fe36      1.0  0.3092510084768506  0.16161165140784753  0.32126983519267716  1.0000
  S   S70       1.0  0.2798963369893503  0.14030771062312403  0.3393416109451525  1.0000
  S   S71       1.0  0.3634776732322193  0.19203040026662718  0.2833075250213718  1.0000
  S   S72       1.0  0.34184055235026384  0.141527856332381  0.2985893297023535  1.0000
  Fe  Fe37      1.0  0.2077971062100299  0.3135308699657554  0.3765998953068948  1.0000
  S   S73       1.0  0.23786734913744378  0.32900318775064  0.4065943913620647  1.0000
  S   S74       1.0  0.21314586150540699  0.2784088386752181  0.3468311949477479  1.0000
  Fe  Fe38      1.0  0.17234979976596573  0.352770368703863  0.40424892263619655  1.0000
  S   S75       1.0  0.1994506918051968  0.371227162385006  0.43724519698993636  1.0000
  S   S76       1.0  0.1354794273104355  0.37003381748779923  0.40432145113277884  1.0000
  Fe  Fe39      1.0  0.22158638052149204  0.3632473212229094  0.3822514625388029  1.0000
  S   S77       1.0  0.242720633229588  0.3883520833561684  0.34841922586418783  1.0000
  Fe  Fe40      1.0  0.2127479859313563  0.335268686635779  0.45824903071094064  1.0000
  S   S78       1.0  0.22473960103457338  0.3244244853471947  0.5205492021731352  1.0000
  S   S79       1.0  0.19349010579846285  0.3472323952023424  0.3475016404456445  1.0000
  S   S80       1.0  0.18359231432247447  0.31737023374209256  0.43022199673551725  1.0000
  Fe  Fe41      1.0  0.17151413728047643  0.5425386067314292  0.2259979859077124  1.0000
  S   S81       1.0  0.17432889943802812  0.5209014022268169  0.1700768315909902  1.0000
  S   S82       1.0  0.15322863199085288  0.578799835204667  0.22623685455452974  1.0000
  Fe  Fe42      1.0  0.19261346184206762  0.5030630248145302  0.2797901750607195  1.0000
  S   S83       1.0  0.197822114212452  0.477970276652264  0.22870480782466202  1.0000
  S   S84       1.0  0.19923090412950692  0.4932486549222689  0.34470315053727424  1.0000
  Fe  Fe43      1.0  0.21006142276389045  0.5085163841094611  0.194028937125542  1.0000
  S   S85       1.0  0.24270893739971758  0.5034695537367948  0.1561039643903884  1.0000
  Fe  Fe44      1.0  0.16200077271474253  0.49252322522795383  0.20956230679224297  1.0000
  S   S86       1.0  0.13511634034983386  0.46835970749325584  0.19305813658260965  1.0000
  S   S87       1.0  0.2083489853164209  0.5323687545236088  0.24729619521071494  1.0000
  S   S88       1.0  0.15550164251060625  0.5152470375766968  0.2633229029631027  1.0000
  Fe  Fe45      1.0  0.5096739739816828  0.1812484607457325  0.4355502396355032  1.0000
  S   S89       1.0  0.49883077208734866  0.1518711747878439  0.4743982407182026  1.0000
  S   S90       1.0  0.4848048754188127  0.19831291393546113  0.3891437804367629  1.0000
  Fe  Fe46      1.0  0.5554582207704846  0.18345228254420026  0.4809537130421173  1.0000
  S   S91       1.0  0.5480546515030864  0.15420985625848108  0.5231927399344511  1.0000
  S   S92       1.0  0.5894965479437633  0.19881891160280452  0.4929590857208691  1.0000
  Fe  Fe47      1.0  0.5362241518336719  0.13724336339077164  0.4674626607199115  1.0000
  S   S93       1.0  0.5446935106833358  0.09885097709443126  0.46016633699091924  1.0000
  Fe  Fe48      1.0  0.5116009671676589  0.17183496773402  0.5257171517569709  1.0000
  S   S94       1.0  0.48894669565925336  0.17118518381030154  0.5810894212988944  1.0000
  S   S95       1.0  0.5465006865701663  0.16496945405714528  0.4244341421425027  1.0000
  S   S96       1.0  0.519818467671658  0.2027222929756548  0.4878922787911744  1.0000
  Fe  Fe49      1.0  0.7073409539823434  0.1345095154377357  0.3169712169738984  1.0000
  S   S97       1.0  0.7099342700619754  0.17101463867716446  0.294062327216135  1.0000
  S   S98       1.0  0.7030387318970939  0.10467637373973293  0.2758549183845535  1.0000
  Fe  Fe50      1.0  0.7075503177241491  0.1481485769866501  0.40438677409283696  1.0000
  S   S99       1.0  0.7105622796180442  0.18594600279049134  0.3897215459834814  1.0000
  S   S100      1.0  0.7015267928231007  0.13545974052781096  0.46729268075795216  1.0000
  Fe  Fe51      1.0  0.6835808834593771  0.18117363473631434  0.34257529143146936  1.0000
  S   S101      1.0  0.6513557956742227  0.20603544470955504  0.33545894020444766  1.0000
  Fe  Fe52      1.0  0.7366921967945822  0.17230373531200774  0.34330932292565514  1.0000
  S   S102      1.0  0.7694392803221601  0.1906977819097858  0.33432308000799443  1.0000
  S   S103      1.0  0.6783726197170715  0.1445447784229079  0.3607489192732416  1.0000
  S   S104      1.0  0.736396568919308  0.13472946137577368  0.3623772678849148  1.0000
  Fe  Fe53      1.0  0.9178880090216771  0.16365394483432075  0.21787969353205364  1.0000
  S   S105      1.0  0.8994321779286042  0.14733417788065908  0.16750816492034232  1.0000
  S   S106      1.0  0.9461814869195927  0.14550964236868785  0.25641500692708513  1.0000
  Fe  Fe54      1.0  0.8897891385314115  0.21039121535451327  0.20842021750363793  1.0000
  S   S107      1.0  0.8680753232941819  0.19849375542238878  0.15757661880231885  1.0000
  S   S108      1.0  0.8871262659309131  0.2475234174765902  0.22945229380940219  1.0000
  Fe  Fe55      1.0  0.8668011329407461  0.16554736137656612  0.1941143711829242  1.0000
  S   S109      1.0  0.8351407970024045  0.14498698106661076  0.19859013107861137  1.0000
  Fe  Fe56      1.0  0.902296735787976  0.18125769785134763  0.13460364160163926  1.0000
  S   S110      1.0  0.9129233799530332  0.18040030652262284  0.06925623032668038  1.0000
  S   S111      1.0  0.8850271753310094  0.17909876907558883  0.24779038985811663  1.0000
  S   S112      1.0  0.9242824270086505  0.19595121952835814  0.18240265414731052  1.0000
  Fe  Fe57      1.0  0.984293737264535  0.2897091508949001  0.36014238621844774  1.0000
  S   S113      1.0  0.9671646754357122  0.3178162643066853  0.3994008849626918  1.0000
  S   S114      1.0  0.9692151495809925  0.25502014598963035  0.3538838291709961  1.0000
  Fe  Fe58      1.0  0.027399512714726404  0.3158649324497089  0.344551697232536  1.0000
  S   S115      1.0  0.014246583329700746  0.3459919313594969  0.38320697103117735  1.0000
  S   S116      1.0  0.06295910914657976  0.31214868768935755  0.3144908909883399  1.0000
  Fe  Fe59      1.0  0.003044001162356702  0.31884529219429486  0.42631350927840056  1.0000
  S   S117      1.0  0.01149508525907561  0.32357473104192186  0.4916762857732288  1.0000
  Fe  Fe60      1.0  0.9796401452535182  0.34263487209327265  0.3528738412670235  1.0000
  S   S118      1.0  0.9547583160606086  0.37390822915376304  0.33596028013045603  1.0000
  S   S119      1.0  0.019422130913754776  0.2888821774260389  0.3907168750097245  1.0000
  S   S120      1.0  0.9935150511093055  0.3143145456108026  0.3105013878800518  1.0000
  Fe  Fe61      1.0  0.9596460934098416  0.5289745839017745  0.21310820320158985  1.0000
  S   S121      1.0  0.9768148681078134  0.522078612706001  0.15293913661895328  1.0000
  S   S122      1.0  0.9300811538950251  0.5574858153987035  0.21405569555696355  1.0000
  Fe  Fe62      1.0  0.9887931666816206  0.48939674103388914  0.2544357969464549  1.0000
  S   S123      1.0  0.008120308504750318  0.47900574899389275  0.19765587973315119  1.0000
  S   S124      1.0  0.0010478946471619288  0.46916380217144665  0.30999332300060223  1.0000
  Fe  Fe63      1.0  0.010283527460187791  0.5173983303115711  0.18797446408736035  1.0000
  S   S125      1.0  0.041862512563970666  0.5332917864740887  0.16220852139876393  1.0000
  Fe  Fe64      1.0  0.9731137977920035  0.48449073744322485  0.16776334241757565  1.0000
  S   S126      1.0  0.9668321449275464  0.45815751375714736  0.12050273673724941  1.0000
  S   S127      1.0  0.9937076557425263  0.5276998406880655  0.24717249787757506  1.0000
  S   S128      1.0  0.9531133805529118  0.49134710134598036  0.22541393910767688  1.0000
  Fe  Fe65      1.0  0.1551448437717865  0.3264850743535823  0.7133919183962436  1.0000
  S   S129      1.0  0.1403467640589441  0.29834052715497017  0.7506459091851923  1.0000
  S   S130      1.0  0.1433026290403004  0.33516560405925466  0.6498505656993213  1.0000
  Fe  Fe66      1.0  0.18353809379643815  0.34333326597504776  0.7831012991220939  1.0000
  S   S131      1.0  0.17127306732703051  0.3168128230967394  0.8266357513065645  1.0000
  S   S132      1.0  0.20932928574566892  0.36809844758170435  0.8033808997642794  1.0000
  Fe  Fe67      1.0  0.1770647871533133  0.292042172503412  0.7750460643585682  1.0000
  S   S133      1.0  0.19675815499110913  0.25656316604679824  0.7792242127740356  1.0000
  Fe  Fe68      1.0  0.13578663324549672  0.3256560141454865  0.7986379917408509  1.0000
  S   S134      1.0  0.10219481340865984  0.3320693787169917  0.8341420604434399  1.0000
  S   S135      1.0  0.1924575657888236  0.31801280842588897  0.7336389440876807  1.0000
  S   S136      1.0  0.14755276275256715  0.3544096840313859  0.7594364494784177  1.0000
  Fe  Fe69      1.0  0.307189856628783  0.22771970138038014  0.0067641077937559135  1.0000
  S   S137      1.0  0.28437764691938366  0.19778380508588425  0.0063245139941219275  1.0000
  S   S138      1.0  0.3200847405633877  0.24057215883149183  0.06570644784133384  1.0000
  Fe  Fe70      1.0  0.30794989125751393  0.23212736637118078  0.915922559322941  1.0000
  S   S139      1.0  0.28629797626546144  0.20192835659510552  0.908008017317842  1.0000
  S   S140      1.0  0.31666219451632505  0.24910166480453474  0.8573295686801045  1.0000
  Fe  Fe71      1.0  0.26422716630030163  0.21813147139443648  0.9578840741362264  1.0000
  S   S141      1.0  0.22463687187568307  0.22233517588637097  0.9552294561066289  1.0000
  Fe  Fe72      1.0  0.3087253290781359  0.1845853088900577  0.9566208943262434  1.0000
  S   S142      1.0  0.3232346683990801  0.14743252075776708  0.9478329818372893  1.0000
  S   S143      1.0  0.28453619662873597  0.24969118264261442  0.9629332088244785  1.0000
  S   S144      1.0  0.3328377630088256  0.2132371077771433  0.9598830087481761  1.0000
  Fe  Fe73      1.0  0.45755055486694485  0.25730774058980127  0.7246310720928143  1.0000
  S   S145      1.0  0.46864529403315075  0.2765511849026532  0.7787863201747909  1.0000
  S   S146      1.0  0.4613192104150062  0.26860509360426194  0.6603034116551276  1.0000
  Fe  Fe74      1.0  0.44513448110373627  0.21539774064723358  0.7721207399931397  1.0000
  S   S147      1.0  0.4549918491088034  0.22987579089324853  0.8313901975102179  1.0000
  S   S148      1.0  0.4310101571845341  0.1806843062802272  0.7638107701160232  1.0000
  Fe  Fe75      1.0  0.4368680597890045  0.2635350683992964  0.8084989923457098  1.0000
  S   S149      1.0  0.41788871125147575  0.2844940481981124  0.8570285528556045  1.0000
  Fe  Fe76      1.0  0.4861324229089694  0.24191629071219634  0.7982869801770267  1.0000
  S   S150      1.0  0.5220923891171957  0.23956154354816797  0.8254589006253609  1.0000
  S   S151      1.0  0.4235694943496167  0.24781772215682069  0.7520276004946753  1.0000
  S   S152      1.0  0.47840448871735275  0.22371780606052968  0.7413755234884339  1.0000
  Fe  Fe77      1.0  0.18775533034272737  0.4953133859985635  0.949293106165042  1.0000
  S   S153      1.0  0.17966938241231004  0.5141045452480737  0.8907160202661745  1.0000
  S   S154      1.0  0.22521306278241102  0.4900619422554582  0.9705079816686603  1.0000
  Fe  Fe78      1.0  0.13732912428973892  0.48429128974712343  0.9628382031430015  1.0000
  S   S155      1.0  0.12476773688093115  0.5023501503289303  0.9057001521549889  1.0000
  S   S156      1.0  0.1152146095044951  0.46414786887691517  0.004691368901113435  1.0000
  Fe  Fe79      1.0  0.15745795895665118  0.4846965543934855  0.8781035967799132  1.0000
  S   S157      1.0  0.1543179504353757  0.46771238382316127  0.8179376070453367  1.0000
  Fe  Fe80      1.0  0.14795606750000906  0.530034989705673  0.9237966596429893  1.0000
  S   S158      1.0  0.13660896674455286  0.5680928993055586  0.914526840452188  1.0000
  S   S159      1.0  0.16828122682180885  0.46433071735139336  0.9338570600085621  1.0000
  S   S160      1.0  0.1577483196209711  0.5135221149917666  0.9837357299481243  1.0000
  Fe  Fe81      1.0  0.17052092882863087  0.8539833166785582  0.7835201213340786  1.0000
  S   S161      1.0  0.15584405981747793  0.8908180204806757  0.7709220156611927  1.0000
  S   S162      1.0  0.17651947417060124  0.8283454291321598  0.733112972226333  1.0000
  Fe  Fe82      1.0  0.17398813865387242  0.8616841256931952  0.8734697789912469  1.0000
  S   S163      1.0  0.15904539619511732  0.8989237195093014  0.8687558801381523  1.0000
  S   S164      1.0  0.18229375237916665  0.8470868038650291  0.9352266827061173  1.0000
  Fe  Fe83      1.0  0.1334428139005039  0.8853858182658022  0.8253970656563655  1.0000
  S   S165      1.0  0.09472449008091412  0.8967564296810031  0.8262719356559415  1.0000
  Fe  Fe84      1.0  0.18287877560865207  0.9006689834473028  0.8149809832982254  1.0000
  S   S166      1.0  0.20699844832513523  0.9289668415502188  0.802764336793553  1.0000
  S   S167      1.0  0.14630124641299808  0.8477823452546823  0.8351134469549827  1.0000
  S   S168      1.0  0.1998274237435627  0.8641928052013832  0.8228352642382639  1.0000
  Fe  Fe85      1.0  0.23942631414340226  0.005903772021206732  0.9740530387796583  1.0000
  S   S169      1.0  0.27478570533156244  0.9855845350792727  0.968466119879814  1.0000
  S   S170      1.0  0.2051025081184218  0.9922114867928723  0.9568133369192182  1.0000
  Fe  Fe86      1.0  0.25972584854027897  0.047545501346155206  0.012145352128968279  1.0000
  S   S171      1.0  0.2966273365215269  0.030938038937132317  0.009623385786593497  1.0000
  S   S172      1.0  0.25527910183380476  0.0834477016679831  0.03835133797666357  1.0000
  Fe  Fe87      1.0  0.2869585609212476  0.0199745285938413  0.9478278974821109  1.0000
  S   S173      1.0  0.31042178824263555  0.026799313031840244  0.8952566697997169  1.0000
  Fe  Fe88      1.0  0.28083393215832464  0.9986596485903015  0.031028450905789207  1.0000
  S   S174      1.0  0.2992946756416319  0.9769463181493182  0.08016094552858899  1.0000
  S   S175      1.0  0.25106460764393496  0.0393306825976214  0.9483752287704272  1.0000
  S   S176      1.0  0.24437312409889017  0.016105964814475904  0.03841084933576311  1.0000
  Fe  Fe89      1.0  0.16073264729817158  0.7168846862979726  0.02111505967711702  1.0000
  S   S177      1.0  0.19917043887672858  0.7045625066927604  0.017857563036274504  1.0000
  S   S178      1.0  0.13976690788500384  0.7294205264594839  0.07527720927081316  1.0000
  Fe  Fe90      1.0  0.15066741750390325  0.7019171289861311  0.936058420614162  1.0000
  S   S179      1.0  0.18796359533347448  0.6879487076282682  0.924362237616901  1.0000
  S   S180      1.0  0.11998129185547116  0.7007289489090965  0.8941553880941366  1.0000
  Fe  Fe91      1.0  0.18690440821521093  0.6731060855616595  0.9872741507016806  1.0000
  S   S181      1.0  0.19814336420792847  0.6362803718746673  0.007093710031108813  1.0000
  Fe  Fe92      1.0  0.19713221583780563  0.7205110834544831  0.9554413127881949  1.0000
  S   S182      1.0  0.2233868527619954  0.7420495460316894  0.9256046039005792  1.0000
  S   S183      1.0  0.14871029600003485  0.6839921070938432  0.9959761885802737  1.0000
  S   S184      1.0  0.15978431694335837  0.7358436823856599  0.9616317629845603  1.0000
  Fe  Fe93      1.0  0.439495092191627  0.04593595711313614  0.8008019387743408  1.0000
  S   S185      1.0  0.4435900125601388  0.01190912050534898  0.8349751595964373  1.0000
  S   S186      1.0  0.4187413289749873  0.053481477798659416  0.7441247042487705  1.0000
  Fe  Fe94      1.0  0.472357907776744  0.06925068363512521  0.855565908130892  1.0000
  S   S187      1.0  0.47944019200106786  0.037626123260951605  0.895260084023356  1.0000
  S   S188      1.0  0.49042996494493946  0.10207702670510388  0.8622892860515234  1.0000
  Fe  Fe95      1.0  0.48195793304446355  0.01795498109194127  0.8371335635360682  1.0000
  S   S189      1.0  0.5112860318168104  0.9918080641771613  0.8177938892855894  1.0000
  Fe  Fe96      1.0  0.4404381060723695  0.03450852182997499  0.8898916916916227  1.0000
  S   S190      1.0  0.4177659145643386  0.0244895258641995  0.9419282554356931  1.0000
  S   S191      1.0  0.47808112672076913  0.04992968136446052  0.7978851931342775  1.0000
  S   S192      1.0  0.4331224295503689  0.06815497973330165  0.8555387909997519  1.0000
  Fe  Fe97      1.0  0.6650089285875548  0.049483447363132926  0.8244272645313874  1.0000
  S   S193      1.0  0.667685992179831  0.02678037400780009  0.8796374244734703  1.0000
  S   S194      1.0  0.6753228635160328  0.08616545501974593  0.824774053778529  1.0000
  Fe  Fe98      1.0  0.6465181880065777  0.012620881064561162  0.7726582348833833  1.0000
  S   S195      1.0  0.6479835508851922  0.98576438734143  0.8224836397064468  1.0000
  S   S196      1.0  0.6301831301385942  0.0056897384725305145  0.7128686257792586  1.0000
  Fe  Fe99      1.0  0.6329634708595449  0.015244814058065437  0.8607983086986634  1.0000
  S   S197      1.0  0.6052661080614135  0.010556627228408777  0.9075048600710961  1.0000
  Fe  Fe100     1.0  0.6827264994338492  0.9990777354591989  0.8375861063703955  1.0000
  S   S198      1.0  0.7134041092798367  0.9749830005787488  0.858452055912077  1.0000
  S   S199      1.0  0.6283209258811412  0.04108477588860193  0.809919724886292  1.0000
  S   S200      1.0  0.6831961575750644  0.022797835893146212  0.7836551514840597  1.0000
  Fe  Fe101     1.0  0.9482792994389644  0.8406186265794442  0.7594506787391614  1.0000
  S   S201      1.0  0.978474509228513  0.8606728776481862  0.7777244053440219  1.0000
  S   S202      1.0  0.9312855181762196  0.8490560570256341  0.6996614354922833  1.0000
  Fe  Fe102     1.0  0.9471419041457158  0.8142764535697251  0.8389812606114772  1.0000
  S   S203      1.0  0.9773032116357817  0.8319957853552742  0.8640523094462786  1.0000
  S   S204      1.0  0.9285571970916823  0.7918496063351499  0.882519216023203  1.0000
  Fe  Fe103     1.0  0.959436400971555  0.8646640059253657  0.8368459197780425  1.0000
  S   S205      1.0  0.9573589988230051  0.897455786887845  0.8734429768213211  1.0000
  Fe  Fe104     1.0  0.993416546511962  0.8262312861928603  0.8029679461748208  1.0000
  S   S206      1.0  0.03151133461491029  0.8138128014789227  0.7948941986328006  1.0000
  S   S207      1.0  0.9278226811262128  0.8475142279047267  0.8166291291303336  1.0000
  S   S208      1.0  0.9647609507334062  0.8054935724206969  0.7797550314207647  1.0000
  Fe  Fe105     1.0  0.8689770732396291  0.007624336001599286  0.9951100076155254  1.0000
  S   S209      1.0  0.8878147276094067  0.983972991427898  0.9499247919930759  1.0000
  S   S210      1.0  0.8891183261763981  0.017475416744984873  0.049519542452460596  1.0000
  Fe  Fe106     1.0  0.8241188454339634  0.012825766810593997  0.9469665676751314  1.0000
  S   S211      1.0  0.8386894710879005  0.989271482271067  0.8979470723577012  1.0000
  S   S212      1.0  0.7890147226280187  0.033273206604451655  0.9397796289569663  1.0000
  Fe  Fe107     1.0  0.8541286748861618  0.9666735659459266  0.9482472816805353  1.0000
  S   S213      1.0  0.8560305983913046  0.92768085646465  0.9424701657642732  1.0000
  Fe  Fe108     1.0  0.8709476628821267  0.008504609991544454  0.9035675524058051  1.0000
  S   S214      1.0  0.8897387195534987  0.01554753772405526  0.8457099924684577  1.0000
  S   S215      1.0  0.8363238480702768  0.9882837273190418  0.997484031684581  1.0000
  S   S216      1.0  0.8553007733515009  0.034058566402175305  0.9488034483464003  1.0000
  Fe  Fe109     1.0  0.9606211264098776  0.6746504323651892  0.03586939386427179  1.0000
  S   S217      1.0  0.9576899253024937  0.6476115889160133  0.9884022233201942  1.0000
  S   S218      1.0  0.936244945200053  0.6783200864590838  0.0888818796879125  1.0000
  Fe  Fe110     1.0  0.006509558736520482  0.6900826452473666  0.002789833069770653  1.0000
  S   S219      1.0  0.0080391245114253  0.6640988359874846  0.9528848666439432  1.0000
  S   S220      1.0  0.03370042543696017  0.7153259993569541  0.013201962676425483  1.0000
  Fe  Fe111     1.0  0.9695281540776699  0.6752699138953135  0.9462563784741019  1.0000
  S   S221      1.0  0.9563902613007088  0.6832145159577686  0.883486055727797  1.0000
  Fe  Fe112     1.0  0.9962355807542249  0.6391490503014453  0.9995804123144935  1.0000
  S   S222      1.0  0.011968746836833688  0.6025446612574514  0.01012456502578818  1.0000
  S   S223      1.0  0.9689204367671217  0.7032754057387038  0.9929870908923405  1.0000
  S   S224      1.0  0.998402806055895  0.6639990302850576  0.050327302169137056  1.0000
  Fe  Fe113     1.0  0.6221235817254182  0.22610505045697166  0.682790350835213  1.0000
  S   S225      1.0  0.6279715876698129  0.20269578227852347  0.6295807851284261  1.0000
  S   S226      1.0  0.5898171757832594  0.25115035464249047  0.677697717094636  1.0000
  Fe  Fe114     1.0  0.6683703651984336  0.20800275562481954  0.7216803066889288  1.0000
  S   S227      1.0  0.6786137519584914  0.18398412230414266  0.6706801741539975  1.0000
  S   S228      1.0  0.6925784876718531  0.21075224480118993  0.7742946221626593  1.0000
  Fe  Fe115     1.0  0.6646288855714196  0.21376681443403353  0.6312265450318622  1.0000
  S   S229      1.0  0.6826506439840604  0.224602264966776  0.5750575642745819  1.0000
  Fe  Fe116     1.0  0.6410636529556193  0.17542757995010727  0.6743337036703152  1.0000
  S   S230      1.0  0.632373202415016  0.13834766158349807  0.6700067759466792  1.0000
  S   S231      1.0  0.6580791752703369  0.23897617699736765  0.6816218195387689  1.0000
  S   S232      1.0  0.6314076843803773  0.197501502962355  0.7281761760392094  1.0000
  Fe  Fe117     1.0  0.9403840111220324  0.31980684254130165  0.675496510081775  1.0000
  S   S233      1.0  0.9714997678251978  0.29603490925768794  0.694551113898094  1.0000
  S   S234      1.0  0.9266835530448032  0.3146215871388402  0.6132123892733155  1.0000
  Fe  Fe118     1.0  0.9377206138120523  0.3448734890724375  0.7554466437253661  1.0000
  S   S235      1.0  0.9689472627365221  0.3231775285986923  0.7813526933867332  1.0000
  S   S236      1.0  0.9185209770135658  0.37152971257466033  0.7953318821546705  1.0000
  Fe  Fe119     1.0  0.9848729751514919  0.32812553412186635  0.7203161748874799  1.0000
  S   S237      1.0  0.021617828323672983  0.3356589167509749  0.7041897032017147  1.0000
  Fe  Fe120     1.0  0.9525422844330625  0.29315254676569075  0.7533096235318647  1.0000
  S   S238      1.0  0.9533056412211997  0.25694290151568777  0.7800368550845769  1.0000
  S   S239      1.0  0.9552085996354036  0.35238948749615495  0.6965442968471982  1.0000
  S   S240      1.0  0.9199404573197311  0.31435043300322196  0.732178723075854  1.0000
  Fe  Fe121     1.0  0.8379366251776373  0.15757631893510782  0.8917142451506881  1.0000
  S   S241      1.0  0.8704320903165071  0.17064286154078673  0.8642777601786445  1.0000
  S   S242      1.0  0.8303156268699388  0.15356384748105467  0.957688643119659  1.0000
  Fe  Fe122     1.0  0.8137198966229013  0.15330983830476275  0.8109238719446323  1.0000
  S   S243      1.0  0.8439264138831888  0.1662330960456832  0.7759210175824816  1.0000
  S   S244      1.0  0.7823810060371936  0.13840754403546213  0.7826075443530491  1.0000
  Fe  Fe123     1.0  0.8665809304075293  0.14319964462524454  0.8178724521364442  1.0000
  S   S245      1.0  0.8968611135692778  0.12048924624451143  0.7927217527173566  1.0000
  Fe  Fe124     1.0  0.8452080584946937  0.19262493914298548  0.8250566066602251  1.0000
  S   S246      1.0  0.849611560175292  0.2308234360578849  0.8153442879685473  1.0000
  S   S247      1.0  0.836357738871772  0.12805545138749305  0.848900635344834  1.0000
  S   S248      1.0  0.8127879120978464  0.18190468398893017  0.8565887132614162  1.0000
  Fe  Fe125     1.0  0.003877037759269175  0.5140836009294446  0.8591007260713809  1.0000
  S   S249      1.0  0.002714929839600977  0.497992607517767  0.9207674139030528  1.0000
  S   S250      1.0  0.022177883662065634  0.5465967958228632  0.8481730828982404  1.0000
  Fe  Fe126     1.0  0.9705667933054287  0.48106752124242297  0.8244207254442188  1.0000
  S   S251      1.0  0.9663301026709908  0.46243068162527795  0.8835770163742835  1.0000
  S   S252      1.0  0.9535374138958249  0.4711097838645603  0.7669247843202653  1.0000
  Fe  Fe127     1.0  0.9640644653367872  0.4983091988528059  0.9099190982660904  1.0000
  S   S253      1.0  0.940209045278991  0.5128528279325362  0.9590223199208201  1.0000
  Fe  Fe128     1.0  0.005408287957921143  0.463907168467239  0.8882422668370621  1.0000
  S   S254      1.0  0.028123629004872308  0.432320809386518  0.9096782237886891  1.0000
  S   S255      1.0  0.9648382426238349  0.5168874546674663  0.8503240394130072  1.0000
  S   S256      1.0  0.010058685413220747  0.4799075111509032  0.8270872647032386  1.0000
  C   C1        1.0  0.9242931475577472  0.40053295312888054  0.7848787142723312  1.0000
  C   C2        1.0  0.9328344356935809  0.40694097818865965  0.7470901801544351  1.0000
  C   C3        1.0  0.9404752798865889  0.4292754254325826  0.7409071652019119  1.0000
  C   C4        1.0  0.9395342965637277  0.4452548459958387  0.7725181698183592  1.0000
  C   C5        1.0  0.9294552460241302  0.4394432631254594  0.8094396119360335  1.0000
  C   C6        1.0  0.921866124038571  0.4170677907481402  0.8156393285160326  1.0000
  H   H1        1.0  0.9337456263239291  0.39468091548047685  0.7227019270771049  1.0000
  H   H2        1.0  0.9478718020713793  0.43388632504736796  0.7120709153617785  1.0000
  H   H3        1.0  0.9278709431506329  0.4520397307545089  0.8334518126582579  1.0000
  H   H4        1.0  0.9148386184018115  0.4123434356044373  0.844705463595751  1.0000
  C   C7        1.0  0.9248795588436156  0.24949165223004086  0.792751067380021  1.0000
  C   C8        1.0  0.9066275703181313  0.26698526437599235  0.7989082423624128  1.0000
  C   C9        1.0  0.883586122691659  0.2610550545514403  0.8058658067136065  1.0000
  C   C10       1.0  0.8787030431010048  0.23758653774827587  0.8070725313108639  1.0000
  C   C11       1.0  0.8969906433683158  0.21999844878361755  0.8016347730031663  1.0000
  C   C12       1.0  0.9200856702818581  0.22596682506431057  0.7945621421343935  1.0000
  H   H5        1.0  0.9102809531301337  0.2851306862843438  0.7987969421840081  1.0000
  H   H6        1.0  0.8695205033466266  0.2747103781879114  0.8103641025844829  1.0000
  H   H7        1.0  0.8933253459777938  0.20181555520058542  0.8022695088229994  1.0000
  H   H8        1.0  0.9341338017404552  0.21234518360178153  0.789714773417847  1.0000
  C   C13       1.0  0.71804906739859  0.19127132180306577  0.7721801886678445  1.0000
  C   C14       1.0  0.7390243580660162  0.19787891239476219  0.788638061773513  1.0000
  C   C15       1.0  0.759228986606116  0.18211545535691287  0.7896223360355307  1.0000
  C   C16       1.0  0.7583609730742205  0.159390096641027  0.7754073100193232  1.0000
  C   C17       1.0  0.7374796123543389  0.15283036973955902  0.7582837945179107  1.0000
  C   C18       1.0  0.7173620540084465  0.1687900638153857  0.7565007565398861  1.0000
  H   H9        1.0  0.7396513372092856  0.2152760549693113  0.8006082376334609  1.0000
  H   H10       1.0  0.7753078527489857  0.18751668037460936  0.8020718736254626  1.0000
  H   H11       1.0  0.736691529898576  0.13527518661300975  0.7472027589497353  1.0000
  H   H12       1.0  0.7011081930928191  0.1634346937014735  0.744432080152154  1.0000
  C   C19       1.0  0.016538502016649748  0.5875837676171032  0.9647771585948521  1.0000
  C   C20       1.0  0.025324789997317243  0.5640976922207847  0.965511426801046  1.0000
  C   C21       1.0  0.02776983935861721  0.5515725628996762  0.929498357381472  1.0000
  C   C22       1.0  0.021745769890959554  0.5626410289623927  0.8927109294920607  1.0000
  C   C23       1.0  0.014043857773552215  0.5864313335860918  0.8918331586153735  1.0000
  C   C24       1.0  0.011040082850003685  0.5988160228745096  0.92793122549223  1.0000
  H   H13       1.0  0.03002313659693967  0.5555640417918197  0.9939377971185067  1.0000
  H   H14       1.0  0.03459686340640267  0.5334221638794455  0.9300652176101724  1.0000
  H   H15       1.0  0.009553393078405747  0.5950191247716873  0.8633076693203371  1.0000
  H   H16       1.0  0.004035408781126737  0.6168870071185916  0.927179150378717  1.0000
  C   C25       1.0  0.8926398610724823  0.04486653620147685  0.8329615520438093  1.0000
  C   C26       1.0  0.9027134546744578  0.050057351918147745  0.7957323233184654  1.0000
  C   C27       1.0  0.9045572464596329  0.0733398619359995  0.7840104277833829  1.0000
  C   C28       1.0  0.8960864166596108  0.09150941747910585  0.8092908106602206  1.0000
  C   C29       1.0  0.8864638477016903  0.08634702235631231  0.8469556508288563  1.0000
  C   C30       1.0  0.8847939579975326  0.06300358571741249  0.8588401548783073  1.0000
  H   H17       1.0  0.9088580924576519  0.03609184979442027  0.7756542043298035  1.0000
  H   H18       1.0  0.9120773804247937  0.07731354417463865  0.7549493308197675  1.0000
  H   H19       1.0  0.8806057198206149  0.10034562381833655  0.8671158654401182  1.0000
  H   H20       1.0  0.8775088283740435  0.05915363290332087  0.8879601787776579  1.0000
  C   C31       1.0  0.9343229364726099  0.7613949985487483  0.8797572100009564  1.0000
  C   C32       1.0  0.9283832288263302  0.7477390294443937  0.9128734197093773  1.0000
  C   C33       1.0  0.9342494382029208  0.7235538667247312  0.9131625556557305  1.0000
  C   C34       1.0  0.9460049207478389  0.7128541052989159  0.8802808835573026  1.0000
  C   C35       1.0  0.9510462455019252  0.7263354902262941  0.8462800396640491  1.0000
  C   C36       1.0  0.9453080213585559  0.7506661249610385  0.8460923493786918  1.0000
  H   H21       1.0  0.9196405588405883  0.7558914408884989  0.9387890723882159  1.0000
  H   H22       1.0  0.9296736437861247  0.7131464207964332  0.9389532328444896  1.0000
  H   H23       1.0  0.9600046556289628  0.7180740800217261  0.8206475356309114  1.0000
  H   H24       1.0  0.9495068412042261  0.761061990254986  0.820067171434927  1.0000
  C   C37       1.0  0.9290772521284748  0.9049250727037891  0.892885775311255  1.0000
  C   C38       1.0  0.9090003939917075  0.9010922741043822  0.8705508654204169  1.0000
  C   C39       1.0  0.8865046007397205  0.9079926824552549  0.8858870699979823  1.0000
  C   C40       1.0  0.8840867454135951  0.91892565089704  0.9233769798227138  1.0000
  C   C41       1.0  0.9041498704201262  0.9229882113682579  0.9454718898426746  1.0000
  C   C42       1.0  0.9266111198645579  0.9159486090851799  0.9302870686258686  1.0000
  H   H25       1.0  0.9107955789282568  0.8935148569353163  0.8409102364395037  1.0000
  H   H26       1.0  0.8709982023432149  0.905344958161528  0.8683223851421721  1.0000
  H   H27       1.0  0.9023260182490827  0.9314483093287457  0.9744515395560578  1.0000
  H   H28       1.0  0.942080010262845  0.9189526365126074  0.9476735041481474  1.0000
  C   C43       1.0  0.6643244553410904  0.10027615246305088  0.7807436884157852  1.0000
  C   C44       1.0  0.6659274238235435  0.12426896580302584  0.7755761865317257  1.0000
  C   C45       1.0  0.6564260146908493  0.13577641862705836  0.7411853722756276  1.0000
  C   C46       1.0  0.6449391130602836  0.1234741971472806  0.7121185995124221  1.0000
  C   C47       1.0  0.6437764427117092  0.09936755707922391  0.7167296767716217  1.0000
  C   C48       1.0  0.6535896979392345  0.08775623014114788  0.7509636363328195  1.0000
  H   H29       1.0  0.6741344799374733  0.13415581861122688  0.7982892963490799  1.0000
  H   H30       1.0  0.6578662115969172  0.15426191984787635  0.737536679734336  1.0000
  H   H31       1.0  0.6353209410488504  0.08966581893725074  0.6939246885374047  1.0000
  H   H32       1.0  0.6527886185611599  0.0691306865096879  0.7541864589692959  1.0000
  C   C49       1.0  0.7351701024990147  0.9911632383389786  0.8789147016282444  1.0000
  C   C50       1.0  0.7320798681235364  0.015603984594624087  0.8791103627438921  1.0000
  C   C51       1.0  0.748621668973436  0.028438998939135374  0.8981159394565273  1.0000
  C   C52       1.0  0.7686012698313588  0.016894570949356202  0.9161064119147847  1.0000
  C   C53       1.0  0.772091144391034  0.9924939772336215  0.9149574478807994  1.0000
  C   C54       1.0  0.755266229170883  0.9796186574106157  0.8966276630440261  1.0000
  H   H33       1.0  0.7169679540105265  0.024681057452699884  0.8646062982848425  1.0000
  H   H34       1.0  0.7459655899869023  0.04731227539959626  0.8987321314312664  1.0000
  H   H35       1.0  0.7875216712523718  0.9834997539847559  0.9288447472589431  1.0000
  H   H36       1.0  0.757791927710305  0.9607239992065288  0.8963441932302861  1.0000
  C   C55       1.0  0.5374133164063073  0.9957689074426138  0.8436882135177856  1.0000
  C   C56       1.0  0.5368399405455141  0.002371764441372548  0.8842023668403228  1.0000
  C   C57       1.0  0.5578045735479772  0.00628264180647542  0.9041627817057951  1.0000
  C   C58       1.0  0.5793127068070746  0.003970124394859775  0.8834237831296675  1.0000
  C   C59       1.0  0.5798537486477422  0.9975715249657744  0.842810998368372  1.0000
  C   C60       1.0  0.5589882507380998  0.9931231084864822  0.8231583271012965  1.0000
  H   H37       1.0  0.5203035854570162  0.004000880823313846  0.9004437624148363  1.0000
  H   H38       1.0  0.5572870354165398  0.011308393720595555  0.9355398233055171  1.0000
  H   H39       1.0  0.5963431344941981  0.995959216425217  0.8264457017623936  1.0000
  H   H40       1.0  0.5595854490110789  0.9880586640713157  0.791847575469038  1.0000
  C   C61       1.0  0.09511389885953676  0.7068517521767345  0.9246566288943302  1.0000
  C   C62       1.0  0.07298405283882481  0.700608650805434  0.9127981474611258  1.0000
  C   C63       1.0  0.05387860564492297  0.7031615972001377  0.9398048069047897  1.0000
  C   C64       1.0  0.056868494816116666  0.7123802810807078  0.9782320762351343  1.0000
  C   C65       1.0  0.07866360483676704  0.7197317293906388  0.9889415571978007  1.0000
  C   C66       1.0  0.09771805694079383  0.7168235537399098  0.9624025197219591  1.0000
  H   H41       1.0  0.07080788756422307  0.6933694791652234  0.8832036808044531  1.0000
  H   H42       1.0  0.03689389859164627  0.6983005367186772  0.9306193800691479  1.0000
  H   H43       1.0  0.08118316914025314  0.7271573659500346  0.01814922169793909  1.0000
  H   H44       1.0  0.11449418248037481  0.7221646520516136  0.9716623496682978  1.0000
  C   C67       1.0  0.3397766148583559  0.02710053521532041  0.9101798094682962  1.0000
  C   C68       1.0  0.3487385478765585  0.012916890855387608  0.9420582097939578  1.0000
  C   C69       1.0  0.3727880983337378  0.012065292441511666  0.9515741542559819  1.0000
  C   C70       1.0  0.3878550370076672  0.02537554753870941  0.9292524723607256  1.0000
  C   C71       1.0  0.3787555247522147  0.03977556380888392  0.897727530579999  1.0000
  C   C72       1.0  0.35467525767410496  0.04086562900494539  0.8885852192606065  1.0000
  H   H45       1.0  0.33726536668553264  0.00216373721379437  0.9587504431931383  1.0000
  H   H46       1.0  0.3797728516230566  0.0008506357182187507  0.9759504454887448  1.0000
  H   H47       1.0  0.3901444180757052  0.050398775827655395  0.8808385087837612  1.0000
  H   H48       1.0  0.3475587287515932  0.052310480436093654  0.8646341203226282  1.0000
  C   C73       1.0  0.07750845312755184  0.8732626116350528  0.8190480263139139  1.0000
  C   C74       1.0  0.05374657867097678  0.8753062478363999  0.8306059145137926  1.0000
  C   C75       1.0  0.03964541608529615  0.8568490685128112  0.8240377307347075  1.0000
  C   C76       1.0  0.049327116720276676  0.8362821489252149  0.8060174317340391  1.0000
  C   C77       1.0  0.07309728147513561  0.8341703539413202  0.7946121256503847  1.0000
  C   C78       1.0  0.08707283663743097  0.8527670779141732  0.8005905375903394  1.0000
  H   H49       1.0  0.04625767901894017  0.891177764339155  0.8446912897681067  1.0000
  H   H50       1.0  0.021314718309936476  0.8585914343728074  0.8330253381288688  1.0000
  H   H51       1.0  0.08054427716592327  0.818409501655397  0.7801565998221365  1.0000
  H   H52       1.0  0.10503960967215972  0.8514797792342053  0.7898781426430811  1.0000
  C   C79       1.0  0.19577013308347127  0.8185102907407329  0.9342674727964292  1.0000
  C   C80       1.0  0.20993298520063902  0.8108695876890739  0.9016292078234451  1.0000
  C   C81       1.0  0.21986180068400776  0.7876583533924876  0.9005576171251951  1.0000
  C   C82       1.0  0.21477400932154075  0.7718497863378614  0.9311872845609644  1.0000
  C   C83       1.0  0.20100546037615205  0.77962288877484  0.9642196562040783  1.0000
  C   C84       1.0  0.19178506475964216  0.803036847316768  0.9660138141222728  1.0000
  H   H53       1.0  0.21332330527400722  0.8228228338337714  0.8772990990781767  1.0000
  H   H54       1.0  0.23072185475979018  0.7817027815013456  0.8752109120577061  1.0000
  H   H55       1.0  0.19727709935599952  0.7675372369934483  0.9882236382286473  1.0000
  H   H56       1.0  0.1809267819850981  0.8089376891698788  0.9914029737022925  1.0000
  C   C85       1.0  0.20514250128698253  0.9776528603546366  0.910589681316989  1.0000
  C   C86       1.0  0.18470039042853403  0.9677704082691841  0.8986356897291327  1.0000
  C   C87       1.0  0.1849985171304106  0.9535667331878956  0.8645315332648993  1.0000
  C   C88       1.0  0.2057292586094212  0.9492245055567344  0.8421569017170812  1.0000
  C   C89       1.0  0.2259531751325482  0.9599256741452322  0.8530300452883787  1.0000
  C   C90       1.0  0.2256934267459379  0.9740983510225026  0.88734690114056  1.0000
  H   H57       1.0  0.16871526631302391  0.9706961391464763  0.9163155032883169  1.0000
  H   H58       1.0  0.16911752172910546  0.9460562004656323  0.8555095209357074  1.0000
  H   H59       1.0  0.24201713074707906  0.9566815006299613  0.8357011037342432  1.0000
  H   H60       1.0  0.24150038638431798  0.9818209012787181  0.8963168730022655  1.0000
  C   C91       1.0  0.09047543577859186  0.4557975065580581  0.9792552796536984  1.0000
  C   C92       1.0  0.08226734507638866  0.43395336712108057  0.9874280041177819  1.0000
  C   C93       1.0  0.06319704962955175  0.42664625377951704  0.9656812206072093  1.0000
  C   C94       1.0  0.052023409211809035  0.44140729368474046  0.9364257425469745  1.0000
  C   C95       1.0  0.059954764109855896  0.4634079808619087  0.9287871079569946  1.0000
  C   C96       1.0  0.07912224025984682  0.47061883718926245  0.9503049365454787  1.0000
  H   H61       1.0  0.09088953257288979  0.42252094609511476  0.01006224326453542  1.0000
  H   H62       1.0  0.056944919736046984  0.40967741925684514  0.9718115559091934  1.0000
  H   H63       1.0  0.0514573539158083  0.4748519674294805  0.9060383896303982  1.0000
  H   H64       1.0  0.08482948946864077  0.48781847926323485  0.9448233462962662  1.0000
  C   C97       1.0  0.15375116149623724  0.5867090807143659  0.9407966585072001  1.0000
  C   C98       1.0  0.15771472094954936  0.6084164306723676  0.9237847948158754  1.0000
  C   C99       1.0  0.17091760252455293  0.6238425671936141  0.9445874649192852  1.0000
  C   C100      1.0  0.18060397969506953  0.6174227112017326  0.9821593843349329  1.0000
  C   C101      1.0  0.17672671547236551  0.5956614771171923  0.9992554162270975  1.0000
  C   C102      1.0  0.16316517693581856  0.5803500590401799  0.9786575945528388  1.0000
  H   H65       1.0  0.15081173392277566  0.613224409171298  0.8942062209440917  1.0000
  H   H66       1.0  0.1739813775301372  0.6405159561059117  0.9310621390251222  1.0000
  H   H67       1.0  0.18396004295788893  0.5907611904423488  0.02857702907772075  1.0000
  H   H68       1.0  0.15978055890608966  0.5637926432469099  0.9922713329955574  1.0000
  C   C103      1.0  0.44914384122394113  0.1587714075323741  0.7881261752507975  1.0000
  C   C104      1.0  0.46798937590611367  0.16444776186985582  0.8120371362474764  1.0000
  C   C105      1.0  0.4810458824882654  0.1469374781661157  0.8343169070210558  1.0000
  C   C106      1.0  0.4754187473064366  0.12374514706056261  0.8322164186602973  1.0000
  C   C107      1.0  0.4573405200596121  0.11798675932178515  0.8067049625447337  1.0000
  C   C108      1.0  0.444040941862365  0.13550341263268412  0.7850366759982865  1.0000
  H   H69       1.0  0.47228985976381166  0.1823378706373776  0.8139969014904322  1.0000
  H   H70       1.0  0.49515705155203105  0.15144123679445554  0.8537320742858511  1.0000
  H   H71       1.0  0.4533842291492532  0.10006421826628165  0.8038027786669649  1.0000
  H   H72       1.0  0.4296357906602427  0.13100990176764818  0.7662549328385623  1.0000
  C   C109      1.0  0.5417906904063604  0.24528459188885343  0.7866121489698328  1.0000
  C   C110      1.0  0.5335696939220739  0.25738079175162  0.7518840053006334  1.0000
  C   C111      1.0  0.5488706907063859  0.26049115981879745  0.719469794601493  1.0000
  C   C112      1.0  0.5722357670643804  0.25084526130607443  0.7211781088345534  1.0000
  C   C113      1.0  0.5807008601723554  0.2394983444909345  0.7564482812993556  1.0000
  C   C114      1.0  0.5655086869214466  0.23683581810418766  0.7892947441899206  1.0000
  H   H73       1.0  0.5153311920647402  0.2640519369569118  0.7495241880474908  1.0000
  H   H74       1.0  0.5422756260174241  0.26947942408337194  0.6923872209626828  1.0000
  H   H75       1.0  0.5989231376194186  0.23275114048965875  0.7584984951822789  1.0000
  H   H76       1.0  0.5719865569465238  0.22766206113992718  0.816262487928342  1.0000
  C   C115      1.0  0.30594579088942786  0.1288355798074499  0.9747025146099941  1.0000
  C   C116      1.0  0.2959892025876246  0.13566486452628954  0.01181496720884434  1.0000
  C   C117      1.0  0.28053785037438794  0.12158375823531498  0.03159419623911641  1.0000
  C   C118      1.0  0.2754409993029083  0.10042984287954626  0.014641520131086327  1.0000
  C   C119      1.0  0.28609209356166676  0.09318927273229294  0.9782424315321167  1.0000
  C   C120      1.0  0.3012437577562922  0.10744369871475097  0.9581809364027435  1.0000
  H   H77       1.0  0.3003682316542995  0.15167631027208736  0.025544668481409127  1.0000
  H   H78       1.0  0.2725806209352131  0.12706214365852242  0.06003435077816821  1.0000
  H   H79       1.0  0.2822274655426476  0.07686906200749988  0.9649180707191075  1.0000
  H   H80       1.0  0.3088893564165824  0.1020909426562962  0.929426117355789  1.0000
  C   C121      1.0  0.3435490625623292  0.2615453530569901  0.8579460753041402  1.0000
  C   C122      1.0  0.35416745595886234  0.2667264732628037  0.894368218698004  1.0000
  C   C123      1.0  0.37673470383872365  0.2748287215999301  0.8941021388278566  1.0000
  C   C124      1.0  0.3886493834839445  0.27739929039005046  0.8574861033795298  1.0000
  C   C125      1.0  0.37765639724463523  0.2728612649014996  0.821172485042195  1.0000
  C   C126      1.0  0.35502093248439276  0.26517877220424424  0.8213670428115075  1.0000
  H   H81       1.0  0.34521490755751855  0.264091218155907  0.9227145573043821  1.0000
  H   H82       1.0  0.3852177864871624  0.27838678915774523  0.9222504989525825  1.0000
  H   H83       1.0  0.38654732397607305  0.2754454636225666  0.7928361930522633  1.0000
  H   H84       1.0  0.34671834444078287  0.26138218320999457  0.7931638013286458  1.0000
  C   C127      1.0  0.07918123325723325  0.3340179742023935  0.7991163958529667  1.0000
  C   C128      1.0  0.08428974589225202  0.33700980147741405  0.7582529887150892  1.0000
  C   C129      1.0  0.06628898806757655  0.3380740705187527  0.7296957090088966  1.0000
  C   C130      1.0  0.043084587582342904  0.3357512918562463  0.741683519386621  1.0000
  C   C131      1.0  0.03777898401224844  0.332728834117783  0.7825938400501178  1.0000
  C   C132      1.0  0.05585290173555024  0.33208920777477086  0.811444680458128  1.0000
  H   H85       1.0  0.1021573697330771  0.33843903649862694  0.7483098866123434  1.0000
  H   H86       1.0  0.07049221613706802  0.34030212544714245  0.6980500241689638  1.0000
  H   H87       1.0  0.019874600651478946  0.3307513230072779  0.7919669686405308  1.0000
  H   H88       1.0  0.05189800555303137  0.3296186640722082  0.8430926555962421  1.0000
  C   C133      1.0  0.19548360189205863  0.3965261229997971  0.8059878763500885  1.0000
  C   C134      1.0  0.17806525824244568  0.4040363307028213  0.7780559427242967  1.0000
  C   C135      1.0  0.16611741919566972  0.42628983443176  0.7811346385958403  1.0000
  C   C136      1.0  0.17122471363193914  0.44097242512801066  0.8126923930141495  1.0000
  C   C137      1.0  0.18904655818209415  0.4337425630092391  0.8401597543202879  1.0000
  C   C138      1.0  0.20132244832700005  0.41156987702447556  0.8365954335982929  1.0000
  H   H89       1.0  0.1739040099374251  0.39277767941001634  0.7538582064737899  1.0000
  H   H90       1.0  0.15250004537567985  0.4319602502962777  0.7596228266795195  1.0000
  H   H91       1.0  0.19353598773746364  0.44527905493184167  0.8639081269320821  1.0000
  H   H92       1.0  0.21498750501561145  0.4059406928572409  0.8580353910318742  1.0000
  C   C139      1.0  0.20214718249238778  0.24539344078620873  0.8280732218900158  1.0000
  C   C140      1.0  0.18945231821150416  0.25452452404967646  0.8614018445116521  1.0000
  C   C141      1.0  0.19583761966955207  0.2468036934893074  0.9005476389591904  1.0000
  C   C142      1.0  0.2150495157608313  0.2301776351449401  0.906300970119201  1.0000
  C   C143      1.0  0.2269992567970288  0.22038841118393054  0.8728323317045863  1.0000
  C   C144      1.0  0.22047645849304195  0.22786557802806062  0.8338187992006689  1.0000
  H   H93       1.0  0.17492006885636208  0.26769220943077365  0.8570824871551546  1.0000
  H   H94       1.0  0.18633848264344305  0.25421346482688656  0.9263714262185688  1.0000
  H   H95       1.0  0.2411938225173565  0.20693604100024882  0.8768312721911836  1.0000
  H   H96       1.0  0.23010509481609354  0.2205242404792125  0.8080594240564725  1.0000
  C   C145      1.0  0.9579125784437659  0.47265492085601407  0.07570130889384519  1.0000
  C   C146      1.0  0.9646715367763301  0.4627938585384998  0.038599078797023845  1.0000
  C   C147      1.0  0.9592972454972486  0.47517010471199617  0.00264180429318861  1.0000
  C   C148      1.0  0.9465040727608153  0.4970804656883361  0.0037389699268060017  1.0000
  C   C149      1.0  0.9392569634516711  0.5066856919538936  0.0408181193671866  1.0000
  C   C150      1.0  0.9451531857995794  0.49456674467448125  0.07683381125818856  1.0000
  H   H97       1.0  0.9744841999962955  0.44581312440133464  0.03763570367025748  1.0000
  H   H98       1.0  0.9648462799190841  0.46763370242733304  0.9740630771067824  1.0000
  H   H99       1.0  0.929270571839159  0.523576828048822  0.0417410712554962  1.0000
  H   H100      1.0  0.9395134683684209  0.5020584946505275  0.10543267272369557  1.0000
  C   C151      1.0  0.9878569730498858  0.3204929917165351  0.525017809894432  1.0000
  C   C152      1.0  0.966800727601424  0.312254914756897  0.511822748113197  1.0000
  C   C153      1.0  0.9478500883889686  0.31074787288833694  0.5387370891070336  1.0000
  C   C154      1.0  0.9500884750865425  0.3170714413910902  0.5791099623258965  1.0000
  C   C155      1.0  0.9712449519386457  0.3250659955347531  0.5923144782716168  1.0000
  C   C156      1.0  0.9900323441958  0.3268490082257772  0.5653296181626075  1.0000
  H   H101      1.0  0.9652226475289669  0.3065549333077314  0.48118938946675816  1.0000
  H   H102      1.0  0.9316511890916253  0.3042608264208001  0.5284540498979621  1.0000
  H   H103      1.0  0.9732331145773183  0.3299832363778854  0.6233393394105503  1.0000
  H   H104      1.0  0.006267007287573234  0.33318421084785066  0.5758359227909164  1.0000
  C   C157      1.0  0.9677444358570705  0.40042612211316897  0.3299914950965931  1.0000
  C   C158      1.0  0.9922284527561124  0.400971631750761  0.33011957357203386  1.0000
  C   C159      1.0  0.002302456027936328  0.4222362948673027  0.3247498781839984  1.0000
  C   C160      1.0  0.9879655870448633  0.44294975498162525  0.3179937380961399  1.0000
  C   C161      1.0  0.9634520571285335  0.44244609510511523  0.3175942316190801  1.0000
  C   C162      1.0  0.9533516072156617  0.4212066036590463  0.3238668239070682  1.0000
  H   H105      1.0  0.0035102161076947525  0.38503446530479085  0.33362638564926445  1.0000
  H   H106      1.0  0.021277465708163357  0.4225811459474132  0.32498049409586155  1.0000
  H   H107      1.0  0.9523170352072123  0.4584709283391618  0.31268335371644673  1.0000
  H   H108      1.0  0.9343803175985265  0.42088672475353267  0.3235810131602263  1.0000
  C   C163      1.0  0.8900187008461753  0.17316965664768005  0.03797735517397682  1.0000
  C   C164      1.0  0.8667256012101258  0.17527786476238538  0.051816881092501044  1.0000
  C   C165      1.0  0.8484625625147278  0.16947694897132906  0.026761427874119503  1.0000
  C   C166      1.0  0.8534518985518407  0.16112806592752651  0.9879895349020448  1.0000
  C   C167      1.0  0.8767189573643123  0.15903286452165247  0.9739258934155736  1.0000
  C   C168      1.0  0.8949949171400476  0.16522008642675465  0.9988422674133437  1.0000
  H   H109      1.0  0.8626669622665762  0.1815439400952201  0.08168902776932697  1.0000
  H   H110      1.0  0.83042503539621  0.1715012141597742  0.03746955151379261  1.0000
  H   H111      1.0  0.8807371364087669  0.15213175140097923  0.9442700201044136  1.0000
  H   H112      1.0  0.9130328049071641  0.163413731429917  0.9880954019119196  1.0000
  C   C169      1.0  0.9080837740419604  0.25084273475613  0.26709074758012075  1.0000
  C   C170      1.0  0.915064014319523  0.23206840626402475  0.29275539652754246  1.0000
  C   C171      1.0  0.9327148880447849  0.23421002665033003  0.32138275029214747  1.0000
  C   C172      1.0  0.9441167405950707  0.2547973085358652  0.32347273563940865  1.0000
  C   C173      1.0  0.9367886164969207  0.2738569454610084  0.29855354914461135  1.0000
  C   C174      1.0  0.9185662574342562  0.2719407773262547  0.27061038266208276  1.0000
  H   H113      1.0  0.9067852573194649  0.21590974521604364  0.2906763896670049  1.0000
  H   H114      1.0  0.9378828453043592  0.2196783667179859  0.3413882059913046  1.0000
  H   H115      1.0  0.9454973195916069  0.2898321081245969  0.3001182967893062  1.0000
  H   H116      1.0  0.913128650255975  0.2865136078086783  0.25082358290704265  1.0000
  C   C175      1.0  0.695969670409814  0.16038651028370063  0.4966402065545479  1.0000
  C   C176      1.0  0.7101847574823754  0.17895073305521217  0.49257366786682355  1.0000
  C   C177      1.0  0.7056877080838394  0.19898310660779764  0.5160111426349278  1.0000
  C   C178      1.0  0.6873672211482863  0.2001509938511626  0.5442640609688741  1.0000
  C   C179      1.0  0.673225338647221  0.18150365326441983  0.5484996404696856  1.0000
  C   C180      1.0  0.6773398716685914  0.16174119407613174  0.524312124914436  1.0000
  H   H117      1.0  0.7250056058016116  0.17766825335378467  0.47200612553532445  1.0000
  H   H118      1.0  0.7167959021106313  0.213281676944943  0.5130250557029664  1.0000
  H   H119      1.0  0.6589697078902597  0.18233719352839542  0.5700634833970177  1.0000
  H   H120      1.0  0.6660068877066165  0.14763837893839307  0.5268562883221574  1.0000
  C   C181      1.0  0.7865230925132749  0.17848271757198045  0.29474422133810724  1.0000
  C   C182      1.0  0.7816498061813375  0.15713833988329357  0.27807152221346165  1.0000
  C   C183      1.0  0.7962719472513119  0.14705642386096543  0.24763496505754043  1.0000
  C   C184      1.0  0.8155884812823856  0.15843794446550244  0.23378803879759302  1.0000
  C   C185      1.0  0.8200125566068833  0.1800463842972399  0.24975872467017673  1.0000
  C   C186      1.0  0.8055831170618315  0.1899928715041876  0.280389663190996  1.0000
  H   H121      1.0  0.7667996733604175  0.14829046159316964  0.2889076993236788  1.0000
  H   H122      1.0  0.7927565603194888  0.13039877813446032  0.23508598876008205  1.0000
  H   H123      1.0  0.834558287248839  0.1891786270948514  0.23853515424026228  1.0000
  H   H124      1.0  0.809272660852844  0.20658635342644271  0.2930310272284296  1.0000
  C   C187      1.0  0.47982042463578184  0.1988518008041886  0.5999254539204312  1.0000
  C   C188      1.0  0.489190451741912  0.21896769950421777  0.5848489862416293  1.0000
  C   C189      1.0  0.48244459171904985  0.24081357440041662  0.6017722623338853  1.0000
  C   C190      1.0  0.4665743630642468  0.24242904835859932  0.6341213539042376  1.0000
  C   C191      1.0  0.456634719515525  0.22241429861961043  0.6481956925881627  1.0000
  C   C192      1.0  0.4632994496678629  0.20064451535006453  0.6312222433220314  1.0000
  H   H125      1.0  0.5023307174549059  0.21772008909431365  0.5614034721085639  1.0000
  H   H126      1.0  0.49037151558256314  0.2562524317281893  0.5912186017755081  1.0000
  H   H127      1.0  0.4441666746275987  0.22362254844039317  0.6729701477480181  1.0000
  H   H128      1.0  0.45598581123328585  0.18517986088051738  0.6431327589974807  1.0000
  C   C193      1.0  0.6339900626861519  0.20386393072624925  0.3790304770863191  1.0000
  C   C194      1.0  0.6445945538677649  0.19737130937654812  0.41596605351106763  1.0000
  C   C195      1.0  0.6308303944348334  0.19594753032976706  0.4508685527634747  1.0000
  C   C196      1.0  0.6063279208940588  0.20031700262387522  0.44879235960690694  1.0000
  C   C197      1.0  0.5955758952470621  0.20621074936399839  0.41176840002404186  1.0000
  C   C198      1.0  0.6094539142180762  0.20833778618513535  0.3769925984555657  1.0000
  H   H129      1.0  0.6634618690546965  0.19383348231065783  0.41797285290220193  1.0000
  H   H130      1.0  0.6392179668183838  0.1913092281957131  0.47942318297273806  1.0000
  H   H131      1.0  0.5766213817553798  0.2096673897712274  0.4100423699432119  1.0000
  H   H132      1.0  0.6011637636839801  0.21320213549139921  0.34844419844212504  1.0000
  C   C199      1.0  0.2381169493597512  0.5016420849013089  0.10405514288783019  1.0000
  C   C200      1.0  0.255009251963804  0.4888978429717828  0.08053955826088832  1.0000
  C   C201      1.0  0.25103118258545654  0.4857674750346662  0.039382321885778726  1.0000
  C   C202      1.0  0.23015459813769937  0.49538570028747275  0.02157311376976745  1.0000
  C   C203      1.0  0.21368823922962948  0.5090133219691441  0.0446226404762009  1.0000
  C   C204      1.0  0.21766465028024823  0.5121350472114218  0.08588585252859149  1.0000
  H   H133      1.0  0.270970059280661  0.48096664403484424  0.09440447070819635  1.0000
  H   H134      1.0  0.2639642033966732  0.47545170632297823  0.02155078726140114  1.0000
  H   H135      1.0  0.19800645732731065  0.5172888843060646  0.03075824716276654  1.0000
  H   H136      1.0  0.20506576744517  0.5228441845830615  0.1034922621178883  1.0000
  C   C205      1.0  0.06756011705251996  0.5146424404048738  0.16939104090154214  1.0000
  C   C206      1.0  0.08858158948589123  0.5198730414656045  0.1507977075152659  1.0000
  C   C207      1.0  0.10945523846322192  0.5057776395888917  0.15826901274715868  1.0000
  C   C208      1.0  0.10908847322265715  0.4857779866501947  0.1827619357773338  1.0000
  C   C209      1.0  0.08803059197140906  0.48036412242887716  0.2008480092168469  1.0000
  C   C210      1.0  0.06744183324039454  0.4951208336550286  0.19495709165242295  1.0000
  H   H137      1.0  0.08885390137369864  0.535053242195311  0.13119229058854925  1.0000
  H   H138      1.0  0.12572033100326419  0.5103970397941383  0.14479054302427288  1.0000
  H   H139      1.0  0.08779867676629283  0.4652851997973663  0.22070342218976427  1.0000
  H   H140      1.0  0.05177524059748739  0.4917505833563876  0.2114532449658108  1.0000
  C   C211      1.0  0.2012039161280878  0.3254471936263996  0.554785571903989  1.0000
  C   C212      1.0  0.179674870482432  0.33785525124502847  0.54532526438545  1.0000
  C   C213      1.0  0.16164610510810862  0.34016883932873726  0.5743591578198167  1.0000
  C   C214      1.0  0.16508580272585108  0.32998030567192066  0.6127215086943552  1.0000
  C   C215      1.0  0.18628017783108258  0.31684233540570117  0.6215605855763682  1.0000
  C   C216      1.0  0.20438963744225477  0.3146979856598248  0.5927082114040971  1.0000
  H   H141      1.0  0.17714832258957788  0.346206678017014  0.5160470223067343  1.0000
  H   H142      1.0  0.1452497451502797  0.3503395483281839  0.5674294863477106  1.0000
  H   H143      1.0  0.1887612716957998  0.3083189245232445  0.6505830336576435  1.0000
  H   H144      1.0  0.22094385097409028  0.30488662805133515  0.5999340131099121  1.0000
  C   C217      1.0  0.08342932408201897  0.32928921183660026  0.33638423274038726  1.0000
  C   C218      1.0  0.07597769851474001  0.3505330143329649  0.35449053815468  1.0000
  C   C219      1.0  0.09224683524706778  0.36339412012719086  0.3741230942401691  1.0000
  C   C220      1.0  0.11600141044915113  0.35497749465066203  0.37587674427899787  1.0000
  C   C221      1.0  0.12369616243236714  0.334145770395264  0.35661734078698654  1.0000
  C   C222      1.0  0.10739850883770519  0.32136751300110483  0.3366731292813267  1.0000
  H   H145      1.0  0.05773506920088023  0.3572446570547764  0.3528684486013716  1.0000
  H   H146      1.0  0.08632111890838101  0.3797002314951483  0.3884753410582976  1.0000
  H   H147      1.0  0.14207425893015713  0.32758637672772706  0.3577702120020064  1.0000
  H   H148      1.0  0.11325950306370336  0.3050201261471544  0.3223788587412178  1.0000
  C   C223      1.0  0.2318982347768204  0.4179009900326185  0.34968468388212537  1.0000
  C   C224      1.0  0.23777203845016015  0.4328777635520564  0.3182928340435835  1.0000
  C   C225      1.0  0.22817451918628187  0.4561985185121656  0.31718499475515877  1.0000
  C   C226      1.0  0.21301701871102097  0.4647542711096906  0.3478964180597864  1.0000
  C   C227      1.0  0.20791252010810862  0.4500853774453531  0.38023036200293425  1.0000
  C   C228      1.0  0.21705244596394038  0.42656543065932573  0.3808112305853057  1.0000
  H   H149      1.0  0.2494549470019731  0.42631656361906134  0.29438464142015075  1.0000
  H   H150      1.0  0.23272227265414439  0.46758852062674056  0.29269265571586367  1.0000
  H   H151      1.0  0.19640994032061596  0.4567253054812497  0.40429359812569093  1.0000
  H   H152      1.0  0.21283800214511076  0.4152493472739692  0.40552793321251124  1.0000
  C   C229      1.0  0.34011189994412677  0.1795235544625163  0.15167048438506991  1.0000
  C   C230      1.0  0.340691461342274  0.20255127487655947  0.1647321498839891  1.0000
  C   C231      1.0  0.33594402670978085  0.22122978643633875  0.13747557860291781  1.0000
  C   C232      1.0  0.32973001963309195  0.21698713987586654  0.09757347986377729  1.0000
  C   C233      1.0  0.32992511901040344  0.19393466540319781  0.08424813744334503  1.0000
  C   C234      1.0  0.33518997433633074  0.17522058611304062  0.11122791651614851  1.0000
  H   H153      1.0  0.34495887449356394  0.20595292415342517  0.19575579322589248  1.0000
  H   H154      1.0  0.3367250192629927  0.2389855037647102  0.14741224538381625  1.0000
  H   H155      1.0  0.3260095164798935  0.19045814492975094  0.053199676741926716  1.0000
  H   H156      1.0  0.3349953853886442  0.15743399641047964  0.10091100744518032  1.0000
  C   C235      1.0  0.41689026791067046  0.16238226005727793  0.3742207196727174  1.0000
  C   C236      1.0  0.43685349689244024  0.15016396083825  0.39112694453810887  1.0000
  C   C237      1.0  0.4580383177448702  0.16074574655662777  0.39383125016198905  1.0000
  C   C238      1.0  0.4592269079267881  0.18387812722759056  0.3809501596550323  1.0000
  C   C239      1.0  0.4393660729315589  0.1960048500131351  0.36331805287479235  1.0000
  C   C240      1.0  0.4182052135331207  0.1852391232951465  0.35980915816455006  1.0000
  H   H157      1.0  0.4360142409126691  0.13240172869864286  0.40186599230113346  1.0000
  H   H158      1.0  0.47353365490617544  0.15080605336932493  0.405184259769066  1.0000
  H   H159      1.0  0.4402501132165385  0.21382759883805505  0.35281302557807015  1.0000
  H   H160      1.0  0.4028553753789288  0.19475145917849152  0.3466003040509418  1.0000
  C   C241      1.0  0.2904859881009764  0.2552427835810817  0.3216596330506677  1.0000
  C   C242      1.0  0.2740621063631212  0.23860966407547  0.32619135487093676  1.0000
  C   C243      1.0  0.2502039582613685  0.2458518568167765  0.33314144374492144  1.0000
  C   C244      1.0  0.2427992858764356  0.2696945306058899  0.3361537124851391  1.0000
  C   C245      1.0  0.25921134490067227  0.28627988179888353  0.33135878608301944  1.0000
  C   C246      1.0  0.2829965725672014  0.27906130922003697  0.3240604735650724  1.0000
  H   H161      1.0  0.2797194744761352  0.2201766821785403  0.3245905782463604  1.0000
  H   H162      1.0  0.23753829901667742  0.2329516623764808  0.33673819949350325  1.0000
  H   H163      1.0  0.25356165439316086  0.3047212819203674  0.33277601851817606  1.0000
  H   H164      1.0  0.2956293046432239  0.2919874650411273  0.3203351206179081  1.0000
  C   C247      1.0  0.6606715863795675  0.044790683099456885  0.6073885230449526  1.0000
  C   C248      1.0  0.6402419858208973  0.033320752206114745  0.6023187653263499  1.0000
  C   C249      1.0  0.6299356193981548  0.02260932283300976  0.6354073432233162  1.0000
  C   C250      1.0  0.6403810047472489  0.022957373998467867  0.6735193415413664  1.0000
  C   C251      1.0  0.6600039777575862  0.03559691406111076  0.6789416789213887  1.0000
  C   C252      1.0  0.6700879693261532  0.046596095365225576  0.6460014035194224  1.0000
  H   H165      1.0  0.632438759854925  0.03274633860390708  0.5728362261490608  1.0000
  H   H166      1.0  0.6143145461094104  0.013493439249131933  0.631174073742615  1.0000
  H   H167      1.0  0.6679297284336871  0.03636580770356734  0.7081797267067516  1.0000
  H   H168      1.0  0.685767519936423  0.055520348557722476  0.6504019901275598  1.0000
  C   C253      1.0  0.655594527733404  0.058945515608577415  0.34639789021905254  1.0000
  C   C254      1.0  0.6719079581622801  0.07141156053947961  0.36655502996078876  1.0000
  C   C255      1.0  0.686748545047947  0.08514522892904486  0.34469907207897016  1.0000
  C   C256      1.0  0.6854317043259155  0.08629277928732938  0.30258466930154  1.0000
  C   C257      1.0  0.6693734493088822  0.07356622542583291  0.28228423550171744  1.0000
  C   C258      1.0  0.6542010643624838  0.06013298279547974  0.3042703255698835  1.0000
  H   H169      1.0  0.6727040967825846  0.07099299909014878  0.3990683768978467  1.0000
  H   H170      1.0  0.6992203447195579  0.09484962051326164  0.36055710680208014  1.0000
  H   H171      1.0  0.6681941876055356  0.07461824292491027  0.24973699135210647  1.0000
  H   H172      1.0  0.6415045129148802  0.05057362544979305  0.28864428441081597  1.0000
  C   C259      1.0  0.9840526363811978  0.8398190070887434  0.5959481421984332  1.0000
  C   C260      1.0  0.9888618476356664  0.8284426353270306  0.6329667938166913  1.0000
  C   C261      1.0  0.9727707203650481  0.8313645864480792  0.6650439390313109  1.0000
  C   C262      1.0  0.9514821974079106  0.8451031220396693  0.6597175814179143  1.0000
  C   C263      1.0  0.9463965295526141  0.8559712982444755  0.6223405067907938  1.0000
  C   C264      1.0  0.9627621103260807  0.8535116055691853  0.5905597008585308  1.0000
  H   H173      1.0  0.004997847068079153  0.8173123114263043  0.6367740029875035  1.0000
  H   H174      1.0  0.9766136006193541  0.8226561765540074  0.6936454111504613  1.0000
  H   H175      1.0  0.929916628057261  0.8665632453213971  0.6181391132736516  1.0000
  H   H176      1.0  0.9589006320748376  0.8622980172076616  0.5620085164216427  1.0000
  C   C265      1.0  0.8436929859776676  0.03770715585074558  0.1588121022257852  1.0000
  C   C266      1.0  0.8329372055062497  0.033572634699492454  0.12200846998990843  1.0000
  C   C267      1.0  0.8467941675911875  0.027586589390893757  0.087992112456168  1.0000
  C   C268      1.0  0.8713691124532796  0.026140142417321544  0.09073257817020797  1.0000
  C   C269      1.0  0.8820575454421183  0.031266662798140166  0.12711303345349045  1.0000
  C   C270      1.0  0.8682399909800653  0.036858496981385214  0.161240458325262  1.0000
  H   H177      1.0  0.813912444163866  0.034390196901935566  0.1200347355986236  1.0000
  H   H178      1.0  0.8384450927508027  0.024089848844901063  0.05973927295008763  1.0000
  H   H179      1.0  0.9010820183023857  0.030582918632290124  0.12904098423398436  1.0000
  H   H180      1.0  0.8765938516668972  0.04071797428436419  0.18931667890819492  1.0000
  C   C271      1.0  0.9285934622244246  0.07496898399629792  0.30801177661422524  1.0000
  C   C272      1.0  0.9485152268100676  0.08539501777553228  0.32088709517480085  1.0000
  C   C273      1.0  0.9538040354237103  0.10694140494950681  0.30460142420366726  1.0000
  C   C274      1.0  0.9391459494525709  0.11828375634047543  0.2754560291690127  1.0000
  C   C275      1.0  0.9191482399930675  0.10789304365070232  0.2623786217770688  1.0000
  C   C276      1.0  0.9139766699572343  0.08609785030805761  0.2784509954301986  1.0000
  H   H181      1.0  0.9598996626496016  0.07680509883002484  0.3436050161131533  1.0000
  H   H182      1.0  0.9692723856395494  0.11486118873201275  0.31475125096698015  1.0000
  H   H183      1.0  0.9078431601409551  0.11650001504856268  0.23966752082489667  1.0000
  H   H184      1.0  0.8988639012776422  0.07781360913464441  0.2678042168681902  1.0000
  C   C277      1.0  0.7899445756647138  0.02719381477025884  0.40563125157705937  1.0000
  C   C278      1.0  0.7907070196487593  0.0046642383212260885  0.389840097081067  1.0000
  C   C279      1.0  0.772929725581766  0.9900921893563067  0.39953452700073244  1.0000
  C   C280      1.0  0.7545902553288878  0.9977851219051336  0.4257101471843443  1.0000
  C   C281      1.0  0.7538875315135883  0.02026611540725387  0.44167851736595126  1.0000
  C   C282      1.0  0.7714914396969615  0.03499244627482567  0.431490815073407  1.0000
  H   H185      1.0  0.8049949499377819  0.9983988492057224  0.370323452440839  1.0000
  H   H186      1.0  0.7733210181802637  0.9728201516346507  0.386778281432939  1.0000
  H   H187      1.0  0.7400818387847435  0.026164454783565327  0.4625635484349293  1.0000
  H   H188      1.0  0.7708662604065225  0.052380523183797933  0.4439483556041735  1.0000
  C   C283      1.0  0.8857997352002664  0.9390836108396725  0.35083174971789355  1.0000
  C   C284      1.0  0.8820922657739195  0.9508836796294492  0.3872525285376432  1.0000
  C   C285      1.0  0.8929925287069068  0.9419150427322718  0.4225956627319861  1.0000
  C   C286      1.0  0.9075355288071809  0.9210151986400075  0.4217769857637741  1.0000
  C   C287      1.0  0.9109892555938308  0.908939711186471  0.3855444177878687  1.0000
  C   C288      1.0  0.9000052884713009  0.9179206894055583  0.3501013672485631  1.0000
  H   H189      1.0  0.8706488536150946  0.9668004279458215  0.3883472543379894  1.0000
  H   H190      1.0  0.8904559064079544  0.9513515123276398  0.45055721533996623  1.0000
  H   H191      1.0  0.9219403510984772  0.892583219316863  0.38488546450670214  1.0000
  H   H192      1.0  0.9027885500130697  0.908594708252724  0.3220651943917558  1.0000
  C   C289      1.0  0.9846276393358516  0.7052133615324978  0.18238684660676827  1.0000
  C   C290      1.0  0.9657093609788624  0.6928059464298622  0.19489224964734492  1.0000
  C   C291      1.0  0.9493193774157522  0.6863064267644787  0.16656140820812793  1.0000
  C   C292      1.0  0.9523641815061398  0.6915842247922559  0.12565186954274332  1.0000
  C   C293      1.0  0.9706397572282695  0.7049051720436905  0.11358359703968501  1.0000
  C   C294      1.0  0.9865851145097804  0.7119502589160605  0.14197986751249486  1.0000
  H   H193      1.0  0.9638725393688008  0.6878838024412898  0.22624305511872206  1.0000
  H   H194      1.0  0.9350195519642838  0.6762841048473602  0.17614122101577334  1.0000
  H   H195      1.0  0.972830976249955  0.7093738412657845  0.08212853542798171  1.0000
  H   H196      1.0  0.0008229422854229007  0.7219316707359232  0.13227663238101273  1.0000
  C   C295      1.0  0.9342352151299159  0.6217088998101242  0.292866015145569  1.0000
  C   C296      1.0  0.9129569495103713  0.6167455947036158  0.27544192033781256  1.0000
  C   C297      1.0  0.9119627813093697  0.5968803293572278  0.2516074300661583  1.0000
  C   C298      1.0  0.9320890199468616  0.5815110592311473  0.24583381200274507  1.0000
  C   C299      1.0  0.9533826979427074  0.5862118501410588  0.2637563830408566  1.0000
  C   C300      1.0  0.9545244108047954  0.606482411251087  0.2868936325243816  1.0000
  H   H197      1.0  0.8972570938505668  0.6284463540655179  0.27994542782339166  1.0000
  H   H198      1.0  0.8954787808595195  0.593348501157774  0.2377675180200316  1.0000
  H   H199      1.0  0.9689582478923972  0.5743769886093177  0.25962942535629696  1.0000
  H   H200      1.0  0.9709455024822418  0.6100664334028378  0.3008230756545569  1.0000
  C   C301      1.0  0.9992669528629828  0.7469479832357888  0.400075162571695  1.0000
  C   C302      1.0  0.9975712469048843  0.7645268676602373  0.42914120496362446  1.0000
  C   C303      1.0  0.9925795175313553  0.7880223947058923  0.4174508127083962  1.0000
  C   C304      1.0  0.9892238660672105  0.7939201277204181  0.37666171310784535  1.0000
  C   C305      1.0  0.991286036193314  0.7763350059742261  0.3476257040799249  1.0000
  C   C306      1.0  0.9964104822402914  0.7529064130286278  0.3592693862465242  1.0000
  H   H201      1.0  0.999846600653212  0.760010401455971  0.4607549382870622  1.0000
  H   H202      1.0  0.9910632341963705  0.8015421809311151  0.4400132329114652  1.0000
  H   H203      1.0  0.9888389312364322  0.7808656112231299  0.3160386410094081  1.0000
  H   H204      1.0  0.9980641146789521  0.739524077850197  0.33654153991677926  1.0000
  C   C307      1.0  0.4243668010563802  0.992906142129948  0.6564674665701302  1.0000
  C   C308      1.0  0.42823853553158797  0.9886416255601411  0.6975641040495604  1.0000
  C   C309      1.0  0.4272398052175976  0.007313891888142132  0.7244250270029126  1.0000
  C   C310      1.0  0.42111628532626233  0.030117361292830047  0.7105628551032088  1.0000
  C   C311      1.0  0.41655668635537424  0.03428844831043887  0.6695714744919891  1.0000
  C   C312      1.0  0.4186397807112926  0.015723370080061416  0.6423683024141847  1.0000
  H   H205      1.0  0.4327175499554181  0.9709737532514965  0.7083760217202048  1.0000
  H   H206      1.0  0.43097629080400074  0.003936372859516091  0.755825289384009  1.0000
  H   H207      1.0  0.4117131150653176  0.05189898261809933  0.6587838390699052  1.0000
  H   H208      1.0  0.41553815032575875  0.019004153175983474  0.6105331054529027  1.0000
  C   C313      1.0  0.473412098412657  0.06963505670452874  0.4764987944941728  1.0000
  C   C314      1.0  0.4759111932863392  0.0877498528692  0.448652328098092  1.0000
  C   C315      1.0  0.4980186126976728  0.09635153024886518  0.44279566103238016  1.0000
  C   C316      1.0  0.5174965074916721  0.08709219823258718  0.4652007084520202  1.0000
  C   C317      1.0  0.5148754901485645  0.06931046266996256  0.4934736886297701  1.0000
  C   C318      1.0  0.4928931727160131  0.06061066369795731  0.4990872522851829  1.0000
  H   H209      1.0  0.4609019469019739  0.09504205846786995  0.43142520919358174  1.0000
  H   H210      1.0  0.5000207698904782  0.11013728316202774  0.4208161372881232  1.0000
  H   H211      1.0  0.5296272067138471  0.06275307556623866  0.512008809606753  1.0000
  H   H212      1.0  0.4910276298954072  0.04727166326981158  0.5217535519173337  1.0000
  C   C319      1.0  0.5565932037829717  0.9915884052825704  0.5578073527197871  1.0000
  C   C320      1.0  0.577635912424408  0.0017188322010366353  0.5649291899914406  1.0000
  C   C321      1.0  0.5988132219304131  0.9918749656391318  0.5484224403830349  1.0000
  C   C322      1.0  0.5991766235772062  0.9714996437091791  0.5258324554318892  1.0000
  C   C323      1.0  0.5782506375976589  0.9608672228082278  0.5197840956854359  1.0000
  C   C324      1.0  0.5568327079302281  0.971164107028507  0.5351644169813263  1.0000
  H   H213      1.0  0.5775028349393371  0.017493779640017415  0.582545152286472  1.0000
  H   H214      1.0  0.614972629377863  0.9998140410200477  0.5537253236971836  1.0000
  H   H215      1.0  0.5785179521577606  0.944985751464152  0.5024396530529839  1.0000
  H   H216      1.0  0.5405896605334549  0.9632163835365155  0.5297710191059095  1.0000
  C   C325      1.0  0.29077442413941135  0.009708253023615221  0.20509578626198446  1.0000
  C   C326      1.0  0.27775387078346014  0.019507738950530484  0.17244440334435499  1.0000
  C   C327      1.0  0.2807286269291864  0.009855137048405904  0.13389457783459902  1.0000
  C   C328      1.0  0.29615575371769676  0.9898713318588193  0.1279820168978496  1.0000
  C   C329      1.0  0.30907854770440385  0.9799748134363824  0.16071681503639512  1.0000
  C   C330      1.0  0.3065886096975858  0.9900245719435503  0.19910017525535412  1.0000
  H   H217      1.0  0.2653404334486231  0.0346167478749575  0.17679700754195324  1.0000
  H   H218      1.0  0.27089566177394686  0.01780752725046142  0.1088887341689051  1.0000
  H   H219      1.0  0.3211863749459572  0.9646275240268614  0.1562619258498037  1.0000
  H   H220      1.0  0.31689576574966655  0.9824359505666893  0.22384387101900113  1.0000
  C   C331      1.0  0.3188500579677518  0.07732527338486528  0.40104041904105914  1.0000
  C   C332      1.0  0.29876688020159853  0.07449630295931198  0.3779903670869701  1.0000
  C   C333      1.0  0.2858905332651076  0.09406841075006717  0.36090869889803073  1.0000
  C   C334      1.0  0.2937090923829536  0.11630920684514731  0.3654649263491315  1.0000
  C   C335      1.0  0.3138283396785773  0.11909132820092881  0.38838032947967566  1.0000
  C   C336      1.0  0.3261036698212145  0.09967459459291095  0.40684899898586646  1.0000
  H   H221      1.0  0.29301264369236857  0.05727090991848849  0.37362960413201607  1.0000
  H   H222      1.0  0.270339859006428  0.0918820838688553  0.34319249994956946  1.0000
  H   H223      1.0  0.31993422073135447  0.13624656685799882  0.39200632311895134  1.0000
  H   H224      1.0  0.34150645550021624  0.10195134800601746  0.42482996401013773  1.0000
  C   C337      1.0  0.41888066073919356  0.9749664367955002  0.33344146595580415  1.0000
  C   C338      1.0  0.42066097477143366  0.9881508383874464  0.3683323716624411  1.0000
  C   C339      1.0  0.436489294437727  0.9802410330645364  0.3988346489912981  1.0000
  C   C340      1.0  0.4498423652652203  0.9586993334423499  0.3952481569320505  1.0000
  C   C341      1.0  0.4481024105665009  0.9456144115653654  0.3602237127789125  1.0000
  C   C342      1.0  0.4329025266272605  0.953910080936561  0.3290851053216441  1.0000
  H   H225      1.0  0.4098959150700429  0.004463028571451533  0.3716553208693844  1.0000
  H   H226      1.0  0.4382398144844789  0.990806870643201  0.4250665995593845  1.0000
  H   H227      1.0  0.4584786646494822  0.9290283246589908  0.35717862885353907  1.0000
  H   H228      1.0  0.43156748826066443  0.9437269644157786  0.302039227915742  1.0000
  C   C343      1.0  0.14553854855317525  0.8645240745282454  0.6200386417148166  1.0000
  C   C344      1.0  0.16523825041770018  0.848313688360082  0.6169020532162394  1.0000
  C   C345      1.0  0.17392032828464637  0.8360097601774498  0.6513762367719135  1.0000
  C   C346      1.0  0.16317493972106534  0.8402759254439462  0.6889928721289413  1.0000
  C   C347      1.0  0.14284949530308533  0.8556929302201735  0.69160245951554  1.0000
  C   C348      1.0  0.13400844156500014  0.8677494074348963  0.6571676227510546  1.0000
  H   H229      1.0  0.17411706663810336  0.8456164343958458  0.5881837733096854  1.0000
  H   H230      1.0  0.18957466194164202  0.8239730170228833  0.6492037662964028  1.0000
  H   H231      1.0  0.1340957778344373  0.8585505799191132  0.7203498682357166  1.0000
  H   H232      1.0  0.1187830859872517  0.8802833121479936  0.6596863414308337  1.0000
  C   C349      1.0  0.1040647717774844  0.8862836594707288  0.3917841580007864  1.0000
  C   C350      1.0  0.10153851370106629  0.9075053188651674  0.41224695168574593  1.0000
  C   C351      1.0  0.07901650633872737  0.9178950089343436  0.42155760226168126  1.0000
  C   C352      1.0  0.05898396565741981  0.9067111723271057  0.41156092833558744  1.0000
  C   C353      1.0  0.06143051125018939  0.8857390959501399  0.39027784231532847  1.0000
  C   C354      1.0  0.08397833196829808  0.8757062196770382  0.37986166674097344  1.0000
  H   H233      1.0  0.11692623074220064  0.9161152237252426  0.4204438409373407  1.0000
  H   H234      1.0  0.07717148420670217  0.9342569528253264  0.4376216060472988  1.0000
  H   H235      1.0  0.04596740582077774  0.8772239992678824  0.3819007298334417  1.0000
  H   H236      1.0  0.08584630280670891  0.8593954276832925  0.36366808046111904  1.0000
  C   C355      1.0  0.2865104471828739  0.9379296055616226  0.4179569909647821  1.0000
  C   C356      1.0  0.2758696384452555  0.9168805281217143  0.4220402050932906  1.0000
  C   C357      1.0  0.2529900968431401  0.9167422738509987  0.43812730920695075  1.0000
  C   C358      1.0  0.24084206334046812  0.9376473219689488  0.45064074998282855  1.0000
  C   C359      1.0  0.251666491587117  0.9586000862925331  0.4471086011628588  1.0000
  C   C360      1.0  0.27442632768168823  0.9587544247057893  0.4307814898233917  1.0000
  H   H237      1.0  0.28521453167619326  0.9006785776536353  0.4124066437446363  1.0000
  H   H238      1.0  0.24481381152688922  0.90047917686917  0.44106438569430534  1.0000
  H   H239      1.0  0.2423977123036336  0.9747783196560023  0.4570722746928212  1.0000
  H   H240      1.0  0.28267188673158317  0.9749801490431153  0.4285987916464519  1.0000
  C   C361      1.0  0.15608828853821013  0.7399976491343389  0.11471113224495766  1.0000
  C   C362      1.0  0.17876334985162007  0.7471260856344984  0.10860229900760254  1.0000
  C   C363      1.0  0.19184274685013986  0.7540565415746424  0.1416683436019522  1.0000
  C   C364      1.0  0.18233265304505777  0.7534792173171522  0.18070818441755962  1.0000
  C   C365      1.0  0.15954089569916072  0.7466831022391636  0.18633556988898484  1.0000
  C   C366      1.0  0.14642135529617195  0.7401334671813864  0.15348251131914847  1.0000
  H   H241      1.0  0.18627238473270963  0.747150478873574  0.078561060281364  1.0000
  H   H242      1.0  0.209512379566571  0.7592015052767721  0.13715139400544143  1.0000
  H   H243      1.0  0.15195150654049064  0.7463063900156787  0.21612383060476256  1.0000
  H   H244      1.0  0.1290003286265565  0.7345233783935494  0.15839800590476494  1.0000
  C   C367      1.0  0.19799329565635862  0.6329633998214398  0.2791194968854329  1.0000
  C   C368      1.0  0.20893773265663262  0.6122222013140994  0.2635417207858255  1.0000
  C   C369      1.0  0.19536713477774076  0.5959058765763171  0.24561528876459382  1.0000
  C   C370      1.0  0.17081623867560622  0.6000979566247898  0.24393365029901362  1.0000
  C   C371      1.0  0.16000032938296677  0.6212295568328303  0.25804997005019886  1.0000
  C   C372      1.0  0.17359155757495098  0.6376562442358713  0.27543452898997445  1.0000
  H   H245      1.0  0.22788968737560442  0.6087610163514311  0.2654877067175032  1.0000
  H   H246      1.0  0.20395449626161727  0.5801810229525269  0.23299353022281769  1.0000
  H   H247      1.0  0.1410474214469438  0.6247319034042671  0.2563265626131434  1.0000
  H   H248      1.0  0.16509421363373203  0.6537604460183319  0.2866891516230353  1.0000
  C   C373      1.0  0.07469937645478675  0.6401679344090373  0.2975043049163217  1.0000
  C   C374      1.0  0.06630306407095699  0.6525344420097509  0.2631998838607858  1.0000
  C   C375      1.0  0.07917194973897713  0.6698492683021587  0.24623983882793812  1.0000
  C   C376      1.0  0.1003953503178729  0.6748727791266538  0.2637102316773508  1.0000
  C   C377      1.0  0.10966746877178819  0.6612133304121193  0.29605189121036163  1.0000
  C   C378      1.0  0.09682540535001127  0.643780404616493  0.31301674518122286  1.0000
  H   H249      1.0  0.04914049498986128  0.6498241196772725  0.25118487934418376  1.0000
  H   H250      1.0  0.07190048293527074  0.6801993990311467  0.2211252846848513  1.0000
  H   H251      1.0  0.12614827958993655  0.6647144907690115  0.3092660954184317  1.0000
  H   H252      1.0  0.10326259016309991  0.634330840671222  0.3397381383051268  1.0000
  C   C379      1.0  0.17729149200882843  0.7612430925465984  0.43595488379993064  1.0000
  C   C380      1.0  0.16944421195226267  0.7765841014883367  0.4666237746209344  1.0000
  C   C381      1.0  0.18385694503038205  0.7935066456865087  0.4800361745035941  1.0000
  C   C382      1.0  0.20611434547111804  0.7951539853866112  0.46278547875706094  1.0000
  C   C383      1.0  0.21459294532777806  0.7787921518219398  0.4340884499241938  1.0000
  C   C384      1.0  0.2001552874885511  0.761877609235166  0.42061540341666287  1.0000
  H   H253      1.0  0.15197411061811525  0.7758299248115829  0.47923669065342117  1.0000
  H   H254      1.0  0.17772067364537256  0.8053537784235746  0.5036217054940053  1.0000
  H   H255      1.0  0.2319551687790128  0.7797916359911594  0.4211149157060757  1.0000
  H   H256      1.0  0.20661656784512616  0.749652870070421  0.39788384001383414  1.0000
  N   N1        1.0  0.08044944272706367  0.569671344624555  0.2500662046972959  1.0000
  C   C385      1.0  0.07682867782944047  0.5454250964003018  0.2625024243705446  1.0000
  C   C386      1.0  0.09128977471281452  0.5697664493472115  0.2094824406837424  1.0000
  C   C387      1.0  0.09620292627774263  0.579809901904271  0.27917427930920974  1.0000
  C   C388      1.0  0.057431029470699446  0.5836871172180972  0.2490517489270511  1.0000
  H   H257      1.0  0.09355085990567669  0.5338777874413347  0.26119193432442206  1.0000
  H   H258      1.0  0.0638965318152509  0.5377824401844525  0.24262306618534743  1.0000
  H   H259      1.0  0.06977576869239499  0.5446979964175908  0.29382692571670843  1.0000
  H   H260      1.0  0.09564304490000675  0.5876223355257423  0.20037652703828415  1.0000
  H   H261      1.0  0.10800593772298805  0.558186412382509  0.20837832174671558  1.0000
  H   H262      1.0  0.07922419765654398  0.5636996216761374  0.18632939494541145  1.0000
  H   H263      1.0  0.10003141758744527  0.5977902821395515  0.26986498956409355  1.0000
  H   H264      1.0  0.11344294777092534  0.5691805357892653  0.28144981153321236  1.0000
  H   H265      1.0  0.08813699699593447  0.581064620749279  0.3098265323198605  1.0000
  H   H266      1.0  0.05950102881459829  0.6022591545752529  0.24091813906690374  1.0000
  H   H267      1.0  0.04848103321155239  0.5835735696169415  0.27899072820254767  1.0000
  H   H268      1.0  0.04532266391370188  0.5767207278052591  0.22673539732583262  1.0000
  N   N2        1.0  0.4907279053388033  0.2958303179861162  0.8938475882075649  1.0000
  C   C389      1.0  0.5106739721608922  0.2967402216472052  0.8652813640436726  1.0000
  C   C390      1.0  0.4981856122582683  0.3024576303323143  0.9344727746047715  1.0000
  C   C391      1.0  0.4832504646561014  0.2718361075815935  0.8954413362827734  1.0000
  C   C392      1.0  0.47076082275514886  0.31217121516458995  0.8802196721387422  1.0000
  H   H269      1.0  0.525880462096146  0.28425284976816606  0.8742570288596653  1.0000
  H   H270      1.0  0.5169428164014396  0.3145311710253911  0.8632852466516289  1.0000
  H   H271      1.0  0.5056730791919396  0.29175757095332505  0.8343073945765482  1.0000
  H   H272      1.0  0.5039722117886473  0.3204884448968099  0.934415718652103  1.0000
  H   H273      1.0  0.4835141477036337  0.3018741070243564  0.9567016037217231  1.0000
  H   H274      1.0  0.5131735596180708  0.29037401501072  0.9456175524606507  1.0000
  H   H275      1.0  0.4679101748754822  0.27045125526077124  0.9160243726790892  1.0000
  H   H276      1.0  0.4978307192631732  0.2588923339281582  0.9053968356541047  1.0000
  H   H277      1.0  0.4778015898791036  0.26636995312117906  0.8651965853979964  1.0000
  H   H278      1.0  0.4552211596517893  0.3115666385670528  0.9006505387033403  1.0000
  H   H279      1.0  0.4646555366290242  0.3076462772517928  0.8496568636179079  1.0000
  H   H280      1.0  0.47560693829742506  0.3305184024452936  0.8787899688330311  1.0000
  N   N3        1.0  0.3017952140051428  0.09336638917680751  0.22989874804793864  1.0000
  C   C393      1.0  0.2867595382143306  0.11415251433406616  0.2431452047110959  1.0000
  C   C394      1.0  0.32213487646895345  0.10092590220048224  0.20683865540584187  1.0000
  C   C395      1.0  0.2879828112843003  0.07882442647670396  0.20405772639344055  1.0000
  C   C396      1.0  0.31033959132579036  0.07952123143163159  0.2655902164720607  1.0000
  H   H281      1.0  0.2969519192430957  0.12591597074463518  0.26135595937071443  1.0000
  H   H282      1.0  0.2718442463154001  0.1092141882609935  0.2623899457633064  1.0000
  H   H283      1.0  0.27930551706290463  0.124616360060188  0.2170400122106414  1.0000
  H   H284      1.0  0.3336578083900123  0.08571525454341655  0.19567861755144836  1.0000
  H   H285      1.0  0.31635078978726294  0.11203038580216032  0.18031843208646203  1.0000
  H   H286      1.0  0.33321380558394464  0.11154604430942731  0.22571521352951057  1.0000
  H   H287      1.0  0.2812611912899215  0.08857073678136795  0.17666152937758153  1.0000
  H   H288      1.0  0.2725535257629713  0.07272684199059067  0.2206677324793293  1.0000
  H   H289      1.0  0.2988076191867822  0.06286152369197917  0.1939213920982854  1.0000
  H   H290      1.0  0.29546880087494864  0.0727675112177122  0.28281918337192563  1.0000
  H   H291      1.0  0.320087461337538  0.09013980730005941  0.2867034999194372  1.0000
  H   H292      1.0  0.32219565822451945  0.06401341336491662  0.256651785934971  1.0000
  N   N4        1.0  0.15421186427190464  0.41698227042772784  0.31239260490326054  1.0000
  C   C397      1.0  0.155239017729543  0.42128793959675537  0.35620456139122453  1.0000
  C   C398      1.0  0.17837403181141712  0.4149139062620841  0.29554928416429965  1.0000
  C   C399      1.0  0.14022442880765082  0.43668292532287256  0.29236360175007425  1.0000
  C   C400      1.0  0.14302882884250545  0.3950731313262623  0.3054992763696828  1.0000
  H   H293      1.0  0.1626097787248963  0.438195384258615  0.3624646056259857  1.0000
  H   H294      1.0  0.1665281814239651  0.4072302822575512  0.37199146386081977  1.0000
  H   H295      1.0  0.1374424720200842  0.4217605185379637  0.3703827055151438  1.0000
  H   H296      1.0  0.1871511988697019  0.43128539642506636  0.2998658186089459  1.0000
  H   H297      1.0  0.18964122126330496  0.4004871672661483  0.3104527070457401  1.0000
  H   H298      1.0  0.17837513161324287  0.4114068451052832  0.262627358011103  1.0000
  H   H299      1.0  0.12197413582649735  0.4390032011463833  0.30470120295552183  1.0000
  H   H300      1.0  0.1388510807222762  0.4338656034233176  0.25930850491226026  1.0000
  H   H301      1.0  0.14839396754677467  0.45346262883247923  0.2963390692990037  1.0000
  H   H302      1.0  0.12482329183169458  0.3959674655839435  0.31816565454433876  1.0000
  H   H303      1.0  0.15308346987518714  0.37989780755681174  0.32040678601819933  1.0000
  H   H304      1.0  0.14193857119408912  0.39117948212408027  0.27280466740608944  1.0000
  N   N5        1.0  0.9627487717945454  0.4033496603643764  0.1992236277562559  1.0000
  C   C401      1.0  0.9606042331057691  0.3843648639328021  0.22918730455637262  1.0000
  C   C402      1.0  0.9831901348494185  0.39729124106015595  0.1725827492692921  1.0000
  C   C403      1.0  0.9662081759636348  0.42528721691835814  0.22038216813026654  1.0000
  C   C404      1.0  0.9410068606663852  0.4065369101806224  0.17483043931157952  1.0000
  H   H305      1.0  0.9766734835848719  0.38150856268778655  0.24827556592113378  1.0000
  H   H306      1.0  0.9579127748299423  0.36748677836056376  0.21447858012901647  1.0000
  H   H307      1.0  0.9454404190512372  0.38848208012106505  0.2500105673584304  1.0000
  H   H308      1.0  0.9812751997983152  0.3807612086123494  0.15620351129976123  1.0000
  H   H309      1.0  0.985180389494223  0.4112901877430594  0.14953523382505274  1.0000
  H   H310      1.0  0.9998910808614463  0.3950382850555387  0.19010125866301453  1.0000
  H   H311      1.0  0.982084480163392  0.42337178806724707  0.24000064100267313  1.0000
  H   H312      1.0  0.9507369343053724  0.4309225008677075  0.2395580762228551  1.0000
  H   H313      1.0  0.9686401055460008  0.4398333958063369  0.19884016339094776  1.0000
  H   H314      1.0  0.9378761041170156  0.3903695724455197  0.15822852660316544  1.0000
  H   H315      1.0  0.9419752499455172  0.42086263201988433  0.1520773377295133  1.0000
  H   H316      1.0  0.9252657022163221  0.41120381640838327  0.19406548983418045  1.0000
  N   N6        1.0  0.0866619048749875  0.3202876275416538  0.481833602053946  1.0000
  C   C405      1.0  0.09968744845884407  0.32678284052765283  0.5179557920982798  1.0000
  C   C406      1.0  0.07181231070309013  0.34090930812964304  0.4667124614338312  1.0000
  C   C407      1.0  0.07150699996242206  0.3014652217098638  0.49244565281881686  1.0000
  C   C408      1.0  0.10361863424785879  0.3120437050567076  0.4501300008456532  1.0000
  H   H317      1.0  0.11114851627725808  0.31166445499691964  0.5301687566426757  1.0000
  H   H318      1.0  0.08743172277258544  0.3331149156260545  0.5425309934385901  1.0000
  H   H319      1.0  0.11127293685481478  0.34099051093271365  0.5108832821756618  1.0000
  H   H320      1.0  0.06190395788746339  0.33666407475683796  0.43921033367637297  1.0000
  H   H321      1.0  0.05849867798203291  0.3473444894151291  0.48961806280990533  1.0000
  H   H322      1.0  0.08264370482399898  0.3555489316728161  0.4586907830454766  1.0000
  H   H323      1.0  0.08207150703158717  0.2853903837393883  0.5030716140018631  1.0000
  H   H324      1.0  0.06086543850794392  0.2967064864021674  0.4660938169386028  1.0000
  H   H325      1.0  0.058791284260969905  0.3069703829631401  0.5168776206729544  1.0000
  H   H326      1.0  0.09443439130192419  0.30793951449278895  0.4217698430945889  1.0000
  H   H327      1.0  0.11459045937842641  0.2960097179539657  0.4598329447698441  1.0000
  H   H328      1.0  0.11590820525312363  0.3255301792073172  0.44260237980706546  1.0000
  N   N7        1.0  0.6159678087813907  0.2592760006919137  0.5484522698328808  1.0000
  C   C409      1.0  0.629451816797422  0.2646974592930387  0.5846593372349461  1.0000
  C   C410      1.0  0.5936158608249554  0.2498928376641217  0.5608306151064228  1.0000
  C   C411      1.0  0.6300123985045669  0.24171708232821684  0.5240333568708836  1.0000
  C   C412      1.0  0.6107751319131548  0.2808280168612891  0.5241712482775358  1.0000
  H   H329      1.0  0.6340827838584755  0.24876360881040108  0.6030857260638016  1.0000
  H   H330      1.0  0.6191985168260606  0.2774072089662414  0.6045033240132927  1.0000
  H   H331      1.0  0.6464054865113384  0.27190480546522516  0.5765224772646009  1.0000
  H   H332      1.0  0.5827573952999482  0.26243583229543427  0.5801163265453368  1.0000
  H   H333      1.0  0.5829427516564779  0.24576834703287578  0.5341619457487387  1.0000
  H   H334      1.0  0.5969093967562511  0.23340605483022003  0.578583341901618  1.0000
  H   H335      1.0  0.6475760152465334  0.2475730867282891  0.5158961747042166  1.0000
  H   H336      1.0  0.6208349348689414  0.23806577235891924  0.49556790715899685  1.0000
  H   H337      1.0  0.6332795797155372  0.224774158182826  0.5406322526848917  1.0000
  H   H338      1.0  0.6273028287853082  0.28824509916025703  0.5141857824236119  1.0000
  H   H339      1.0  0.6002445139572319  0.2944610332139283  0.5417759702812857  1.0000
  H   H340      1.0  0.6005580584677285  0.277342208043101  0.4966252326385411  1.0000
  N   N8        1.0  0.11344464695453138  0.4050993301228155  0.8695490452790848  1.0000
  C   C413      1.0  0.0891230108063607  0.4021103668281475  0.8563920584410517  1.0000
  C   C414      1.0  0.11693202294701303  0.4302951283777975  0.8714222283604899  1.0000
  C   C415      1.0  0.13031966286130087  0.39362781625106497  0.840529320560205  1.0000
  C   C416      1.0  0.11747138619275134  0.394223716001511  0.9098168879835463  1.0000
  H   H341      1.0  0.08601371278160252  0.3832472039445086  0.854371366668081  1.0000
  H   H342      1.0  0.08551848138897378  0.4102357311937193  0.8261644904241103  1.0000
  H   H343      1.0  0.07589842761771393  0.4104130319329946  0.8778150248202531  1.0000
  H   H344      1.0  0.10451662791303498  0.43954350614188564  0.8930868519890011  1.0000
  H   H345      1.0  0.13515245630099884  0.43321854430604473  0.8810263013677025  1.0000
  H   H346      1.0  0.11415898848454269  0.43907727258762297  0.841454880126055  1.0000
  H   H347      1.0  0.12831249743428383  0.3745466247766238  0.8387279426137834  1.0000
  H   H348      1.0  0.14886866943638127  0.3956794304517328  0.8493522712829839  1.0000
  H   H349      1.0  0.1276770172098759  0.401188002086227  0.8096601464147387  1.0000
  H   H350      1.0  0.11503901152503106  0.37516520060307273  0.9092791999444185  1.0000
  H   H351      1.0  0.10499909128333304  0.4023618132112112  0.9324977590200129  1.0000
  H   H352      1.0  0.13566042393258831  0.3962358206717758  0.9206341996764822  1.0000
  N   N9        1.0  0.6722780886992186  0.9720417790475268  0.9649198232463432  1.0000
  C   C417      1.0  0.6667787678238101  0.962606619494463  0.9251077392212128  1.0000
  C   C418      1.0  0.6534712703416015  0.9901435366839125  0.976496716377122  1.0000
  C   C419      1.0  0.6951524159673073  0.9824272949082063  0.9626866424189452  1.0000
  C   C420      1.0  0.6736889142001745  0.9529154618259579  0.9952555496222171  1.0000
  H   H353      1.0  0.6494477780719505  0.9549875314001809  0.9252057010045122  1.0000
  H   H354      1.0  0.6805817197363081  0.9489159963812416  0.9151765420678742  1.0000
  H   H355      1.0  0.6659432316490517  0.9765537007147893  0.9016209427484079  1.0000
  H   H356      1.0  0.6568404154529288  0.9975888469529941  0.0065432928310051874  1.0000
  H   H357      1.0  0.6519352191750236  0.004885102188068258  0.9543168860128911  1.0000
  H   H358      1.0  0.6358681591493449  0.9830280828738079  0.9775955744139057  1.0000
  H   H359      1.0  0.6947192169329104  0.9969642167078796  0.9401262435969783  1.0000
  H   H360      1.0  0.7096452422196036  0.9693471694689179  0.953102576979811  1.0000
  H   H361      1.0  0.7000951913644583  0.9895805246821723  0.9922070842739644  1.0000
  H   H362      1.0  0.6876937265960182  0.9389591885136113  0.9872885856664624  1.0000
  H   H363      1.0  0.6567160881284403  0.9446783998986658  0.9975673628288557  1.0000
  H   H364      1.0  0.6778177002523738  0.9594034368312059  0.025717547791597406  1.0000
  N   N10       1.0  0.3834290819380293  0.19097133479815653  0.861416879544388  1.0000
  C   C421      1.0  0.38036734199262373  0.20281440890715596  0.82170129748767  1.0000
  C   C422      1.0  0.4047696290464813  0.17438987907463055  0.8605806007718053  1.0000
  C   C423      1.0  0.36254186039999914  0.1781714733023847  0.8705597402555391  1.0000
  C   C424      1.0  0.38601657637272746  0.20861071881926874  0.8928227862868297  1.0000
  H   H365      1.0  0.37909469572207755  0.1899985361606169  0.7970123760754287  1.0000
  H   H366      1.0  0.3955670409030624  0.21309397118834839  0.814241188367317  1.0000
  H   H367      1.0  0.3641303364097037  0.21509184380462254  0.8209879345030323  1.0000
  H   H368      1.0  0.4036349772597534  0.16107589697526836  0.8366379287025684  1.0000
  H   H369      1.0  0.4208498458618756  0.18356460245238204  0.8540735086287253  1.0000
  H   H370      1.0  0.40752863109971094  0.16489042571558432  0.8898503357954539  1.0000
  H   H371      1.0  0.3640226183525309  0.169289489803494  0.9006314588176628  1.0000
  H   H372      1.0  0.36018123046034556  0.1645279405499016  0.8477030346844402  1.0000
  H   H373      1.0  0.3460838849485564  0.19017843704329973  0.8710048029066031  1.0000
  H   H374      1.0  0.3888620958071024  0.20033459184734292  0.9231371258596859  1.0000
  H   H375      1.0  0.36993955214647384  0.2209414735925357  0.8948322877542128  1.0000
  H   H376      1.0  0.4011124955383967  0.21920134097727706  0.8862101278522102  1.0000
  N   N11       1.0  0.9391316775482542  0.5800108960384032  0.9110310825713163  1.0000
  C   C425      1.0  0.9528194429452217  0.584471284393372  0.8741354898694468  1.0000
  C   C426      1.0  0.9217400030435831  0.5630705698144791  0.9022959597744437  1.0000
  C   C427      1.0  0.9266191617197236  0.6021647844278007  0.9246734856139157  1.0000
  C   C428      1.0  0.9553067988157595  0.5704047795712422  0.9430682253255285  1.0000
  H   H377      1.0  0.9652309285928274  0.5980757194160907  0.8792514998951063  1.0000
  H   H378      1.0  0.9411336986738925  0.5906421603928873  0.8486744754587978  1.0000
  H   H379      1.0  0.9635680551949589  0.5684277731646664  0.864100512471967  1.0000
  H   H380      1.0  0.9091990293481849  0.5696388419104499  0.8782908413517995  1.0000
  H   H381      1.0  0.9305174156634217  0.5461397358779365  0.8920518935800108  1.0000
  H   H382      1.0  0.911338466844456  0.5590584539775201  0.9296715979638944  1.0000
  H   H383      1.0  0.9165966345484592  0.5995860122949304  0.9530606530224071  1.0000
  H   H384      1.0  0.9139432496373011  0.6096617672456583  0.9015068474339225  1.0000
  H   H385      1.0  0.9391530152182653  0.615567591975187  0.930489899100931  1.0000
  H   H386      1.0  0.9677170861340851  0.5832630574497277  0.9522541850311128  1.0000
  H   H387      1.0  0.9660334167496566  0.5543692139514111  0.932891731625722  1.0000
  H   H388      1.0  0.9454966166120841  0.5653859435622539  0.9705151480119311  1.0000
  N   N12       1.0  0.7665085438174136  0.06463879313325349  0.28889444824835053  1.0000
  C   C429      1.0  0.7729157549408684  0.039175663914007064  0.2880863347773726  1.0000
  C   C430      1.0  0.7880287238346878  0.07705845253436584  0.29320121612174715  1.0000
  C   C431      1.0  0.7505622896398905  0.070139853708578  0.3234402625969889  1.0000
  C   C432      1.0  0.7545726895459497  0.07213853741394716  0.2508211150384626  1.0000
  H   H389      1.0  0.7570343031484427  0.02933346938332915  0.2847885019278537  1.0000
  H   H390      1.0  0.7818240028164918  0.03299915778660245  0.3165446909089919  1.0000
  H   H391      1.0  0.7850694834929344  0.03435881591425871  0.2625173986394727  1.0000
  H   H392      1.0  0.7837172950657811  0.09633744456446258  0.2939580213286262  1.0000
  H   H393      1.0  0.7974756928567517  0.07183713228055577  0.3216261922450401  1.0000
  H   H394      1.0  0.8004753849075755  0.07318414729491218  0.2676329511111252  1.0000
  H   H395      1.0  0.7449880734686142  0.08913812237499448  0.32457229302435125  1.0000
  H   H396      1.0  0.7591596153544549  0.06495907770328602  0.35272442381657937  1.0000
  H   H397      1.0  0.7341785730427488  0.060934602254575816  0.3213227832207568  1.0000
  H   H398      1.0  0.7376282810250009  0.06400862189658918  0.24739954852916513  1.0000
  H   H399      1.0  0.7658449591788834  0.06741757093649325  0.2241065315619954  1.0000
  H   H400      1.0  0.750247093222189  0.09142684807875627  0.24981419925212722  1.0000
  N   N13       1.0  0.15611534679722378  0.7728510770185838  0.8411901601519018  1.0000
  C   C433      1.0  0.17680796392384493  0.7813740814639862  0.8203898064213658  1.0000
  C   C434      1.0  0.1538987015222199  0.782911079714691  0.8820108034316867  1.0000
  C   C435      1.0  0.15920026020855021  0.7470607719866261  0.8446852751590243  1.0000
  C   C436      1.0  0.13458969971048923  0.7800046299177715  0.8178240292194918  1.0000
  H   H401      1.0  0.1784236989838557  0.7749973093733254  0.7888245649936237  1.0000
  H   H402      1.0  0.19345475529814504  0.7753616696149136  0.8362076053043423  1.0000
  H   H403      1.0  0.17569730158390592  0.8008228197445835  0.818826067008687  1.0000
  H   H404      1.0  0.1381406469067633  0.7773210045934688  0.8982233328697585  1.0000
  H   H405      1.0  0.16947664583947553  0.777165732636152  0.900736787977263  1.0000
  H   H406      1.0  0.15252054888560812  0.8023620625395312  0.8810829866539174  1.0000
  H   H407      1.0  0.1439219088955053  0.7399938404268129  0.8602882653029227  1.0000
  H   H408      1.0  0.1752735061479571  0.7411391495165368  0.8624388429663958  1.0000
  H   H409      1.0  0.1610270413067455  0.7387411044815577  0.8145674079900364  1.0000
  H   H410      1.0  0.11863173844627267  0.7738219651972011  0.8326178614090115  1.0000
  H   H411      1.0  0.13569728348311355  0.772760151197793  0.786801107853478  1.0000
  H   H412      1.0  0.13181333110313462  0.7993828373442958  0.8147471262181674  1.0000
  N   N14       1.0  0.7217910085810731  0.1297564232112708  0.8758076736169003  1.0000
  C   C437      1.0  0.7211700031938028  0.15492067165373402  0.8654761392901905  1.0000
  C   C438      1.0  0.6986351678158937  0.1245303730481337  0.8922790217937486  1.0000
  C   C439      1.0  0.7403241567451337  0.12379602529990895  0.9062227456268555  1.0000
  C   C440      1.0  0.7270708073764779  0.1157726453781974  0.8391991793380703  1.0000
  H   H413      1.0  0.7167087946035446  0.16607185013067183  0.8921096092970596  1.0000
  H   H414      1.0  0.7078253594088324  0.15996500591933152  0.8417308459337137  1.0000
  H   H415      1.0  0.7385220186250233  0.15958450700206991  0.8538517298662028  1.0000
  H   H416      1.0  0.6982309259167356  0.10556838453521145  0.8994859268509409  1.0000
  H   H417      1.0  0.6941568050676542  0.1345153329221875  0.9202246117488578  1.0000
  H   H418      1.0  0.6842822786802117  0.1290835255326927  0.8701000009304342  1.0000
  H   H419      1.0  0.7369704501804857  0.13404820199627748  0.9342714466452902  1.0000
  H   H420      1.0  0.7580076055737786  0.12764517984005389  0.8946214035618804  1.0000
  H   H421      1.0  0.7413054272389407  0.10490157367618867  0.9146543848185228  1.0000
  H   H422      1.0  0.7266848233395939  0.09671954273889648  0.8454947716140205  1.0000
  H   H423      1.0  0.7446986205937695  0.11877008719402879  0.826604970169783  1.0000
  H   H424      1.0  0.7139120899259948  0.12035246780212794  0.8150537593789541  1.0000
  N   N15       1.0  0.17250257709743372  0.45561528751940494  0.08371913311278956  1.0000
  C   C441      1.0  0.15576563903999657  0.4380669439567084  0.09361177445631808  1.0000
  C   C442      1.0  0.1921945725120439  0.4535293150689727  0.11282922305264342  1.0000
  C   C443      1.0  0.1601829284907706  0.4792775906930848  0.08602862800393463  1.0000
  C   C444      1.0  0.1817234288271358  0.4516320920206524  0.04242076088679281  1.0000
  H   H425      1.0  0.14048295967771415  0.4394885516572799  0.07257915327542097  1.0000
  H   H426      1.0  0.14851201275394255  0.44049485259710064  0.12464960412837106  1.0000
  H   H427      1.0  0.1643443328893222  0.41996820074319013  0.09176698318760447  1.0000
  H   H428      1.0  0.20185626280187524  0.4358589777323155  0.11219483401898983  1.0000
  H   H429      1.0  0.2052235561564841  0.46643106743917284  0.10608350392305922  1.0000
  H   H430      1.0  0.18576786426661152  0.45671879323183834  0.14424498999780205  1.0000
  H   H431      1.0  0.15314368169491646  0.4827699419301926  0.11681054982613005  1.0000
  H   H432      1.0  0.14504059168520364  0.4814849356290836  0.0648325218049044  1.0000
  H   H433      1.0  0.17214657984492301  0.4930138749044969  0.07861806720518329  1.0000
  H   H434      1.0  0.19156544336916173  0.4341347382185956  0.03965152069136236  1.0000
  H   H435      1.0  0.19396819081568975  0.46487662055564166  0.03344461541096866  1.0000
  H   H436      1.0  0.16714874964024543  0.4526950357826975  0.0200626451016257  1.0000
  N   N16       1.0  0.8674050003039536  0.23209266196319223  0.9391421559670595  1.0000
  C   C445      1.0  0.8713141342647717  0.2327809325526704  0.9831623270904902  1.0000
  C   C446      1.0  0.8459722645616756  0.22011636128330833  0.9310331057730739  1.0000
  C   C447      1.0  0.8879647219111896  0.21926107505660047  0.9197052407383167  1.0000
  C   C448      1.0  0.8643725328265007  0.2561772422507269  0.9225666078363901  1.0000
  H   H437      1.0  0.8735027433543564  0.21484776057883778  0.9964776990063855  1.0000
  H   H438      1.0  0.8562064047442303  0.24237884300632975  0.9989262686245208  1.0000
  H   H439      1.0  0.8875136060172496  0.24142534120094622  0.9904613223804271  1.0000
  H   H440      1.0  0.8422819958858181  0.21959000351098687  0.8981464587765653  1.0000
  H   H441      1.0  0.8477833953574407  0.20173528857264517  0.942224313032647  1.0000
  H   H442      1.0  0.8301461944531273  0.22905186554409557  0.9457788208328014  1.0000
  H   H443      1.0  0.8854976662328191  0.2182472251593046  0.8865221019277828  1.0000
  H   H444      1.0  0.8908700989000061  0.20103021393964657  0.9315758776369933  1.0000
  H   H445      1.0  0.904432971688375  0.2279082344254776  0.9248233645925524  1.0000
  H   H446      1.0  0.8612417538107977  0.256157204765952  0.8893901668258937  1.0000
  H   H447      1.0  0.8802955422531381  0.2657020763779717  0.9276821477448906  1.0000
  H   H448      1.0  0.8490251097473568  0.26641222416432625  0.9365377916096252  1.0000
  N   N17       1.0  0.38576933662404456  0.9280633735727244  0.440711648679869  1.0000
  C   C449      1.0  0.40985157479067563  0.9263935685932895  0.4576311103698256  1.0000
  C   C450      1.0  0.3757159096921107  0.9052594090193102  0.44472038145062753  1.0000
  C   C451      1.0  0.3866923080743539  0.934704005661601  0.397563311268468  1.0000
  C   C452      1.0  0.3707695447092589  0.9459762749304574  0.4628504284745583  1.0000
  H   H449      1.0  0.4175014464363838  0.9435977352984963  0.45621779576109606  1.0000
  H   H450      1.0  0.42207527374620274  0.9138512485704541  0.44062244539954015  1.0000
  H   H451      1.0  0.41004341273926537  0.9207086452540633  0.4898379528341144  1.0000
  H   H452      1.0  0.3746439928186332  0.899662867838175  0.476879796764936  1.0000
  H   H453      1.0  0.35750190339962484  0.9061400225122513  0.43213345464706693  1.0000
  H   H454      1.0  0.3865671511716605  0.8913553762823235  0.42826651404974103  1.0000
  H   H455      1.0  0.39817225622317254  0.9218152166735994  0.37995868984933723  1.0000
  H   H456      1.0  0.3939696037622403  0.9518978367742416  0.39347532992690953  1.0000
  H   H457      1.0  0.36884302975953304  0.9360117265706244  0.38362956877543203  1.0000
  H   H458      1.0  0.3696261857927488  0.9414703805232997  0.49549741433658684  1.0000
  H   H459      1.0  0.35245995894833043  0.9478307139195904  0.4507831944487506  1.0000
  H   H460      1.0  0.37784458949363425  0.9634352816114812  0.46046136953385364  1.0000
  N   N18       1.0  0.9503086862244611  0.9725119416404058  0.8575517627563832  1.0000
  C   C453      1.0  0.9270413936795343  0.9641141302554471  0.8488924493183054  1.0000
  C   C454      1.0  0.9586134274491888  0.9635889071430461  0.8974663687752352  1.0000
  C   C455      1.0  0.9482700164604503  0.9983560463014418  0.8576960952695827  1.0000
  C   C456      1.0  0.967325356327572  0.9639308169458718  0.8261638856889716  1.0000
  H   H461      1.0  0.9139466704175212  0.9692179868188394  0.8729042032664507  1.0000
  H   H462      1.0  0.928165466965224  0.9447650041623911  0.8465240632755996  1.0000
  H   H463      1.0  0.919656092341767  0.9715375561166588  0.8199883949640244  1.0000
  H   H464      1.0  0.9756280020267661  0.9704152594704795  0.9057324739195708  1.0000
  H   H465      1.0  0.9455503517304674  0.9686210925418134  0.9216163673391238  1.0000
  H   H466      1.0  0.9615490582172919  0.9441995333614174  0.8977753349551248  1.0000
  H   H467      1.0  0.9413869708800703  0.0057865307847320135  0.8284317456167449  1.0000
  H   H468      1.0  0.9655540399618812  0.005372984489870225  0.8632630279791962  1.0000
  H   H469      1.0  0.9358188284467504  0.005289124919436228  0.8815845429311198  1.0000
  H   H470      1.0  0.9615496104754686  0.9703225970449789  0.7956529251168686  1.0000
  H   H471      1.0  0.9691823372934124  0.9444223368870608  0.8254500360606731  1.0000
  H   H472      1.0  0.9851415605144441  0.9697891060932112  0.831748656222147  1.0000
  N   N19       1.0  0.030630768256241003  0.4939723702054579  0.05322638629952969  1.0000
  C   C457      1.0  0.010880288061722698  0.5123222644139784  0.04923112523699458  1.0000
  C   C458      1.0  0.02952195185220563  0.4770092133562324  0.020297949774175317  1.0000
  C   C459      1.0  0.028836978789628986  0.4817368440525216  0.09242230786469796  1.0000
  C   C460      1.0  0.053279392573759576  0.5047532590424734  0.05095336713177723  1.0000
  H   H473      1.0  0.011601501022720617  0.5258224108383468  0.07297073547480326  1.0000
  H   H474      1.0  0.9935432222356597  0.5048492118952519  0.05213827771759294  1.0000
  H   H475      1.0  0.01108860963939784  0.5212787439775107  0.019292834854470087  1.0000
  H   H476      1.0  0.04360275898579302  0.4624480880469894  0.02329589029786927  1.0000
  H   H477      1.0  0.012322103176017896  0.46918344563079  0.019957397597438087  1.0000
  H   H478      1.0  0.0317950326092562  0.4854546835758922  0.9903897479953666  1.0000
  H   H479      1.0  0.04373058396948282  0.4681089707228122  0.09692653941681506  1.0000
  H   H480      1.0  0.012136538091070292  0.47305283579327995  0.09480878799504011  1.0000
  H   H481      1.0  0.029114548186502276  0.49410577408826417  0.11789166341714075  1.0000
  H   H482      1.0  0.06858273039259011  0.49133706865386595  0.05337684025313649  1.0000
  H   H483      1.0  0.05480918358193532  0.5174715029179012  0.07574936323453518  1.0000
  H   H484      1.0  0.055120632365194044  0.5142908172468844  0.021816668330853828  1.0000
  N   N20       1.0  0.21756616131072645  0.9053775855974219  0.9616391665842443  1.0000
  C   C461      1.0  0.22299628233621546  0.8985366157702562  0.9195282231439983  1.0000
  C   C462      1.0  0.1919745136100462  0.9118329971797655  0.9657105666389537  1.0000
  C   C463      1.0  0.23067450770952935  0.9255872824988907  0.972203081181386  1.0000
  C   C464      1.0  0.22458159241732426  0.8855399380904003  0.9890904266328316  1.0000
  H   H485      1.0  0.21350057353055374  0.883217416317087  0.9107430993083792  1.0000
  H   H486      1.0  0.24216446747185308  0.8937661256748138  0.915072192120632  1.0000
  H   H487      1.0  0.21764678203456073  0.913008883829968  0.8979635780673032  1.0000
  H   H488      1.0  0.18719672342342686  0.9173983974202685  0.9969265203334973  1.0000
  H   H489      1.0  0.18605340320948288  0.9265682738500827  0.945043110754153  1.0000
  H   H490      1.0  0.1815610244263829  0.8968857281028491  0.958301054517663  1.0000
  H   H491      1.0  0.226636531165971  0.9316011949700096  0.003480045724295833  1.0000
  H   H492      1.0  0.22600212166470152  0.9407486996533326  0.9518356768561369  1.0000
  H   H493      1.0  0.25006461069885977  0.9213720745886911  0.9697951732185701  1.0000
  H   H494      1.0  0.22064596291789595  0.8900766723870175  0.021096730356159776  1.0000
  H   H495      1.0  0.24376405562403944  0.8801182978048899  0.9866318957724116  1.0000
  H   H496      1.0  0.21499792999943673  0.8699802553118159  0.9819998381298265  1.0000
  N   N21       1.0  0.07891853574629804  0.72349896218441  0.3838460315769404  1.0000
  C   C465      1.0  0.09655016533750828  0.7354370645827067  0.4066340846646676  1.0000
  C   C466      1.0  0.06046839603532851  0.7409642539917454  0.36829285433867487  1.0000
  C   C467      1.0  0.06802805203967788  0.7067257660656475  0.4107729012612709  1.0000
  C   C468      1.0  0.09067058891272935  0.7108343779151436  0.3497253910319972  1.0000
  H   H497      1.0  0.08838484019744863  0.7452326924306023  0.43262660268624725  1.0000
  H   H498      1.0  0.10533745786161255  0.7480760498547143  0.3872096177782707  1.0000
  H   H499      1.0  0.11075868963596369  0.7227487385455774  0.4188026314256046  1.0000
  H   H500      1.0  0.051143025367367916  0.7507936278874697  0.3932650554668362  1.0000
  H   H501      1.0  0.06797556895420319  0.7538794634468136  0.3477237683956595  1.0000
  H   H502      1.0  0.046827731772739904  0.7324858356105014  0.35112340889808374  1.0000
  H   H503      1.0  0.054829894806210255  0.6971820734844156  0.39447125474497347  1.0000
  H   H504      1.0  0.05853758252395135  0.7157523212223674  0.4364147509474832  1.0000
  H   H505      1.0  0.08143186919599789  0.6934207288745134  0.42346490538125886  1.0000
  H   H506      1.0  0.07796056618371305  0.7016919216944972  0.33158532670306073  1.0000
  H   H507      1.0  0.10455690509770614  0.6973795959327036  0.36037807431025565  1.0000
  H   H508      1.0  0.09922558756331164  0.7228812379683469  0.32882089779025725  1.0000
  N   N22       1.0  0.009159283202153874  0.7632847051704145  0.9081242742831003  1.0000
  C   C469      1.0  0.9952573002655982  0.7799587008374445  0.9344112569798831  1.0000
  C   C470      1.0  0.03437423018488883  0.7626518177003361  0.9188947491753575  1.0000
  C   C471      1.0  0.006051841136206269  0.7708102272119038  0.865553897922354  1.0000
  C   C472      1.0  0.0008997759084938748  0.7397566716504134  0.91370351049463  1.0000
  H   H509      1.0  0.9761556553370964  0.7810682890236821  0.9266160262956964  1.0000
  H   H510      1.0  0.001163832347782056  0.797881369230681  0.9313434736178688  1.0000
  H   H511      1.0  0.996906094144193  0.7745528447018517  0.966725686213654  1.0000
  H   H512      1.0  0.041297876200794295  0.7800500306000223  0.9143078971416769  1.0000
  H   H513      1.0  0.03730285959230441  0.7574501279924274  0.9510823693535349  1.0000
  H   H514      1.0  0.045298826346859444  0.749871385267414  0.9001489091440253  1.0000
  H   H515      1.0  0.012469564098328986  0.7883495534209604  0.8602651404571579  1.0000
  H   H516      1.0  0.9871906724567368  0.7719522784658509  0.8565768537859492  1.0000
  H   H517      1.0  0.015991875814388663  0.7584980706361453  0.8446602455662873  1.0000
  H   H518      1.0  0.003964963271875673  0.7331185957589575  0.9450801998000127  1.0000
  H   H519      1.0  0.009985880637465085  0.7268791386479672  0.8927998415245313  1.0000
  H   H520      1.0  0.9817011430004178  0.7399210356479259  0.9079699628685214  1.0000
  N   N23       1.0  0.03625203755376005  0.2620994292587596  0.7494417486909235  1.0000
  C   C473      1.0  0.05714700041923493  0.27452762387936214  0.7386463444232081  1.0000
  C   C474      1.0  0.01900079139558719  0.27807164753763886  0.7712225707570526  1.0000
  C   C475      1.0  0.043450327913623576  0.24174182145017473  0.7756220687822574  1.0000
  C   C476      1.0  0.025273982468932976  0.2541203585243847  0.7122885382527775  1.0000
  H   H521      1.0  0.06522734421859  0.28191209602609674  0.7657189468021274  1.0000
  H   H522      1.0  0.052432494493388715  0.2893836915644482  0.7174546315247387  1.0000
  H   H523      1.0  0.07098145838053704  0.262774607345247  0.7235919537238935  1.0000
  H   H524      1.0  0.026561872039067236  0.2844497206856884  0.799529381306439  1.0000
  H   H525      1.0  0.013301696177817846  0.2936231006513534  0.7523076305641359  1.0000
  H   H526      1.0  0.0028748927236335042  0.26936560245950925  0.7795398402252853  1.0000
  H   H527      1.0  0.027995482834825003  0.23214547351350953  0.7845406549276878  1.0000
  H   H528      1.0  0.05187893562672197  0.24724038601917292  0.8038324196587864  1.0000
  H   H529      1.0  0.05635517745767493  0.229171054760309  0.760114167999882  1.0000
  H   H530      1.0  0.00903637434960225  0.24526009319972947  0.7192692294395198  1.0000
  H   H531      1.0  0.037585364529629794  0.24166097736475597  0.6953529642983654  1.0000
  H   H532      1.0  0.02006029974189505  0.2691181589581923  0.6916128856392674  1.0000
  N   N24       1.0  0.20043778308628868  0.5657967280067386  0.364632263294497  1.0000
  C   C477      1.0  0.19928421586642991  0.5911466082296725  0.37276180874019765  1.0000
  C   C478      1.0  0.22195343828182837  0.5588195113629769  0.3410778247105799  1.0000
  C   C479      1.0  0.1794361671647222  0.5605502619387924  0.3414603826445095  1.0000
  C   C480      1.0  0.2010910053030265  0.5525836473789402  0.4032191109996777  1.0000
  H   H533      1.0  0.19849553277202833  0.60161965021049  0.3442890041201292  1.0000
  H   H534      1.0  0.21505073173895664  0.5958729161795084  0.38956169222952974  1.0000
  H   H535      1.0  0.1833776150814705  0.5970383603567967  0.3907580584080832  1.0000
  H   H536      1.0  0.23815937299293535  0.5626548003185832  0.35749247542322343  1.0000
  H   H537      1.0  0.22344429445033978  0.5397107281050203  0.33472975190981313  1.0000
  H   H538      1.0  0.22200031236488282  0.5682955304824946  0.3115847172331592  1.0000
  H   H539      1.0  0.16285075393228735  0.5657839465000896  0.3580933432497762  1.0000
  H   H540      1.0  0.17967056660082528  0.5415352845888782  0.33511363981858244  1.0000
  H   H541      1.0  0.17852734493692327  0.5699452355418709  0.31190881931906933  1.0000
  H   H542      1.0  0.2020801697262498  0.5333625046374524  0.3980223690800578  1.0000
  H   H543      1.0  0.18504475842429868  0.5572236569668914  0.42169971719748744  1.0000
  H   H544      1.0  0.216721427188218  0.5561009848136189  0.4215023047097045  1.0000
  N   N25       1.0  0.22456340888247886  0.14696336928565065  0.9456638664455493  1.0000
  C   C481      1.0  0.2215192859432756  0.14739990488073298  0.9013908795430532  1.0000
  C   C482      1.0  0.20444036345305308  0.1607048635197063  0.9647505255593348  1.0000
  C   C483      1.0  0.2466477273839899  0.1572813988670915  0.9557953346110206  1.0000
  C   C484      1.0  0.22570640717808663  0.12255286678263735  0.9607368845556108  1.0000
  H   H545      1.0  0.2050369612707388  0.1397043541815763  0.8925554780919367  1.0000
  H   H546      1.0  0.23651326502441242  0.1372798532519875  0.8861059040265946  1.0000
  H   H547      1.0  0.2205802903367745  0.1656365441919051  0.8891865545065986  1.0000
  H   H548      1.0  0.20653498227823003  0.1612642961334943  0.9981062695773693  1.0000
  H   H549      1.0  0.20283597289047897  0.17913973344897116  0.9535297803746651  1.0000
  H   H550      1.0  0.18749197425441885  0.15319011490209403  0.9583992317766434  1.0000
  H   H551      1.0  0.24952378677937803  0.1573512760193826  0.9889789421745394  1.0000
  H   H552      1.0  0.24634649494671215  0.1756906697417221  0.9449230729422242  1.0000
  H   H553      1.0  0.2622440139709503  0.14741236352686563  0.9418671949123911  1.0000
  H   H554      1.0  0.2408468191308255  0.11169222067494622  0.9473361703794934  1.0000
  H   H555      1.0  0.2094236660546063  0.11405409594087694  0.9535173414324335  1.0000
  H   H556      1.0  0.22793184137282435  0.12163285578909427  0.9941164927216601  1.0000
  N   N26       1.0  0.07846043861902997  0.6255323431825646  0.9282453843385817  1.0000
  C   C485      1.0  0.08201861329418247  0.5997285225930108  0.92717823517481  1.0000
  C   C486      1.0  0.06744836373345797  0.6328740728064087  0.9670354787248926  1.0000
  C   C487      1.0  0.06295264097782628  0.6340294100559521  0.8945925474479419  1.0000
  C   C488      1.0  0.10144981853877366  0.6354881825017358  0.9241288581977659  1.0000
  H   H557      1.0  0.06506964739866851  0.5915569427240053  0.9303171081157864  1.0000
  H   H558      1.0  0.09385026097565187  0.5926316357714037  0.9518724510506371  1.0000
  H   H559      1.0  0.09027927013299263  0.5935465671889282  0.8982488202286117  1.0000
  H   H560      1.0  0.05002365247240183  0.6257456750920735  0.9710779983957747  1.0000
  H   H561      1.0  0.0786344017251448  0.6265398924579447  0.9930361270796263  1.0000
  H   H562      1.0  0.06464438737356071  0.6522767178874398  0.9689640785115973  1.0000
  H   H563      1.0  0.04557487290412477  0.6266062747466961  0.8964440885936678  1.0000
  H   H564      1.0  0.07092249648363592  0.6289847348879657  0.8648739954577084  1.0000
  H   H565      1.0  0.059592587090479654  0.653387179192031  0.8947702364486927  1.0000
  H   H566      1.0  0.09951697459495233  0.6549401743075345  0.9247104275420082  1.0000
  H   H567      1.0  0.11028151441564546  0.630285856298121  0.8951984136450667  1.0000
  H   H568      1.0  0.11360923198855874  0.6294235643545658  0.9490351101297562  1.0000
  N   N27       1.0  0.8781133936343058  0.9603053445858281  0.16265841623175786  1.0000
  C   C489      1.0  0.8566833567567607  0.9764459880631015  0.16788161797998735  1.0000
  C   C490      1.0  0.8975104872917192  0.973410747761067  0.14696468793538026  1.0000
  C   C491      1.0  0.8732505718959757  0.9419326547896153  0.13372401346689444  1.0000
  C   C492      1.0  0.8850000492170267  0.9494706305254902  0.20201136376998446  1.0000
  H   H569      1.0  0.841648821682537  0.9671780837324999  0.1796241507293289  1.0000
  H   H570      1.0  0.851087065975407  0.9850798346949947  0.13882029412327151  1.0000
  H   H571      1.0  0.8596342565230825  0.9905018876280891  0.18965212126295944  1.0000
  H   H572      1.0  0.9011876547215623  0.9879033487806743  0.16742939683502345  1.0000
  H   H573      1.0  0.914133974257433  0.9619101551234045  0.14357654479664292  1.0000
  H   H574      1.0  0.8931885726120852  0.981296807363288  0.11673458806862051  1.0000
  H   H575      1.0  0.8890894898145756  0.929505992310162  0.128842344801613  1.0000
  H   H576      1.0  0.8679281918165148  0.9496350931416366  0.10374288092990688  1.0000
  H   H577      1.0  0.8587430532457742  0.9316384270865826  0.14466045913988243  1.0000
  H   H578      1.0  0.900844161511276  0.9368192139277798  0.19930643639538112  1.0000
  H   H579      1.0  0.8705821673607093  0.939926098250838  0.21545072046440553  1.0000
  H   H580      1.0  0.8892160633240326  0.962867139530424  0.2242724021182031  1.0000
  N   N28       1.0  0.040218159984971795  0.8658058618494389  0.6860250009701521  1.0000
  C   C493      1.0  0.021326219757586078  0.8741856605530238  0.6575915551602793  1.0000
  C   C494      1.0  0.03851936676546508  0.8802883473658815  0.722652864436096  1.0000
  C   C495      1.0  0.06350080855376428  0.8675320281006161  0.6668056526847159  1.0000
  C   C496      1.0  0.03756660151725177  0.8411626223652637  0.6971614296108026  1.0000
  H   H581      1.0  0.02231726513032449  0.8638930481526447  0.6292823879622222  1.0000
  H   H582      1.0  0.022393717046486957  0.8928535876198677  0.6490376949311026  1.0000
  H   H583      1.0  0.003513440455623178  0.8725563451479783  0.6709327643793571  1.0000
  H   H584      1.0  0.03968011301788921  0.8991183774747634  0.715390308743629  1.0000
  H   H585      1.0  0.021647166702771337  0.8786094035813299  0.7390646827820124  1.0000
  H   H586      1.0  0.05304125964566642  0.8749629178292337  0.7439976133622909  1.0000
  H   H587      1.0  0.07809665729542938  0.8614297044883706  0.687747296375247  1.0000
  H   H588      1.0  0.06612396124762143  0.8858913723592088  0.6579221630703688  1.0000
  H   H589      1.0  0.06550607030607015  0.8566179450088801  0.6392956577831638  1.0000
  H   H590      1.0  0.05158023977885029  0.8341601085706317  0.7183641687362906  1.0000
  H   H591      1.0  0.03860950768940285  0.8297331121980261  0.670259033641736  1.0000
  H   H592      1.0  0.020324352357434353  0.8391528851896245  0.7123028348659025  1.0000
  N   N29       1.0  0.9640356777509314  0.9645311067639276  0.3893360725594017  1.0000
  C   C497      1.0  0.9604817581663234  0.9903573325135746  0.3897114107786234  1.0000
  C   C498      1.0  0.947886440234788  0.9554336982899513  0.3597355284433396  1.0000
  C   C499      1.0  0.9590874931957377  0.9551065997573631  0.4299134317099472  1.0000
  C   C500      1.0  0.9886667061532992  0.957152103384586  0.37795395174987817  1.0000
  H   H593      1.0  0.9724861138766553  0.9978624447515786  0.41154435980160275  1.0000
  H   H594      1.0  0.9420541451886465  0.9965061751320777  0.3982584163411319  1.0000
  H   H595      1.0  0.9638326846260804  0.9980864126813753  0.35944929735878806  1.0000
  H   H596      1.0  0.9513464207018635  0.9618561363596443  0.3286607431080223  1.0000
  H   H597      1.0  0.9497228598254813  0.9359621668855934  0.35925341432692687  1.0000
  H   H598      1.0  0.9291824390034411  0.9610094080039807  0.3670573990676513  1.0000
  H   H599      1.0  0.9615577954430906  0.935661772407804  0.43067316861368227  1.0000
  H   H600      1.0  0.9406035273160125  0.9601061847929383  0.43953642723279873  1.0000
  H   H601      1.0  0.9710530377475034  0.9614365067204435  0.45305811264663354  1.0000
  H   H602      1.0  0.9917865889643949  0.9377425934130302  0.3766770310460585  1.0000
  H   H603      1.0  0.0014077251760422583  0.9630813593173312  0.400255932948615  1.0000
  H   H604      1.0  0.9932856159309034  0.9642521375251563  0.34786008824550246  1.0000
  N   N30       1.0  0.25562222573368143  0.2933909082737286  0.8423306573894859  1.0000
  C   C501      1.0  0.2343112962487148  0.29257171171164664  0.8677013618678296  1.0000
  C   C502      1.0  0.25169477189523476  0.3123747364198438  0.811964944639168  1.0000
  C   C503      1.0  0.2605013103738128  0.2707971607826888  0.8216688072602373  1.0000
  C   C504      1.0  0.2759095605671437  0.2977877745275669  0.8679763505329401  1.0000
  H   H605      1.0  0.23026339838713952  0.3091685097894919  0.8843178489886482  1.0000
  H   H606      1.0  0.23635303454202178  0.2780095450453643  0.8902943778519193  1.0000
  H   H607      1.0  0.21865806127867946  0.2897993013449579  0.848990705399671  1.0000
  H   H608      1.0  0.2674652910046071  0.3135742318496432  0.7923685547821505  1.0000
  H   H609      1.0  0.23651549963600935  0.3094964511448177  0.7920804602966496  1.0000
  H   H610      1.0  0.24767813467892705  0.329677622500334  0.826495134422414  1.0000
  H   H611      1.0  0.2768417797996721  0.27050775833748014  0.8030608607437716  1.0000
  H   H612      1.0  0.2457480833399692  0.2670917122818008  0.8014306553365756  1.0000
  H   H613      1.0  0.2630832042922952  0.25601465532532225  0.843736774154304  1.0000
  H   H614      1.0  0.29241193167664314  0.2981285672292987  0.849873605898182  1.0000
  H   H615      1.0  0.27925398259905465  0.28376481685870536  0.8912364962213373  1.0000
  H   H616      1.0  0.2729550608914571  0.31474560809814434  0.8838859027602547  1.0000
  N   N31       1.0  0.17747532229907065  0.8142455494405333  0.3350073574833151  1.0000
  C   C505      1.0  0.190409451191688  0.7912241682696057  0.32781673196944583  1.0000
  C   C506      1.0  0.1795684617288913  0.8204229776520001  0.3778960361324265  1.0000
  C   C507      1.0  0.1523397673602795  0.8131525879923833  0.324890578711582  1.0000
  C   C508      1.0  0.18754169573635712  0.8322030021355434  0.30951485859905375  1.0000
  H   H617      1.0  0.18979740256526526  0.7862960938404971  0.2954705899227471  1.0000
  H   H618      1.0  0.1827542963420016  0.7772020714030866  0.34571603929524364  1.0000
  H   H619      1.0  0.20930172177770423  0.7911070490133146  0.3364124504661044  1.0000
  H   H620      1.0  0.19832063431031863  0.8209318760310257  0.3870159801702687  1.0000
  H   H621      1.0  0.17046433655938834  0.8378783257000668  0.38426092932476114  1.0000
  H   H622      1.0  0.17154195990175836  0.8076286383523523  0.3979400070729175  1.0000
  H   H623      1.0  0.1420523302304907  0.8302840055631843  0.330027057608261  1.0000
  H   H624      1.0  0.14422682994455124  0.7998318313204723  0.3438571284242153  1.0000
  H   H625      1.0  0.15012593350944892  0.8084101154568835  0.2927285973322527  1.0000
  H   H626      1.0  0.18640121263595438  0.8279979662729299  0.2768904162093842  1.0000
  H   H627      1.0  0.2064570073056725  0.8335411644621433  0.3167061759581677  1.0000
  H   H628      1.0  0.17802390828699144  0.8497629049398214  0.31421829984608524  1.0000
  N   N32       1.0  0.27631559465987443  0.2537254896574157  0.19411707200833206  1.0000
  C   C509      1.0  0.2788529544661583  0.23619503339740056  0.1617354059146232  1.0000
  C   C510      1.0  0.26597654899943174  0.2762501400618295  0.17729537777136217  1.0000
  C   C511      1.0  0.2997106825150053  0.25692052845417307  0.21136628103424804  1.0000
  C   C512      1.0  0.260718340499681  0.24559965635289818  0.2261006530036147  1.0000
  H   H629      1.0  0.28766979023999445  0.21926235176481995  0.17286112381265295  1.0000
  H   H630      1.0  0.28962194036758876  0.2423125467469906  0.1362628045367369  1.0000
  H   H631      1.0  0.2614917862749429  0.2326452416627985  0.1490219899370866  1.0000
  H   H632      1.0  0.26392960519023256  0.28989823052566205  0.20098182698910616  1.0000
  H   H633      1.0  0.27733768661500985  0.2828152813081739  0.15294360027447285  1.0000
  H   H634      1.0  0.24827640284943403  0.27450784139922435  0.1641216428727157  1.0000
  H   H635      1.0  0.29840249899127236  0.26960640134619895  0.23660182237651495  1.0000
  H   H636      1.0  0.3117892373056663  0.263611462090438  0.18836091272804056  1.0000
  H   H637      1.0  0.30833604175423557  0.240186874438273  0.22369740241189118  1.0000
  H   H638      1.0  0.25781865978410173  0.2588234266791709  0.2502960587511678  1.0000
  H   H639      1.0  0.2684415423882599  0.22906119513615184  0.2404580036265067  1.0000
  H   H640      1.0  0.243093597224825  0.2423492410918194  0.21411035540398826  1.0000
  N   N33       1.0  0.24014458082383405  0.5625314764274236  0.9584442022195289  1.0000
  C   C513      1.0  0.25426770881484906  0.5464059211149445  0.9858320126565402  1.0000
  C   C514      1.0  0.2167886957623261  0.553768812699863  0.9522779722167645  1.0000
  C   C515      1.0  0.2523293220812669  0.5638518529193611  0.9191292568683616  1.0000
  C   C516      1.0  0.2371595199493566  0.5860555096666525  0.9764022811602017  1.0000
  H   H641      1.0  0.2720119215039978  0.5524385708639897  0.991304747669375  1.0000
  H   H642      1.0  0.2568311564964107  0.5284666830583806  0.9731651110460173  1.0000
  H   H643      1.0  0.2454638785415157  0.5448556715278022  0.015712453606844923  1.0000
  H   H644      1.0  0.2053251738892808  0.5658486600153128  0.9327510266304935  1.0000
  H   H645      1.0  0.21839185869599737  0.5363956422978939  0.9375385451556235  1.0000
  H   H646      1.0  0.20741181001451864  0.5516608605807198  0.9814272905144894  1.0000
  H   H647      1.0  0.2419967876658656  0.5757850716126243  0.8977310455188515  1.0000
  H   H648      1.0  0.2548589736653929  0.5463392533746991  0.904823704318362  1.0000
  H   H649      1.0  0.2700121167835609  0.5704719655954998  0.9225086242072711  1.0000
  H   H650      1.0  0.25439633618082214  0.5932704497606845  0.9815632182375886  1.0000
  H   H651      1.0  0.22787697854774883  0.5857775595786063  0.006015017937956779  1.0000
  H   H652      1.0  0.2265740900037873  0.5987060855693743  0.9565324213086871  1.0000
  N   N34       1.0  0.9886167730582173  0.2033792661281279  0.2571868478451858  1.0000
  C   C517      1.0  0.9754989808902623  0.225283480618295  0.2430367045764296  1.0000
  C   C518      1.0  0.9769571841179896  0.19444944466510447  0.29342609401883313  1.0000
  C   C519      1.0  0.01299313028624538  0.2080771923960336  0.2674055683895174  1.0000
  C   C520      1.0  0.9890095670002383  0.18572249607823477  0.2250339464877644  1.0000
  H   H653      1.0  0.9566141821382714  0.22280379294837643  0.23732592218665807  1.0000
  H   H654      1.0  0.9830591478797082  0.23192044860515323  0.2145873993415338  1.0000
  H   H655      1.0  0.9759305855417664  0.23932962708566072  0.2658055609810809  1.0000
  H   H656      1.0  0.9856629115862547  0.17734516033652603  0.3037949557214827  1.0000
  H   H657      1.0  0.9772999737850525  0.20687969424230176  0.31891852914259317  1.0000
  H   H658      1.0  0.958186783145076  0.19166126210753992  0.28729315470413785  1.0000
  H   H659      1.0  0.023388056657610568  0.19194531623552688  0.2783141972512949  1.0000
  H   H660      1.0  0.013165644454236736  0.22133821057500053  0.2917431867781258  1.0000
  H   H661      1.0  0.022322900641315035  0.2149672121592652  0.24083510199959832  1.0000
  H   H662      1.0  0.9983021114078247  0.16878355934724282  0.23496935270496924  1.0000
  H   H663      1.0  0.9978213647909976  0.1916816591783175  0.19722388737610613  1.0000
  H   H664      1.0  0.9708378945513618  0.18195686983704443  0.21664865495438645  1.0000
  N   N35       1.0  0.4056058474541332  0.07166951859550674  0.37546281780947255  1.0000
  C   C521      1.0  0.41049329402154694  0.08923784187756678  0.3442665597714036  1.0000
  C   C522      1.0  0.38610719404767796  0.058301871440476605  0.3619525030881284  1.0000
  C   C523      1.0  0.398840588755911  0.08366063950565716  0.4135382735053513  1.0000
  C   C524      1.0  0.4268715449038983  0.05544884360263347  0.382106840641721  1.0000
  H   H665      1.0  0.3945958552250538  0.10147978536975066  0.3381619053487026  1.0000
  H   H666      1.0  0.41603596813749955  0.08085657855385908  0.3152663127996979  1.0000
  H   H667      1.0  0.424671366933284  0.10013077811754112  0.3539375220991385  1.0000
  H   H668      1.0  0.3821647157257714  0.04469842598620044  0.38462921497306773  1.0000
  H   H669      1.0  0.3695621187015571  0.06988831484385671  0.35759643881783376  1.0000
  H   H670      1.0  0.39041660702553277  0.04922791457047926  0.3330091885977393  1.0000
  H   H671      1.0  0.39405290142172855  0.07101785212805756  0.4373344365948525  1.0000
  H   H672      1.0  0.3833885089170063  0.09669008023516334  0.4091134651469388  1.0000
  H   H673      1.0  0.4134839552599856  0.09320198526775414  0.425456423376789  1.0000
  H   H674      1.0  0.4320604985595243  0.045543778703733384  0.35432619136548726  1.0000
  H   H675      1.0  0.42390000034466163  0.0424452337440957  0.40642036467722564  1.0000
  H   H676      1.0  0.4421194799986648  0.06494401454564924  0.3915383740813942  1.0000
  N   N36       1.0  0.08332910446750043  0.8558796176573286  0.5139361110139985  1.0000
  C   C525      1.0  0.08480635106405887  0.8454366355493047  0.4733715096574853  1.0000
  C   C526      1.0  0.08954551189574941  0.8803201727439897  0.5112812401766929  1.0000
  C   C527      1.0  0.09978285089240141  0.842245419106942  0.5414080464463269  1.0000
  C   C528      1.0  0.059042718949077415  0.8555170640354869  0.529602824132154  1.0000
  H   H677      1.0  0.08115424168221841  0.8267148886054627  0.4743236969039002  1.0000
  H   H678      1.0  0.10256832771033401  0.8465831297227698  0.45957381878988346  1.0000
  H   H679      1.0  0.07169162644311534  0.8546020571594752  0.4526587463724425  1.0000
  H   H680      1.0  0.08912967830528017  0.888669546051236  0.5414230196941129  1.0000
  H   H681      1.0  0.10760409051693809  0.8813797944372626  0.4987256120737969  1.0000
  H   H682      1.0  0.07710137859438725  0.8911266098680133  0.4914657397966454  1.0000
  H   H683      1.0  0.09922636922848262  0.8497238203665384  0.5722507788872422  1.0000
  H   H684      1.0  0.1183012752956238  0.8422734280112635  0.5306804071893256  1.0000
  H   H685      1.0  0.09559386447390462  0.8237143128334408  0.5440162841084102  1.0000
  H   H686      1.0  0.05734929170538038  0.8625319316072233  0.5606641044246  1.0000
  H   H687      1.0  0.05334099970358053  0.8374396055330902  0.5303487875085695  1.0000
  H   H688      1.0  0.04621103813726646  0.8663777692990372  0.5105268464514693  1.0000
  N   N37       1.0  0.6474357492235256  0.9490808106152206  0.6297496076251736  1.0000
  C   C529      1.0  0.6591767664005561  0.9447906498228256  0.6691609137000958  1.0000
  C   C530      1.0  0.6586215315634552  0.9677788144543925  0.6077884305009034  1.0000
  C   C531      1.0  0.62218218798963  0.9563044382443934  0.6363661241935471  1.0000
  C   C532      1.0  0.6497380160280414  0.9275121505684665  0.6055993842062525  1.0000
  H   H689      1.0  0.6783665896825618  0.939771918792812  0.6653957525956294  1.0000
  H   H690      1.0  0.6514070580428385  0.9306081939397337  0.6864879174737051  1.0000
  H   H691      1.0  0.6573130526105613  0.9607761609045979  0.6881641377929519  1.0000
  H   H692      1.0  0.6772174945036444  0.9622683956161985  0.5995908042172832  1.0000
  H   H693      1.0  0.6490618580814869  0.9728153719538303  0.5793777895315532  1.0000
  H   H694      1.0  0.658906244842696  0.9837555545140727  0.6262940909009792  1.0000
  H   H695      1.0  0.6133509987499995  0.9428928389712179  0.6538584597953562  1.0000
  H   H696      1.0  0.6126460807717093  0.9591344583356384  0.6072925946308337  1.0000
  H   H697      1.0  0.6197252634087018  0.9729098564821144  0.6533882986900169  1.0000
  H   H698      1.0  0.6412503188229962  0.930451193446258  0.5754778745097276  1.0000
  H   H699      1.0  0.6412301160032804  0.9130615386021046  0.6208939451435277  1.0000
  H   H700      1.0  0.6685530372679132  0.9214496726912914  0.6000817244270419  1.0000
  N   N38       1.0  0.2594419608932384  0.25902962769421456  0.46198758501358766  1.0000
  C   C533      1.0  0.23572437874594357  0.262876995474486  0.44389266432620766  1.0000
  C   C534      1.0  0.2775493224526746  0.2600024905432871  0.43008119822599417  1.0000
  C   C535      1.0  0.26196592857884593  0.23584417957021367  0.48210027244426096  1.0000
  C   C536      1.0  0.2624998797431687  0.27743337171567506  0.4918314376459679  1.0000
  H   H701      1.0  0.2215699825876773  0.2625113716663971  0.4670880888844332  1.0000
  H   H702      1.0  0.23275620965935803  0.24943721694969764  0.4209197328462505  1.0000
  H   H703      1.0  0.23321855471296485  0.2801612258811552  0.42836076523427996  1.0000
  H   H704      1.0  0.29569613377220516  0.25786552823771713  0.44264687968067773  1.0000
  H   H705      1.0  0.27622315994677415  0.24591358758810242  0.4077089882479616  1.0000
  H   H706      1.0  0.2756380975758872  0.276996441163445  0.4133417467511084  1.0000
  H   H707      1.0  0.2797130688233311  0.23227235243313457  0.49589345932632334  1.0000
  H   H708      1.0  0.2596184081247686  0.2216037773588613  0.4602792777661831  1.0000
  H   H709      1.0  0.2485911737927494  0.23458109111326586  0.5064633340594729  1.0000
  H   H710      1.0  0.24889595522705135  0.27752171681562965  0.5160942753297876  1.0000
  H   H711      1.0  0.26081709277716825  0.29513850963454313  0.4774327874668497  1.0000
  H   H712      1.0  0.280101482960625  0.2750930986827134  0.5064239376434476  1.0000
  N   N39       1.0  0.9306862488424923  0.7147841215687184  0.4188312760022881  1.0000
  C   C537      1.0  0.9395164186254148  0.724788488778883  0.45618718768119715  1.0000
  C   C538      1.0  0.9431310574891824  0.691470240226534  0.4121046878988768  1.0000
  C   C539      1.0  0.9350019128501651  0.7303998013829227  0.38430612537438147  1.0000
  C   C540      1.0  0.9051240963625627  0.712458836005502  0.4226260210842524  1.0000
  H   H713      1.0  0.9306002709241896  0.7424359278842699  0.46217498206843993  1.0000
  H   H714      1.0  0.9587845804239191  0.7267966737257546  0.4540826379885461  1.0000
  H   H715      1.0  0.9367501278664486  0.7134183169769087  0.48290320052714586  1.0000
  H   H716      1.0  0.9624935930182555  0.6925107492976406  0.4097507556029219  1.0000
  H   H717      1.0  0.9400343425452972  0.6790784885146661  0.43723317873972894  1.0000
  H   H718      1.0  0.9372554114613049  0.6835223168670451  0.38373863793730273  1.0000
  H   H719      1.0  0.9260958439513891  0.74824158290064  0.38845115900270194  1.0000
  H   H720      1.0  0.9286102000741862  0.7234281101796537  0.355507113539764  1.0000
  H   H721      1.0  0.9541368766497473  0.7324178099326762  0.3805244766763939  1.0000
  H   H722      1.0  0.8980890385123329  0.704714514938548  0.3949420942625284  1.0000
  H   H723      1.0  0.8951133288850674  0.7297367704956991  0.4273492344268811  1.0000
  H   H724      1.0  0.9012258080391488  0.7008637298722349  0.44852297912398165  1.0000
  N   N40       1.0  0.0029465060120916764  0.3967465324649278  0.805064791874444  1.0000
  C   C541      1.0  0.004470697063186924  0.3823295168334054  0.8423572387668808  1.0000
  C   C542      1.0  0.02689395660569427  0.40004249277521275  0.7899232857407185  1.0000
  C   C543      1.0  0.9906205909647122  0.41975283738821806  0.8140997160125596  1.0000
  C   C544      1.0  0.9896671555345735  0.38508063536551695  0.7740925083172416  1.0000
  H   H725      1.0  0.014070458911019434  0.3908853045666183  0.8665316637427499  1.0000
  H   H726      1.0  0.01381957170253445  0.36487121981210224  0.8370133105314916  1.0000
  H   H727      1.0  0.9865975223406054  0.37956357419531755  0.8543744629121741  1.0000
  H   H728      1.0  0.026184728767073118  0.41084638370361004  0.7617495817860176  1.0000
  H   H729      1.0  0.03716326088539801  0.40908390059004374  0.8125743347607545  1.0000
  H   H730      1.0  0.036838953317869905  0.3830281575846831  0.7829024623063664  1.0000
  H   H731      1.0  0.9887291889139397  0.4311615982227662  0.7866951005342434  1.0000
  H   H732      1.0  0.00026388031867075057  0.4291401551238396  0.8370080816581218  1.0000
  H   H733      1.0  0.9726759888477833  0.4178907666974561  0.8263393486806471  1.0000
  H   H734      1.0  0.971918364653652  0.38136302541444095  0.7853891269261959  1.0000
  H   H735      1.0  0.9990082162221542  0.3682022580069931  0.7648810923568912  1.0000
  H   H736      1.0  0.9869894362973917  0.39612529146992237  0.7463703749459948  1.0000
  N   N41       1.0  0.5594324714416596  0.07727541365914536  0.8408714864210521  1.0000
  C   C545      1.0  0.5770363832632244  0.06710099707157902  0.8701358131937027  1.0000
  C   C546      1.0  0.5393660402714042  0.06258384508251136  0.8395386770838458  1.0000
  C   C547      1.0  0.5703859454493484  0.07818117123968227  0.8004106769305329  1.0000
  C   C548      1.0  0.5509625636752051  0.10116590252684232  0.8534186750014222  1.0000
  H   H737      1.0  0.5842656442469722  0.04941941010919049  0.8607356086393388  1.0000
  H   H738      1.0  0.5691934817071584  0.06519710163134484  0.9007148401974752  1.0000
  H   H739      1.0  0.5922062597053782  0.07797023199761388  0.8728363248747377  1.0000
  H   H740      1.0  0.5256222560515816  0.06985405010353718  0.8179979049340865  1.0000
  H   H741      1.0  0.5450870814643847  0.04442299925604054  0.8302037058726071  1.0000
  H   H742      1.0  0.5306548141505594  0.061470078797981165  0.8695950693736271  1.0000
  H   H743      1.0  0.5859409844590093  0.08870643959864188  0.8004653484908975  1.0000
  H   H744      1.0  0.5576710609164829  0.08609971446888687  0.7776865155216282  1.0000
  H   H745      1.0  0.5766043416671067  0.06034792357470686  0.7898057466933113  1.0000
  H   H746      1.0  0.5376328545163487  0.1093984993414383  0.8319483478157287  1.0000
  H   H747      1.0  0.5656317766001314  0.11271796227542952  0.855132993540713  1.0000
  H   H748      1.0  0.542240125324856  0.10101268320161583  0.8835820997566648  1.0000
  N   N42       1.0  0.6205399491791209  0.12168366904892625  0.43556606336860154  1.0000
  C   C549      1.0  0.6153107855680358  0.13597337860043446  0.3987712146782425  1.0000
  C   C550      1.0  0.6458180752165849  0.12174011812143548  0.4453770491913592  1.0000
  C   C551      1.0  0.6148017907456813  0.09744055141078078  0.4285276485436118  1.0000
  C   C552      1.0  0.6062513779237855  0.13160855011326422  0.46956319838342425  1.0000
  H   H749      1.0  0.5963401623886371  0.1364517485035701  0.390556136527946  1.0000
  H   H750      1.0  0.6258434107917691  0.12895950999357186  0.3725133840881977  1.0000
  H   H751      1.0  0.6195464416405915  0.15436594893766764  0.4029149064753012  1.0000
  H   H752      1.0  0.6508934349077581  0.13986546049025428  0.4496336002366265  1.0000
  H   H753      1.0  0.6504489014066991  0.11167172362088129  0.4735508514681899  1.0000
  H   H754      1.0  0.6571924803781413  0.11374962800244637  0.42095051110226117  1.0000
  H   H755      1.0  0.5956941400719129  0.09669056495791728  0.4221312310600026  1.0000
  H   H756      1.0  0.6192647835169839  0.08594921542086276  0.4551668369972873  1.0000
  H   H757      1.0  0.6248146063779471  0.0896988666990477  0.40230233778128044  1.0000
  H   H758      1.0  0.6098088127927803  0.12128470698661631  0.49783442961050917  1.0000
  H   H759      1.0  0.5870680081342433  0.13174463214721666  0.4632125554501527  1.0000
  H   H760      1.0  0.6101014805897516  0.14993867436269825  0.475600130347534  1.0000
  N   N43       1.0  0.9661426911970429  0.612907842987098  0.14285038696081734  1.0000
  C   C553      1.0  0.9441085138440708  0.6206364688611719  0.16445387809205894  1.0000
  C   C554      1.0  0.9608879347913354  0.6094590918000203  0.0997905440370184  1.0000
  C   C555      1.0  0.9764778496888498  0.5906670235231761  0.16074014019941846  1.0000
  C   C556      1.0  0.983073998464231  0.630893439983744  0.14635750043281653  1.0000
  H   H761      1.0  0.935314364462008  0.6368591863956734  0.15062434967140126  1.0000
  H   H762      1.0  0.9474720882781332  0.6243420754395139  0.19674296581710385  1.0000
  H   H763      1.0  0.9312899664618121  0.6070257399744436  0.1639275679623202  1.0000
  H   H764      1.0  0.94821321018412  0.5959264397628263  0.09608463556332514  1.0000
  H   H765      1.0  0.9529297765290533  0.625955041098046  0.08552191289535349  1.0000
  H   H766      1.0  0.9771498366290142  0.6038294217390652  0.08241187023215324  1.0000
  H   H767      1.0  0.9808849804691944  0.592781299778899  0.1930764307112964  1.0000
  H   H768      1.0  0.992897302141995  0.5840204554433045  0.14475939681938824  1.0000
  H   H769      1.0  0.9639316280852553  0.5768501901031837  0.15932820024184277  1.0000
  H   H770      1.0  9.220731839798546e-05  0.6254013106808846  0.13119733149909743  1.0000
  H   H771      1.0  0.9867713876700989  0.6346626519474027  0.1784874179227522  1.0000
  H   H772      1.0  0.976081549086802  0.6476367880167184  0.1319788300866398  1.0000
  N   N44       1.0  0.2523081423463245  0.9543951635705773  0.3018845873553952  1.0000
  C   C557      1.0  0.23069609156455798  0.945935527724274  0.284884545934539  1.0000
  C   C558      1.0  0.24616617444061467  0.9683278189040381  0.3382383853980984  1.0000
  C   C559      1.0  0.2633766232072596  0.9691041153225284  0.27158621765852753  1.0000
  C   C560      1.0  0.2690369305131073  0.9342308503494371  0.31293143847722255  1.0000
  H   H773      1.0  0.2177234110693083  0.960775596882992  0.2763015468138948  1.0000
  H   H774      1.0  0.2219328331596236  0.9347865905540343  0.3071020395595614  1.0000
  H   H775      1.0  0.23467550892986713  0.9353774595143814  0.25734173603084026  1.0000
  H   H776      1.0  0.23764326636405708  0.9578177830039244  0.361745242824666  1.0000
  H   H777      1.0  0.2621169521022121  0.9747134400450076  0.3520905357851771  1.0000
  H   H778      1.0  0.23386174977191995  0.9839341158249035  0.3310669532889893  1.0000
  H   H779      1.0  0.268275624491809  0.9592857849063358  0.24358484612561573  1.0000
  H   H780      1.0  0.27976596163164286  0.9756874380500707  0.28349110875025424  1.0000
  H   H781      1.0  0.2514721475808581  0.9847292380928512  0.26275018866650707  1.0000
  H   H782      1.0  0.28573092946052525  0.9400807733453882  0.3250659901492694  1.0000
  H   H783      1.0  0.27380383628642774  0.9230565349215182  0.2864347610753114  1.0000
  H   H784      1.0  0.26158840820754065  0.923085709897063  0.3366749674410518  1.0000
  N   N45       1.0  0.8917154269251564  0.25952002290566745  0.6686886098575417  1.0000
  C   C561      1.0  0.889107880185087  0.25813562409738405  0.6244512223139083  1.0000
  C   C562      1.0  0.9170166749908332  0.2588845789211654  0.6788005395119098  1.0000
  C   C563      1.0  0.8813907662317139  0.23953344219570263  0.6884606880543022  1.0000
  C   C564      1.0  0.8793999378159151  0.2816088801955667  0.6830662924295829  1.0000
  H   H785      1.0  0.8702399375013741  0.2585851905256779  0.6156211257450943  1.0000
  H   H786      1.0  0.8983320623606301  0.24176634220918175  0.6124883739773272  1.0000
  H   H787      1.0  0.8967422675194698  0.27309815534319  0.6088493955849363  1.0000
  H   H788      1.0  0.9196458251400326  0.2605367477811107  0.7117853806033363  1.0000
  H   H789      1.0  0.9268049189313469  0.2422345039832872  0.6693267425865012  1.0000
  H   H790      1.0  0.9254862000349349  0.2734535437617455  0.6637645753097952  1.0000
  H   H791      1.0  0.8622411575373268  0.23951048539963227  0.6818509974924127  1.0000
  H   H792      1.0  0.8831962265744062  0.24013583143501993  0.7218509273732114  1.0000
  H   H793      1.0  0.8902412626829331  0.22252032459751692  0.6784952237998946  1.0000
  H   H794      1.0  0.8868685028215184  0.29708821169395044  0.6689102193376691  1.0000
  H   H795      1.0  0.8809092719983634  0.28318363252708845  0.7164138521187396  1.0000
  H   H796      1.0  0.8602786585250963  0.2827504664853456  0.675767496820197  1.0000
  N   N46       1.0  0.7018217014815413  0.11536887314204643  0.6139109234539182  1.0000
  C   C565      1.0  0.7124228042618715  0.1363827868083711  0.5986302372201946  1.0000
  C   C566      1.0  0.678143837320408  0.11438059016329698  0.5962262947714165  1.0000
  C   C567      1.0  0.6997162247224828  0.11638697552688056  0.6583413362984145  1.0000
  C   C568      1.0  0.7170059696540878  0.09432197014840694  0.6022911017796007  1.0000
  H   H797      1.0  0.7299630696070167  0.138122425866842  0.612366816684171  1.0000
  H   H798      1.0  0.7010954481700915  0.1526335324295903  0.605456161445395  1.0000
  H   H799      1.0  0.7149433611331343  0.1357353508573421  0.5653098114533814  1.0000
  H   H800      1.0  0.6690692408175638  0.09951566043850134  0.6090285793193722  1.0000
  H   H801      1.0  0.666595882379292  0.13060710642496784  0.6023542882514666  1.0000
  H   H802      1.0  0.6791547932743539  0.11196568214870573  0.5629571456122865  1.0000
  H   H803      1.0  0.6916970390307897  0.10079377896161132  0.6708341078564738  1.0000
  H   H804      1.0  0.6881739689007853  0.1320065702311117  0.6677983818723017  1.0000
  H   H805      1.0  0.7171544830673297  0.11733152923846299  0.6729277375324401  1.0000
  H   H806      1.0  0.718436308808092  0.09283513114448708  0.568832790712669  1.0000
  H   H807      1.0  0.7096792099360807  0.07811109826104978  0.6133466169562316  1.0000
  H   H808      1.0  0.7351070719390853  0.09457389308374874  0.6146111170470283  1.0000
  N   N47       1.0  0.7212277815442858  0.2468173736291108  0.30456806326493363  1.0000
  C   C569      1.0  0.72017411597931  0.27155222376595495  0.29137092168491335  1.0000
  C   C570      1.0  0.734503999834357  0.23208080541320408  0.27444311018278217  1.0000
  C   C571      1.0  0.6970643994624791  0.23946227746484008  0.30840235928231763  1.0000
  C   C572      1.0  0.7331583301175668  0.24413683461750688  0.34409403919615605  1.0000
  H   H809      1.0  0.710267411298626  0.28315386939646336  0.3134350544014717  1.0000
  H   H810      1.0  0.7112046618400132  0.2741844548218811  0.2616772689913582  1.0000
  H   H811      1.0  0.7381702202791088  0.27758625996127995  0.28816760570177913  1.0000
  H   H812      1.0  0.7350360349750125  0.21325276095554696  0.2828637237193533  1.0000
  H   H813      1.0  0.7263603334722891  0.23405651683436884  0.24401438718609966  1.0000
  H   H814      1.0  0.7531636652636898  0.23638455504229391  0.2719369545485464  1.0000
  H   H815      1.0  0.6973058812559884  0.22092626109919508  0.31855470760808974  1.0000
  H   H816      1.0  0.6874393373074195  0.24089623211753583  0.27920603343308037  1.0000
  H   H817      1.0  0.686396886757291  0.250038073110101  0.33094749839319737  1.0000
  H   H818      1.0  0.7239311914501363  0.2553524304254219  0.3674081367715121  1.0000
  H   H819      1.0  0.7517825295694138  0.24859434156135127  0.342153815562805  1.0000
  H   H820      1.0  0.7336770466929764  0.22579754280974748  0.3554149904936765  1.0000
  N   N48       1.0  0.8792926271970506  0.8407472365077091  0.9271928244462976  1.0000
  C   C573      1.0  0.8757129221661902  0.817237149965823  0.943547904223838  1.0000
  C   C574      1.0  0.8613232227640529  0.8580237923534203  0.9443161515973555  1.0000
  C   C575      1.0  0.877035507686836  0.8406890888669792  0.8827721286121515  1.0000
  C   C576      1.0  0.9030837958822825  0.8470189670404138  0.9381174517351534  1.0000
  H   H821      1.0  0.8580646200859325  0.8118021909974299  0.9354284798952068  1.0000
  H   H822      1.0  0.8772438246545393  0.8166192730454053  0.9769996763097383  1.0000
  H   H823      1.0  0.8890554911303616  0.8037743152046002  0.9314244510998222  1.0000
  H   H824      1.0  0.8631204044684553  0.8758677503571057  0.9319451517592605  1.0000
  H   H825      1.0  0.8431437099095098  0.85365144190402  0.937245009658991  1.0000
  H   H826      1.0  0.8628977204822762  0.8590554012013829  0.9776781307702186  1.0000
  H   H827      1.0  0.8803104960538063  0.8579685437469492  0.86928563224807  1.0000
  H   H828      1.0  0.8591623810469042  0.836544572913057  0.8733200334907126  1.0000
  H   H829      1.0  0.8899518145227712  0.827402008734992  0.8689651928664004  1.0000
  H   H830      1.0  0.9056823604490697  0.8466974790606029  0.9713507815040789  1.0000
  H   H831      1.0  0.9061933035801032  0.8648497117351726  0.9270811182158532  1.0000
  H   H832      1.0  0.9170947956399298  0.8347344235507975  0.924676219057056  1.0000
  N   N49       1.0  0.8183362991168247  0.9399023829103398  0.45909594982531715  1.0000
  C   C577      1.0  0.8116052955204182  0.9157626134587601  0.4645655087142189  1.0000
  C   C578      1.0  0.8222300494741683  0.9445775616623725  0.4157144855203112  1.0000
  C   C579      1.0  0.8402882302402235  0.9426238713136281  0.48156641388044863  1.0000
  C   C580      1.0  0.7992390367688221  0.9565847443244941  0.47451638503491855  1.0000
  H   H833      1.0  0.8256034816526896  0.9027177279326458  0.4530993305422952  1.0000
  H   H834      1.0  0.7950377811799861  0.913133152259613  0.44809432398168053  1.0000
  H   H835      1.0  0.8086259926561213  0.9116052159207119  0.4969846182211862  1.0000
  H   H836      1.0  0.8270882564213682  0.9627447483581906  0.41038597437363544  1.0000
  H   H837      1.0  0.8367182573128775  0.9324667904341337  0.40316256987894555  1.0000
  H   H838      1.0  0.8061050538822585  0.9424410134966024  0.3977504794250903  1.0000
  H   H839      1.0  0.8379004662385515  0.9397662652472611  0.5145527659482126  1.0000
  H   H840      1.0  0.8462569704813154  0.9604548879132769  0.4771705004860984  1.0000
  H   H841      1.0  0.8548844004508623  0.9297889870000211  0.4715026422159232  1.0000
  H   H842      1.0  0.7821889492340928  0.9544846098437862  0.4591479693163307  1.0000
  H   H843      1.0  0.8032983737970405  0.9750620464483349  0.4696749300712368  1.0000
  H   H844      1.0  0.7962086724053188  0.9540356495392386  0.5073932321603842  1.0000
  N   N50       1.0  0.8110158643722979  0.06327655811869692  0.8247052610177101  1.0000
  C   C581      1.0  0.8226959421983301  0.040243428993129715  0.8365749223518345  1.0000
  C   C582      1.0  0.7881888865102307  0.06006270293513394  0.8053873140083045  1.0000
  C   C583      1.0  0.8262226158194327  0.07502496329385999  0.7960161295647089  1.0000
  C   C584      1.0  0.8068795213837808  0.07779466045909578  0.8609874260065239  1.0000
  H   H845      1.0  0.8397975629624711  0.04204246640869402  0.8518761451504986  1.0000
  H   H846      1.0  0.8265242491498876  0.028845802565839355  0.8100129819238135  1.0000
  H   H847      1.0  0.8115169690550711  0.03084344771457137  0.8578637878529233  1.0000
  H   H848      1.0  0.7789791354887656  0.07716957395980528  0.7959727560914891  1.0000
  H   H849      1.0  0.7906321998093793  0.04906899817926358  0.7780055108409074  1.0000
  H   H850      1.0  0.7762887420618806  0.05126111328931193  0.8263368793105416  1.0000
  H   H851      1.0  0.8179229534817434  0.0924955935198404  0.7863680170525937  1.0000
  H   H852      1.0  0.8299122078854272  0.06448305686674272  0.7684067627512496  1.0000
  H   H853      1.0  0.8435453751784748  0.07784531819043794  0.8096889569431958  1.0000
  H   H854      1.0  0.7983625068639008  0.09543421066331217  0.8530954552009251  1.0000
  H   H855      1.0  0.823709122733479  0.0801797492167251  0.8768336092938572  1.0000
  H   H856      1.0  0.7952414181734663  0.0695788531912689  0.8830319857879388  1.0000
  N   N51       1.0  0.5029305213701674  0.9849363441710913  0.6945527513645697  1.0000
  C   C585      1.0  0.5152118580959073  0.9666811362488341  0.6691517191405514  1.0000
  C   C586      1.0  0.48903886224746507  0.9738050781313635  0.7259920422826552  1.0000
  C   C587      1.0  0.48699984271623753  0.0005155736572455272  0.6691697931907143  1.0000
  C   C588      1.0  0.5204405137796809  0.9987570036643469  0.7137907963349956  1.0000
  H   H857      1.0  0.5261092090136493  0.9744823691396424  0.6454200815826178  1.0000
  H   H858      1.0  0.502451841051207  0.9562618014904181  0.6534572754156568  1.0000
  H   H859      1.0  0.5271344366451082  0.9543975865972182  0.6874574282341895  1.0000
  H   H860      1.0  0.47593143069350924  0.9629333061332397  0.7124482296150219  1.0000
  H   H861      1.0  0.5005722381980661  0.962345702092989  0.7463985839936687  1.0000
  H   H862      1.0  0.47927781016885457  0.9871169881381626  0.745390983640913  1.0000
  H   H863      1.0  0.47673954325491885  0.014016079404151283  0.6874807598627527  1.0000
  H   H864      1.0  0.47412201944534094  0.9904754002790411  0.653058899324053  1.0000
  H   H865      1.0  0.49702060393990366  0.009724241333354922  0.6458993367811502  1.0000
  H   H866      1.0  0.5117171249739041  0.012615748543002292  0.7333418460243347  1.0000
  H   H867      1.0  0.5312708564345482  0.007359739992005121  0.6908693666934388  1.0000
  H   H868      1.0  0.5326550910522949  0.9875409107653406  0.7334141331073363  1.0000
  N   N52       1.0  0.2039960801694059  0.3872877327645311  0.6555395213899655  1.0000
  C   C589      1.0  0.1793996318490341  0.38223540457661437  0.663798513835934  1.0000
  C   C590      1.0  0.21628232045040266  0.3904237659416141  0.694059189530377  1.0000
  C   C591      1.0  0.20404668889736288  0.4088657705486029  0.6307837555359846  1.0000
  C   C592      1.0  0.21622899272448554  0.3675784986769424  0.6334037619524671  1.0000
  H   H869      1.0  0.16965688107232754  0.3794721994919538  0.6354095495422836  1.0000
  H   H870      1.0  0.16948169058629572  0.3967652474969417  0.6802109790466611  1.0000
  H   H871      1.0  0.17866391173137233  0.36604700979095456  0.6824190498794803  1.0000
  H   H872      1.0  0.23511929470724952  0.39345407576725644  0.6890964181155835  1.0000
  H   H873      1.0  0.20804871823578963  0.4056705658376096  0.7109722952160867  1.0000
  H   H874      1.0  0.21580645117787967  0.3747539271602094  0.71412912661056  1.0000
  H   H875      1.0  0.2223373995028849  0.4132073590851521  0.6239423297507136  1.0000
  H   H876      1.0  0.19485666366584345  0.42410035820654307  0.6465403520809617  1.0000
  H   H877      1.0  0.19494234321694323  0.40699114750172977  0.6014490530311947  1.0000
  H   H878      1.0  0.23486473436940877  0.37065652288236356  0.6265643509424239  1.0000
  H   H879      1.0  0.20745351927368647  0.36480493732184227  0.6040996769848778  1.0000
  H   H880      1.0  0.21633615722821833  0.3509568628438014  0.6510828192453697  1.0000
  N   N53       1.0  0.17798142485691776  0.6666717464021689  0.1401932455389321  1.0000
  C   C593      1.0  0.1772073469231427  0.6534916997016479  0.10226300182043913  1.0000
  C   C594      1.0  0.15380014241300982  0.675700388508677  0.15170787197456748  1.0000
  C   C595      1.0  0.1926543709357079  0.6864556978332331  0.13411321894538109  1.0000
  C   C596      1.0  0.18829320157424373  0.6510082898665401  0.172400389743395  1.0000
  H   H881      1.0  0.19517829878343718  0.6465090749107002  0.09260249580987834  1.0000
  H   H882      1.0  0.169666997357672  0.6647637770656469  0.07712265875596658  1.0000
  H   H883      1.0  0.16630886487312735  0.6383958202290451  0.10546948852669868  1.0000
  H   H884      1.0  0.15369233010662203  0.6861896893446007  0.17974443600314371  1.0000
  H   H885      1.0  0.14546215098488388  0.6873074565661198  0.12768557290090565  1.0000
  H   H886      1.0  0.14232733075208093  0.6612593710343029  0.1573094764222258  1.0000
  H   H887      1.0  0.21119445215629312  0.6803255044764344  0.12650056458718506  1.0000
  H   H888      1.0  0.19296165745507432  0.6974534121707349  0.16154465757397563  1.0000
  H   H889      1.0  0.18579692390233316  0.6980444017390417  0.10894083013493461  1.0000
  H   H890      1.0  0.206457637664444  0.6437255809005383  0.1645400315158556  1.0000
  H   H891      1.0  0.17753485730031676  0.6359957986625715  0.17802141939338711  1.0000
  H   H892      1.0  0.18947005891372434  0.6603774692646881  0.20136590035758117  1.0000
  N   N54       1.0  0.3649581775730137  0.9986183402140167  0.7925081684034584  1.0000
  C   C597      1.0  0.3718645127016378  0.9833379010740724  0.7580888235527762  1.0000
  C   C598      1.0  0.37238567236013514  0.9865331803455064  0.8306031657665116  1.0000
  C   C599      1.0  0.33909438202966646  0.0040010675739357016  0.7927715617939338  1.0000
  C   C600      1.0  0.3765396347841719  0.020602296483413607  0.7884824201928674  1.0000
  H   H893      1.0  0.36712546245224076  0.9921042271686312  0.7287125867135642  1.0000
  H   H894      1.0  0.36306967574319887  0.966770962843751  0.7595641558552061  1.0000
  H   H895      1.0  0.3912352776464524  0.9786343717214899  0.7575831667917473  1.0000
  H   H896      1.0  0.36715345250525744  0.9973350249679548  0.8572595987971496  1.0000
  H   H897      1.0  0.3641674977756113  0.9697460284451991  0.8344082895211301  1.0000
  H   H898      1.0  0.3918719056708089  0.9826763623040807  0.8319703147042012  1.0000
  H   H899      1.0  0.329684988250578  0.9878842011737579  0.7962182215065158  1.0000
  H   H900      1.0  0.3328647351923571  0.013118614787111182  0.7644857679893434  1.0000
  H   H901      1.0  0.3333404696656802  0.015587583024309959  0.8183589849777453  1.0000
  H   H902      1.0  0.3728421043558977  0.029357370206378297  0.7587455852304785  1.0000
  H   H903      1.0  0.3959533352132203  0.01751063513712703  0.7915052778561222  1.0000
  H   H904      1.0  0.37055657755309657  0.03333117259986529  0.8120177631370677  1.0000
  N   N55       1.0  0.06256109622524608  0.7301119850757826  0.13881912776428462  1.0000
  C   C601      1.0  0.052212337818104304  0.7082409714271515  0.1282355944008765  1.0000
  C   C602      1.0  0.04352089675716764  0.7485609076177772  0.14736334287255937  1.0000
  C   C603      1.0  0.07699973095737334  0.7376307705552777  0.10471012018042418  1.0000
  C   C604      1.0  0.07751182733341344  0.7259934846722108  0.17492506342535707  1.0000
  H   H905      1.0  0.06610532846118966  0.694031664353662  0.12124174334773756  1.0000
  H   H906      1.0  0.040646674006108  0.7107353388993184  0.1012435222220565  1.0000
  H   H907      1.0  0.04135903227187998  0.7019245754061918  0.15346006800296563  1.0000
  H   H908      1.0  0.03247684961578656  0.743592359342513  0.17336704409861464  1.0000
  H   H909      1.0  0.05074765415214677  0.7653627611062407  0.15491826703291106  1.0000
  H   H910      1.0  0.031588443506871844  0.7517711543759376  0.12098942027477763  1.0000
  H   H911      1.0  0.09083414696823588  0.7236626538848144  0.09606941608645682  1.0000
  H   H912      1.0  0.086237504798933  0.7533403387932801  0.11219882395769125  1.0000
  H   H913      1.0  0.06591727880171172  0.7419801827249921  0.07764633442280844  1.0000
  H   H914      1.0  0.08601290173467246  0.7419428627809961  0.18352910540957743  1.0000
  H   H915      1.0  0.09185519836725309  0.711900857333173  0.1697624843330077  1.0000
  H   H916      1.0  0.06704357512161829  0.7206935370417027  0.20145776653728578  1.0000
  N   N56       1.0  0.3584919168083287  0.07344739531629219  0.023193238909979152  1.0000
  C   C605      1.0  0.35486819452469454  0.07687487454935815  0.979330589153095  1.0000
  C   C606      1.0  0.37806478369200724  0.08688940300220827  0.03625267915993491  1.0000
  C   C607      1.0  0.3643859004212377  0.04833878965951088  0.03210318056143335  1.0000
  C   C608      1.0  0.3367055065092295  0.08171703913765582  0.044974515158222594  1.0000
  H   H917      1.0  0.3402137653802786  0.0669715109257063  0.9682926521999483  1.0000
  H   H918      1.0  0.3709990876500804  0.07082999925042421  0.9620535705479928  1.0000
  H   H919      1.0  0.3504741380537637  0.0956466264294431  0.9714363018643432  1.0000
  H   H920      1.0  0.38131880625579867  0.08475111380768818  0.06923006461553705  1.0000
  H   H921      1.0  0.39477558241784266  0.08102591939024406  0.020301551938884943  1.0000
  H   H922      1.0  0.3741968056366481  0.10592222592993172  0.029792015932081695  1.0000
  H   H923      1.0  0.3810134831614638  0.04165322098423263  0.016681573344090372  1.0000
  H   H924      1.0  0.35020270908081325  0.03760838182886039  0.02179724849114506  1.0000
  H   H925      1.0  0.36681284172923767  0.04496371131016663  0.06500342223410849  1.0000
  H   H926      1.0  0.3386511910748522  0.07914191611499533  0.07813206489579705  1.0000
  H   H927      1.0  0.32149681552221154  0.07217573405877542  0.035370982169817156  1.0000
  H   H928      1.0  0.3319004023443399  0.1006528975116514  0.039179596211338596  1.0000
  N   N57       1.0  0.43274707165498755  0.21190544654382898  0.4966851836972261  1.0000
  C   C609      1.0  0.4572196385693758  0.20463278547248137  0.4845624518497833  1.0000
  C   C610      1.0  0.42436259021004075  0.1943457041760772  0.525048852926857  1.0000
  C   C611      1.0  0.41760689629308884  0.21365454013808277  0.46044882371586715  1.0000
  C   C612      1.0  0.4319843468956315  0.2348676119720358  0.5166156649091336  1.0000
  H   H929      1.0  0.464405989811862  0.21767884279620753  0.46376549591814803  1.0000
  H   H930      1.0  0.45834456908556376  0.18770606049518906  0.46842129003405386  1.0000
  H   H931      1.0  0.469059772291156  0.202463980003175  0.51112968995535  1.0000
  H   H932      1.0  0.4059125077080246  0.19925840852324436  0.5349125436412179  1.0000
  H   H933      1.0  0.42485381040479264  0.17681664782434253  0.5108654256074285  1.0000
  H   H934      1.0  0.43555918568839846  0.1925352174617516  0.5526067473551929  1.0000
  H   H935      1.0  0.4174201073787314  0.19642831081632522  0.44533884887028335  1.0000
  H   H936      1.0  0.4240546391089784  0.22606022133237905  0.43766186948403396  1.0000
  H   H937      1.0  0.3990497956770784  0.21970237370499235  0.46802657661880226  1.0000
  H   H938      1.0  0.41375917137273827  0.24100249955990738  0.5261608713566011  1.0000
  H   H939      1.0  0.43844251478541857  0.24845601851096863  0.4961093305900615  1.0000
  H   H940      1.0  0.4432494910290997  0.23406546112182883  0.5441049255269227  1.0000
  N   N58       1.0  0.9478274050136213  0.38228237324323294  0.464130725101906  1.0000
  C   C613      1.0  0.9472806395531914  0.382182763999554  0.5087544564032562  1.0000
  C   C614      1.0  0.9325771771162409  0.3647299665641954  0.4490426437949797  1.0000
  C   C615      1.0  0.9722583295244038  0.37645833438925475  0.45012109044512666  1.0000
  C   C616      1.0  0.9392783238321945  0.4056771717017974  0.4484126726857297  1.0000
  H   H941      1.0  0.9290668388008413  0.38623316332954793  0.5205154021020297  1.0000
  H   H942      1.0  0.9585327476724158  0.3952660348885038  0.5212613004328749  1.0000
  H   H943      1.0  0.9538981681601936  0.3647622035281286  0.5213797328025134  1.0000
  H   H944      1.0  0.9330117629308968  0.36393010398475245  0.41544859923022315  1.0000
  H   H945      1.0  0.9383130217708068  0.34691775192882757  0.460846621893308  1.0000
  H   H946      1.0  0.9139032215601398  0.36880375417887334  0.4583793851097536  1.0000
  H   H947      1.0  0.9734215211197149  0.3769714128700687  0.41661902398727524  1.0000
  H   H948      1.0  0.9790091540257303  0.35863480480371585  0.46026221496905184  1.0000
  H   H949      1.0  0.9844590003616462  0.3889028876477849  0.46182204637181556  1.0000
  H   H950      1.0  0.9394331418343407  0.40610824143755564  0.4147324812880316  1.0000
  H   H951      1.0  0.9505729383793567  0.4193286152442766  0.4587336179511565  1.0000
  H   H952      1.0  0.9209082445197136  0.41079358020825535  0.45847121838585475  1.0000
  N   N59       1.0  0.2024515807078892  0.9069998942635574  0.6650977317173145  1.0000
  C   C617      1.0  0.2011987174016602  0.9245734214293586  0.6974546019941941  1.0000
  C   C618      1.0  0.20593052631949205  0.883303975926957  0.6832176413495669  1.0000
  C   C619      1.0  0.2223936584974452  0.910835031845002  0.6378025125121999  1.0000
  C   C620      1.0  0.18027056359368793  0.9092630745677451  0.6418548391076516  1.0000
  H   H953      1.0  0.1985437710428864  0.9427006956396313  0.6850919212000458  1.0000
  H   H954      1.0  0.2176169363280359  0.9233414553998923  0.7157924369807392  1.0000
  H   H955      1.0  0.1863855986106016  0.9221273804687287  0.7187199453692065  1.0000
  H   H956      1.0  0.2222116728941864  0.8811067991068685  0.7018215086691241  1.0000
  H   H957      1.0  0.19095480409112087  0.8795977681901356  0.7033026496964337  1.0000
  H   H958      1.0  0.20735203870489505  0.869578074183987  0.6596844226083037  1.0000
  H   H959      1.0  0.22379619990052574  0.8978188997168293  0.6130195163101876  1.0000
  H   H960      1.0  0.23944566799327532  0.9092915979660703  0.6543154090543128  1.0000
  H   H961      1.0  0.22026404146121378  0.9285126540355537  0.6233974927429755  1.0000
  H   H962      1.0  0.1808191768156402  0.8965483659067718  0.6166991760498772  1.0000
  H   H963      1.0  0.1768384128049817  0.9270200969444471  0.6281932583969905  1.0000
  H   H964      1.0  0.1648505468765087  0.9059898202742439  0.6612449734186001  1.0000
  N   N60       1.0  0.5466961577605982  0.19014637946194188  0.6659076260606408  1.0000
  C   C621      1.0  0.5337573260415552  0.21334681760204505  0.6710741753932343  1.0000
  C   C622      1.0  0.5524698207301554  0.18657175090325068  0.622764081817425  1.0000
  C   C623      1.0  0.5317782383347367  0.1718809621594734  0.6802106159352181  1.0000
  C   C624      1.0  0.5687206780540489  0.1888790932398287  0.6896262965002115  1.0000
  H   H965      1.0  0.5440352608108869  0.22755165681234568  0.6590623433724419  1.0000
  H   H966      1.0  0.5299277199566013  0.21698380943853524  0.7034577676654017  1.0000
  H   H967      1.0  0.5165464700919319  0.21466323938687398  0.6551982055695293  1.0000
  H   H968      1.0  0.5622481803964071  0.1692003597606942  0.6177264215738384  1.0000
  H   H969      1.0  0.5362439234593519  0.18753735214609205  0.6039833277766791  1.0000
  H   H970      1.0  0.5637397481257312  0.20009127995415912  0.6110711866515659  1.0000
  H   H971      1.0  0.5150544325597094  0.17236923013694802  0.662732428038969  1.0000
  H   H972      1.0  0.5268783618523923  0.17432978963353038  0.7125671447126848  1.0000
  H   H973      1.0  0.5410120878611879  0.1541140265173556  0.677033686208115  1.0000
  H   H974      1.0  0.5790719271175574  0.17161092294162242  0.6865023291492004  1.0000
  H   H975      1.0  0.5650893075443719  0.19181482943431125  0.7223137182255963  1.0000
  H   H976      1.0  0.5802847634165239  0.20249269064322828  0.6795475387815927  1.0000
  N   N61       1.0  0.8571146852133591  0.10513777766353818  0.08762022610059761  1.0000
  C   C625      1.0  0.8778383115836617  0.1154073559327468  0.07004912636742211  1.0000
  C   C626      1.0  0.8507102453754463  0.08586236407815019  0.06180112263430116  1.0000
  C   C627      1.0  0.8370458751467302  0.12320317326471732  0.08991686098362696  1.0000
  C   C628      1.0  0.8628510711774418  0.09606607621269604  0.12864091616735204  1.0000
  H   H977      1.0  0.883018952108862  0.130305956220944  0.08820679316653779  1.0000
  H   H978      1.0  0.8742098001276254  0.12209943066785753  0.03885516059244943  1.0000
  H   H979      1.0  0.8934054999646459  0.10232279464373292  0.06844390056329243  1.0000
  H   H980      1.0  0.8461097072167576  0.09219403153033708  0.030687747586471307  1.0000
  H   H981      1.0  0.865577482993106  0.07204328270420235  0.05901299735559174  1.0000
  H   H982      1.0  0.8352548043864403  0.0775280097774027  0.07423180941269569  1.0000
  H   H983      1.0  0.8215634786302156  0.11636263103951221  0.10519548717007357  1.0000
  H   H984      1.0  0.8313265405895708  0.12949998923582262  0.05933724549685394  1.0000
  H   H985      1.0  0.8416945927786349  0.13861325843900804  0.10742188434134066  1.0000
  H   H986      1.0  0.84773668247218  0.08778296511697592  0.14252865404935627  1.0000
  H   H987      1.0  0.867106560295058  0.11033525553450042  0.14910140755024368  1.0000
  H   H988      1.0  0.8782576174944681  0.08277380093768195  0.12829684997147045  1.0000
  N   N62       1.0  0.5628170968948809  0.021905703833036142  0.4311040609437714  1.0000
  C   C629      1.0  0.5828406773595286  0.02654439901875838  0.40455353059318505  1.0000
  C   C630      1.0  0.5606923465856953  0.9964475622777467  0.43350754663201685  1.0000
  C   C631      1.0  0.5408387622886719  0.033849427423231715  0.4146184202542286  1.0000
  C   C632      1.0  0.5669782570963641  0.03079830558269303  0.4718625032204939  1.0000
  H   H989      1.0  0.5852811001368253  0.04556565506156463  0.4025468467854507  1.0000
  H   H990      1.0  0.5803444502556097  0.020331602415068813  0.37331983881562003  1.0000
  H   H991      1.0  0.5997011030336054  0.017566673508926378  0.4158773391365762  1.0000
  H   H992      1.0  0.5573313381465727  0.9891301786587215  0.4033407847153603  1.0000
  H   H993      1.0  0.5771448413428083  0.9869459260478874  0.4454448852864862  1.0000
  H   H994      1.0  0.5459531460970792  0.9922779037419159  0.453832269583827  1.0000
  H   H995      1.0  0.5254330946091158  0.031016942552829274  0.4343417347009054  1.0000
  H   H996      1.0  0.5369787882859324  0.027398696380673607  0.38403387862954197  1.0000
  H   H997      1.0  0.5420266367251875  0.05308270879201782  0.4120557251230108  1.0000
  H   H998      1.0  0.5525190452464429  0.027030863541203987  0.4930454921129457  1.0000
  H   H999      1.0  0.5681920984799871  0.05005875333995102  0.47137719000784306  1.0000
  H   H1000     1.0  0.5836891918369442  0.02254253662736949  0.48476342780154763  1.0000
  N   N63       1.0  0.4616261192056423  0.10546496896157663  0.5902537855599611  1.0000
  C   C633      1.0  0.45226795406400583  0.08223750550778287  0.5926670712430436  1.0000
  C   C634      1.0  0.45319100747524266  0.11762368155258222  0.5528006881097819  1.0000
  C   C635      1.0  0.4876791785871236  0.10256868338130921  0.5898921134359202  1.0000
  C   C636      1.0  0.4534026496807659  0.11945961313251677  0.6255723965359019  1.0000
  H   H1001     1.0  0.4581344781960021  0.07254435615069332  0.6206402589638831  1.0000
  H   H1002     1.0  0.4582267958814824  0.07122047840320023  0.566531101383014  1.0000
  H   H1003     1.0  0.4326436663528979  0.08371172753165945  0.5924900957532263  1.0000
  H   H1004     1.0  0.43360415567770894  0.1199809555085328  0.5518131075887666  1.0000
  H   H1005     1.0  0.46000551802460876  0.13517252518839054  0.5499162310417438  1.0000
  H   H1006     1.0  0.4591629049571706  0.10755877881575462  0.5256059057804284  1.0000
  H   H1007     1.0  0.49449241056421317  0.09232644932968653  0.5634042555621585  1.0000
  H   H1008     1.0  0.4947230694650672  0.09327960308290496  0.617499024324042  1.0000
  H   H1009     1.0  0.4953109874026315  0.11977774578900784  0.5881469138547768  1.0000
  H   H1010     1.0  0.4338125671072306  0.12201844788003813  0.6268302199337413  1.0000
  H   H1011     1.0  0.4601751644547643  0.13710868552595232  0.6247001674034814  1.0000
  H   H1012     1.0  0.4594487857208006  0.11080808946497867  0.6544035350308152  1.0000
  N   N64       1.0  0.8598453338687657  0.13149668726013392  0.3363252585450831  1.0000
  C   C637      1.0  0.856881543110256  0.12298928352251261  0.2949128603834499  1.0000
  C   C638      1.0  0.8512531195534123  0.11452731121863333  0.36561959488420537  1.0000
  C   C639      1.0  0.8461299091180382  0.1543774311144152  0.3409103159845289  1.0000
  C   C640      1.0  0.8850858044608783  0.13406008097200595  0.3437683404307016  1.0000
  H   H1013     1.0  0.8633604595805998  0.13523934058817644  0.2720087925873677  1.0000
  H   H1014     1.0  0.8380494191473312  0.12106697044674021  0.2879495148805518  1.0000
  H   H1015     1.0  0.8668448524743722  0.10575561855561216  0.2903110461509741  1.0000
  H   H1016     1.0  0.8528215823286807  0.12058493843722466  0.39719389614675943  1.0000
  H   H1017     1.0  0.8323806227429732  0.11178397631155833  0.3603911174059096  1.0000
  H   H1018     1.0  0.8615186687784787  0.09716448775987316  0.36347411632929916  1.0000
  H   H1019     1.0  0.8479557262405402  0.16149406383457213  0.37170811105081036  1.0000
  H   H1020     1.0  0.8269933656878364  0.15302039000355294  0.33559602985372033  1.0000
  H   H1021     1.0  0.8520057705510453  0.1675463527854185  0.31898720572851336  1.0000
  H   H1022     1.0  0.8958501255808513  0.11697419762603524  0.34161410930928654  1.0000
  H   H1023     1.0  0.8879500060573742  0.14108176418985272  0.37432804207064857  1.0000
  H   H1024     1.0  0.892426164577672  0.1461221764026961  0.32135314269327153  1.0000
