data_image0
_chemical_formula_structural       FeS2FeS2FeSFeS3FeS2FeS2FeSFeS3FeS2FeS2FeSFeS3FeS2FeS2FeSFeS3FeS2FeS2FeSFeS3FeS2FeS2FeSFeS3FeS2FeS2FeSFeS3FeS2FeS2FeSFeS3FeS2FeS2FeSFeS3FeS2FeS2FeSFeS3FeS2FeS2FeSFeS3FeS2FeS2FeSFeS3FeS2FeS2FeSFeS3FeS2FeS2FeSFeS3FeS2FeS2FeSFeS3FeS2FeS2FeSFeS3FeS2FeS2FeSFeS3FeS2FeS2FeSFeS3FeS2FeS2FeSFeS3FeS2FeS2FeSFeS3FeS2FeS2FeSFeS3FeS2FeS2FeSFeS3FeS2FeS2FeSFeS3FeS2FeS2FeSFeS3C6H4C6H4C6H4C6H4C6H4C6H4C6H4C6H4C6H4C6H4C6H4C6H4C6H4C6H4C6H4C6H4C6H4C6H4C6H4C6H4C6H4C6H4C6H4C6H4C6H4C6H4C6H4C6H4C6H4C6H4C6H4C6H4C6H4C6H4C6H4C6H4C6H4C6H4C6H4C6H4C6H4C6H4C6H4C6H4C6H4C6H4C6H4C6H4NC4H12NC4H12NC4H12NC4H12NC4H12NC4H12NC4H12NC4H12NC4H12NC4H12NC4H12NC4H12NC4H12NC4H12NC4H12NC4H12NC4H12NC4H12NC4H12NC4H12NC4H12NC4H12NC4H12NC4H12NC4H12NC4H12NC4H12NC4H12NC4H12NC4H12NC4H12NC4H12NC4H12NC4H12NC4H12NC4H12NC4H12NC4H12NC4H12NC4H12NC4H12NC4H12NC4H12NC4H12NC4H12NC4H12NC4H12NC4H12
_chemical_formula_sum              "Fe96 S192 C480 H768 N48"
_cell_length_a       56.888829931918515
_cell_length_b       59.08482944427515
_cell_length_c       58.29129950955487
_cell_angle_alpha    80.19872838743639
_cell_angle_beta     76.02441966143039
_cell_angle_gamma    78.04621782116186

_space_group_name_H-M_alt    "P 1"
_space_group_IT_number       1

loop_
  _space_group_symop_operation_xyz
  'x, y, z'

loop_
  _atom_site_type_symbol
  _atom_site_label
  _atom_site_symmetry_multiplicity
  _atom_site_fract_x
  _atom_site_fract_y
  _atom_site_fract_z
  _atom_site_occupancy
  Fe  Fe1       1.0  0.5881787979264149  0.6065732126584303  0.898172200673901  1.0000
  S   S1        1.0  0.5517694842158805  0.5956735990048568  0.9028171151148576  1.0000
  S   S2        1.0  0.595889822328295  0.6066429376185243  0.9342069442432092  1.0000
  Fe  Fe2       1.0  0.5979947756555498  0.6094782333998287  0.8441636702559686  1.0000
  S   S3        1.0  0.5628007397951423  0.5975373015828505  0.8457772487521101  1.0000
  S   S4        1.0  0.617778503505733  0.614951749654573  0.8058470755048899  1.0000
  Fe  Fe3       1.0  0.5463947109381833  0.6228085087597741  0.8720510061843467  1.0000
  S   S5        1.0  0.5118232524631434  0.6472337727778534  0.8665978322916004  1.0000
  Fe  Fe4       1.0  0.572576195085531  0.5718263748953124  0.8761226461066434  1.0000
  S   S6        1.0  0.5693953259086393  0.53416852610402  0.8842169527771541  1.0000
  S   S7        1.0  0.5810373296207872  0.6363118097551365  0.8693284812406634  1.0000
  S   S8        1.0  0.6092541890277107  0.5813497634703647  0.8726068239654943  1.0000
  Fe  Fe5       1.0  0.5710121746044476  0.4972562669894958  0.024813069914940467  1.0000
  S   S9        1.0  0.5575263069192812  0.46288311167005464  0.031621543827881154  1.0000
  S   S10       1.0  0.5978855868396832  0.5043290289447989  0.990009377444795  1.0000
  Fe  Fe6       1.0  0.535340670129876  0.5145429467427858  0.06874670879226949  1.0000
  S   S11       1.0  0.5185593382285454  0.48253899403300116  0.07789609309063052  1.0000
  S   S12       1.0  0.5191789492994786  0.5419534292802697  0.09291952269501925  1.0000
  Fe  Fe7       1.0  0.5576849054586309  0.46420911328128145  0.07015232477063976  1.0000
  S   S13       1.0  0.5669697250423269  0.4368203219952678  0.10020052783952689  1.0000
  Fe  Fe8       1.0  0.5199277097865737  0.484905367313546  0.03881126101713456  1.0000
  S   S14       1.0  0.4855771387455714  0.4871077799652718  0.024907718156869423  1.0000
  S   S15       1.0  0.5745205581932774  0.4965785595049906  0.06259012037446537  1.0000
  S   S16       1.0  0.5334982033726047  0.5188912954799455  0.030302118486414703  1.0000
  Fe  Fe9       1.0  0.4366065718277152  0.6482965857931313  0.04342836164186037  1.0000
  S   S17       1.0  0.4646435899573531  0.6698285536383283  0.022049931519834733  1.0000
  S   S18       1.0  0.41591956542573794  0.6509967532896361  0.08141910693537614  1.0000
  Fe  Fe10      1.0  0.4477858543005625  0.6139159514956389  0.0069991055204824265  1.0000
  S   S19       1.0  0.477647420165195  0.6315564165446056  0.9834278166131196  1.0000
  S   S20       1.0  0.4402709867270699  0.5797959951448167  0.0004159047058859634  1.0000
  Fe  Fe11      1.0  0.488705769386228  0.6354548867557864  0.016364414282700048  1.0000
  S   S21       1.0  0.5286810764634224  0.6277789382858587  0.01664847505333258  1.0000
  Fe  Fe12      1.0  0.4510473791603919  0.664529958215231  0.9904952954448994  1.0000
  S   S22       1.0  0.4506404840918617  0.6918599744680504  0.9586276476109854  1.0000
  S   S23       1.0  0.46185367199937843  0.6140831486527126  0.039606869413749655  1.0000
  S   S24       1.0  0.420071010002755  0.6466227849817011  0.012321099187212716  1.0000
  Fe  Fe13      1.0  0.4678069499186375  0.48488387159978424  0.8982133753748976  1.0000
  S   S25       1.0  0.42790250500206967  0.5015339505325535  0.9022611569196134  1.0000
  S   S26       1.0  0.48414280103144747  0.4579627822357174  0.9253418096326412  1.0000
  Fe  Fe14      1.0  0.48133342835664333  0.5094134107962173  0.8477039345200379  1.0000
  S   S27       1.0  0.4432363929088165  0.5286497860244456  0.8479820207911177  1.0000
  S   S28       1.0  0.5113800765431867  0.5149354777152264  0.815577609972956  1.0000
  Fe  Fe15      1.0  0.4428447011914517  0.5342573534972465  0.885279458094918  1.0000
  S   S29       1.0  0.43206782937356886  0.5705179064528049  0.8959393380227169  1.0000
  Fe  Fe16      1.0  0.4322752230285865  0.49425724297974116  0.8644077215565503  1.0000
  S   S30       1.0  0.4043889355440392  0.48216851299636804  0.8494398790359154  1.0000
  S   S31       1.0  0.482262967361984  0.5180596261716598  0.8835395560514547  1.0000
  S   S32       1.0  0.4707943849695483  0.47461844820816973  0.8620056146814806  1.0000
  Fe  Fe17      1.0  0.05301442586988099  0.6486213573499388  0.40120031799845357  1.0000
  S   S33       1.0  0.07306469713305852  0.6416151364369964  0.36425699981961485  1.0000
  S   S34       1.0  0.02155843925519848  0.6783845066242984  0.40759915455653345  1.0000
  Fe  Fe18      1.0  0.08615365114417561  0.6104210683651847  0.424605703662003  1.0000
  S   S35       1.0  0.10899600668876754  0.5994878557509724  0.39009284954702544  1.0000
  S   S36       1.0  0.09377012240574714  0.5964168953395115  0.460603794667064  1.0000
  Fe  Fe19      1.0  0.10748371740295191  0.6375777240317189  0.37813492640832574  1.0000
  S   S37       1.0  0.14311755310449598  0.647647777394936  0.35625143671893306  1.0000
  Fe  Fe20      1.0  0.0729981543563663  0.60400786443944  0.37909263672803756  1.0000
  S   S38       1.0  0.07061741726610678  0.5791318847008103  0.35484631382658444  1.0000
  S   S39       1.0  0.08732798407511425  0.6483726519369463  0.41366652409200577  1.0000
  S   S40       1.0  0.050085732490698046  0.6111575087015885  0.41501132110984146  1.0000
  Fe  Fe21      1.0  0.8960742128942581  0.6181126700263498  0.5312891169910302  1.0000
  S   S41       1.0  0.8939163663654074  0.655677509593362  0.5150726152967732  1.0000
  S   S42       1.0  0.8661674549299571  0.606326562364132  0.5611667336893682  1.0000
  Fe  Fe22      1.0  0.9420377519389561  0.6017483757019171  0.4951463645660476  1.0000
  S   S43       1.0  0.9426366466437464  0.6372670308609693  0.47508484760974856  1.0000
  S   S44       1.0  0.9716832525593336  0.572935433052332  0.4808472275182672  1.0000
  Fe  Fe23      1.0  0.9349597845766524  0.6485745895890102  0.5112674009320125  1.0000
  S   S45       1.0  0.9591836307773142  0.6733616512173168  0.5130674496663742  1.0000
  Fe  Fe24      1.0  0.9021223986532301  0.6410513225854425  0.4804691924631619  1.0000
  S   S46       1.0  0.8819750250268834  0.6552597094696254  0.4510645972677331  1.0000
  S   S47       1.0  0.9363525483554355  0.6125657637209035  0.5313725876883181  1.0000
  S   S48       1.0  0.9018324286251914  0.6039998604728323  0.4968386065008266  1.0000
  Fe  Fe25      1.0  0.08197565956580229  0.5050807310392965  0.5260419105984208  1.0000
  S   S49       1.0  0.07319273571267419  0.46935993804028975  0.5401112027020661  1.0000
  S   S50       1.0  0.05636131642004192  0.537369857091481  0.538533625575995  1.0000
  Fe  Fe26      1.0  0.13094646269300578  0.4857055058912431  0.49494700938437813  1.0000
  S   S51       1.0  0.12590043051367608  0.4485575054386363  0.5056466701338748  1.0000
  S   S52       1.0  0.16180077423179468  0.49911401436722985  0.46816426544971523  1.0000
  Fe  Fe27      1.0  0.08670453569857582  0.46221441890894  0.5021148635947525  1.0000
  S   S53       1.0  0.06634332270574145  0.44553971960326805  0.48258728222158215  1.0000
  Fe  Fe28      1.0  0.11308974574222193  0.4594737859128059  0.5423373890476829  1.0000
  S   S54       1.0  0.12496823399182555  0.4387152114827014  0.5750245326819925  1.0000
  S   S55       1.0  0.09317505210448104  0.498566409700709  0.48795799826174263  1.0000
  S   S56       1.0  0.12056478733471755  0.49591966815148486  0.5317696276344429  1.0000
  Fe  Fe29      1.0  0.9076731283822456  0.5340094078138334  0.42247891479608723  1.0000
  S   S57       1.0  0.9040420822366864  0.5027905375961848  0.4496901743284565  1.0000
  S   S58       1.0  0.873414959752672  0.5609195686754697  0.42161992628945794  1.0000
  Fe  Fe30      1.0  0.9575261089601994  0.5114012846071172  0.39676608585843304  1.0000
  S   S59       1.0  0.9564777793534663  0.4772779450567331  0.42092187909833423  1.0000
  S   S60       1.0  0.9898088088509468  0.5162223584944384  0.3662617848695343  1.0000
  Fe  Fe31      1.0  0.9165317115553488  0.4825878422633015  0.4185150921068688  1.0000
  S   S61       1.0  0.8907513080076437  0.45714286692332934  0.4211113558508025  1.0000
  Fe  Fe32      1.0  0.9436669186020149  0.5005820836963877  0.4496812197049452  1.0000
  S   S62       1.0  0.9559429852927755  0.4948077709605392  0.484586444546107  1.0000
  S   S63       1.0  0.9191747301413821  0.5140185464909247  0.39121749179748044  1.0000
  S   S64       1.0  0.9462848880326408  0.5344552432066747  0.425639248647546  1.0000
  Fe  Fe33      1.0  0.6061196503421956  0.09287139016773376  0.4313243169463981  1.0000
  S   S65       1.0  0.6101708819103955  0.09109477293080222  0.39227299610621225  1.0000
  S   S66       1.0  0.623170151850032  0.06667895530722272  0.4578440713252757  1.0000
  Fe  Fe34      1.0  0.5691404937009849  0.13727483294655501  0.4316863926303471  1.0000
  S   S67       1.0  0.568891935151996  0.13917189891379528  0.39324481203892697  1.0000
  S   S68       1.0  0.5481525721176139  0.1664394279754238  0.45218986359053664  1.0000
  Fe  Fe35      1.0  0.5689357168243258  0.10059029605873787  0.4005711909357423  1.0000
  S   S69       1.0  0.5421440373436531  0.0860440498982593  0.38656942831053703  1.0000
  Fe  Fe36      1.0  0.6097998894479388  0.12988232265756758  0.3883501793232873  1.0000
  S   S70       1.0  0.6295258178602269  0.15290968880386638  0.3581111342591256  1.0000
  S   S71       1.0  0.5649699194554174  0.09974828767792679  0.4397583311211944  1.0000
  S   S72       1.0  0.6099705354178596  0.13052811311170293  0.4265617360221417  1.0000
  Fe  Fe37      1.0  0.5629044360525995  0.963390074494001  0.5184407257178816  1.0000
  S   S73       1.0  0.5303099156868616  0.9831805011135765  0.5407222163072103  1.0000
  S   S74       1.0  0.5721558337999408  0.9775741231954075  0.479762573100766  1.0000
  Fe  Fe38      1.0  0.571439782438148  0.925636653094256  0.558894185001446  1.0000
  S   S75       1.0  0.5400048211594516  0.9427905703845845  0.5854760304171677  1.0000
  S   S76       1.0  0.5917522281620303  0.8895818716327505  0.568685208361242  1.0000
  Fe  Fe39      1.0  0.5194716412647968  0.9489056295909101  0.5563082269544151  1.0000
  S   S77       1.0  0.48024898552149237  0.9441389979606899  0.5639798557515298  1.0000
  Fe  Fe40      1.0  0.553261140188776  0.9761047453524851  0.5681543706474128  1.0000
  S   S78       1.0  0.5472464948581445  0.0075997660249720045  0.5869073946568272  1.0000
  S   S79       1.0  0.5495424588752108  0.9292753478006105  0.5309319477323035  1.0000
  S   S80       1.0  0.5872060801389581  0.9585408460781366  0.544588494154756  1.0000
  Fe  Fe41      1.0  0.47982794967726594  0.10898013998272213  0.5177112101704758  1.0000
  S   S81       1.0  0.45306354575026614  0.09767570839903804  0.5503521118980568  1.0000
  S   S82       1.0  0.5192877457244148  0.09141910198601377  0.5099922879211275  1.0000
  Fe  Fe42      1.0  0.43955222243938025  0.1409740931746967  0.49596510080610856  1.0000
  S   S83       1.0  0.4092982094054973  0.1315481914027103  0.5265349763712017  1.0000
  S   S84       1.0  0.43608324012736777  0.16769177375650257  0.4643507246060219  1.0000
  Fe  Fe43      1.0  0.4352994934491835  0.13549682958128098  0.5486939827884127  1.0000
  S   S85       1.0  0.42339405045283157  0.15521016391845463  0.5807522203578773  1.0000
  Fe  Fe44      1.0  0.4304069997490194  0.09476894736673784  0.5247183641106733  1.0000
  S   S86       1.0  0.41971698899766097  0.05945672174962505  0.5278454078253623  1.0000
  S   S87       1.0  0.4643513590619523  0.14701856521577727  0.518107310809898  1.0000
  S   S88       1.0  0.45820120488991045  0.10426583843665749  0.4921456446987656  1.0000
  Fe  Fe45      1.0  0.4759116343534985  0.9369433783859643  0.4416211327123346  1.0000
  S   S89       1.0  0.5004078071585052  0.9306572576288614  0.40633091866083526  1.0000
  S   S90       1.0  0.47499944413434586  0.9073624442524517  0.4711001162531062  1.0000
  Fe  Fe46      1.0  0.45354356056374184  0.9859727807689909  0.42393751451318673  1.0000
  S   S91       1.0  0.47565464689204207  0.9832083813584916  0.3866029854538671  1.0000
  S   S92       1.0  0.4283515085685408  0.020044594317452976  0.4307768498273666  1.0000
  Fe  Fe47      1.0  0.46663957922674015  0.9469698874892669  0.39230574374160193  1.0000
  S   S93       1.0  0.45615157802539125  0.92973324350977  0.3653344617714044  1.0000
  Fe  Fe48      1.0  0.5069014211242179  0.9672755912803384  0.4045591389337167  1.0000
  S   S94       1.0  0.5446660840141885  0.977111852608354  0.3947673205080983  1.0000
  S   S95       1.0  0.4416255892490962  0.9513468962038459  0.4279133083043728  1.0000
  S   S96       1.0  0.48533527733993564  0.9720453550421924  0.44155115968475167  1.0000
  Fe  Fe49      1.0  0.39527611082404907  0.4531949181990903  0.6861006505654261  1.0000
  S   S97       1.0  0.4243965197872948  0.46221756975401235  0.654361521672276  1.0000
  S   S98       1.0  0.3575437740570705  0.4511455171183433  0.6812597128805579  1.0000
  Fe  Fe50      1.0  0.43069628792391373  0.4425665038700519  0.7201679881309133  1.0000
  S   S99       1.0  0.4626428838088857  0.44969944519301125  0.6902745542908815  1.0000
  S   S100      1.0  0.44222815979906577  0.4320014231890512  0.755758556596058  1.0000
  Fe  Fe51      1.0  0.43655871509490013  0.48098671315187436  0.6786785111048439  1.0000
  S   S101      1.0  0.4451231257021695  0.5176166286629518  0.6690909503820989  1.0000
  Fe  Fe52      1.0  0.4475147658457658  0.4300514130781521  0.668969703235128  1.0000
  S   S102      1.0  0.4708955645626039  0.40651175289706337  0.6421692400796797  1.0000
  S   S103      1.0  0.4050661428450054  0.47493569467082347  0.7095250791861918  1.0000
  S   S104      1.0  0.4179192355984635  0.41992972335915235  0.6997697100708304  1.0000
  Fe  Fe53      1.0  0.5482625774314492  0.6103717865698688  0.713068388589394  1.0000
  S   S105      1.0  0.5220641804105436  0.603895620493434  0.692699033437194  1.0000
  S   S106      1.0  0.534269792973977  0.6233068042763527  0.74876124653008  1.0000
  Fe  Fe54      1.0  0.5925826711277342  0.601529038468617  0.6724032879261044  1.0000
  S   S107      1.0  0.5702431240686906  0.5940907021455816  0.6485547082368203  1.0000
  S   S108      1.0  0.6327096727082141  0.6039963096359751  0.6610520691811274  1.0000
  Fe  Fe55      1.0  0.5433676474130822  0.624959243278733  0.6617736530164555  1.0000
  S   S109      1.0  0.5252951911207805  0.6529982952178827  0.6370951095473302  1.0000
  Fe  Fe56      1.0  0.5513415895573239  0.5736983948620394  0.6815758166670829  1.0000
  S   S110      1.0  0.5453544644565328  0.5367043812639057  0.6847573482637143  1.0000
  S   S111      1.0  0.5669973299270877  0.6339029598318531  0.6833256782139476  1.0000
  S   S112      1.0  0.5761831846109684  0.5785677383185371  0.7043923062864308  1.0000
  Fe  Fe57      1.0  0.7207735076539439  0.4721663839276401  0.3631508064302359  1.0000
  S   S113      1.0  0.708693312397198  0.4457068775260507  0.39383681932287873  1.0000
  S   S114      1.0  0.6912023505112602  0.4932798761493325  0.3446219352843833  1.0000
  Fe  Fe58      1.0  0.7741491175245659  0.4620854623257493  0.37015036360252584  1.0000
  S   S115      1.0  0.7663057198903191  0.43391569363384686  0.40055769246285644  1.0000
  S   S116      1.0  0.8097103316502733  0.4768775006723836  0.3579792209229559  1.0000
  Fe  Fe59      1.0  0.7438725444284273  0.42299779948613436  0.3786269783615419  1.0000
  S   S117      1.0  0.7439296577111737  0.38636936164522323  0.37188135916329274  1.0000
  Fe  Fe60      1.0  0.7319129530907089  0.4591756511884231  0.4127255956331628  1.0000
  S   S118      1.0  0.7223133099758475  0.46797029290999537  0.450272939527818  1.0000
  S   S119      1.0  0.7549175685079964  0.44894431109960115  0.3466899610569064  1.0000
  S   S120      1.0  0.7407348424679745  0.487879723388245  0.3835129436808402  1.0000
  Fe  Fe61      1.0  0.7298128843651114  0.6179096917569056  0.5168422873245063  1.0000
  S   S121      1.0  0.6997741951323151  0.6021783811804347  0.5104097877460261  1.0000
  S   S122      1.0  0.7241540485542436  0.655960541463772  0.5204087114303954  1.0000
  Fe  Fe62      1.0  0.7638921930474359  0.5717055994558792  0.5214865288706981  1.0000
  S   S123      1.0  0.736528201907308  0.5518503777851163  0.5161655154997242  1.0000
  S   S124      1.0  0.8017510506569595  0.5519199435925094  0.5230637905633012  1.0000
  Fe  Fe63      1.0  0.730176548635291  0.5806255450228538  0.48685882921876783  1.0000
  S   S125      1.0  0.7262397029963952  0.5736279202433738  0.45132791318479704  1.0000
  Fe  Fe64      1.0  0.7087789435379866  0.5749106307918167  0.5401661308472138  1.0000
  S   S126      1.0  0.6774659695782951  0.5599360292958404  0.5650841272461133  1.0000
  S   S127      1.0  0.7595486139689002  0.5990926045688446  0.4903243781589221  1.0000
  S   S128      1.0  0.7367697512566744  0.5921303558362544  0.5485793626965384  1.0000
  Fe  Fe65      1.0  0.41887957970850936  0.7508054039015948  0.39633243970773085  1.0000
  S   S129      1.0  0.4541187973515235  0.7398820770913794  0.37074658079756095  1.0000
  S   S130      1.0  0.40146397701967595  0.7204254206604582  0.41736076680000705  1.0000
  Fe  Fe66      1.0  0.4254511610036344  0.8025505034147926  0.38660317056592897  1.0000
  S   S131      1.0  0.4608662119664477  0.794948729330972  0.35987579953637877  1.0000
  S   S132      1.0  0.41180717990195087  0.8364800316431751  0.40271551747917433  1.0000
  Fe  Fe67      1.0  0.44132767151917585  0.7715696961729804  0.3469339255790244  1.0000
  S   S133      1.0  0.4389989826042322  0.7694357136280546  0.30921105820630457  1.0000
  Fe  Fe68      1.0  0.4696712524090304  0.7639809460390852  0.3866642729776737  1.0000
  S   S134      1.0  0.5065828589172129  0.75343832838324  0.3971893898908427  1.0000
  S   S135      1.0  0.4049149880174784  0.7815238540560855  0.3718319584458276  1.0000
  S   S136      1.0  0.4352980951325212  0.7726910206399055  0.41391967386089623  1.0000
  Fe  Fe69      1.0  0.6071642334330373  0.7367605697166129  0.4970274430334207  1.0000
  S   S137      1.0  0.5757674783495983  0.7233451435703002  0.5233000991473559  1.0000
  S   S138      1.0  0.6367083022792543  0.7136441994430164  0.47411329450942213  1.0000
  Fe  Fe70      1.0  0.5895446833382593  0.7867787802560612  0.5078316444757706  1.0000
  S   S139      1.0  0.5569036163522315  0.7778378205597823  0.5358792399282312  1.0000
  S   S140      1.0  0.5987544026961285  0.8224569898885202  0.4928851998600595  1.0000
  Fe  Fe71      1.0  0.5829195283992292  0.7459252960248108  0.5472033823420251  1.0000
  S   S141      1.0  0.588387018059967  0.7304182833085662  0.5839350955494638  1.0000
  Fe  Fe72      1.0  0.5524154000486869  0.7560107510226968  0.5095731136319354  1.0000
  S   S142      1.0  0.514582158959023  0.7581128528078895  0.5028790353716434  1.0000
  S   S143      1.0  0.6160726896133845  0.7572228626457792  0.5217391855669844  1.0000
  S   S144      1.0  0.5831165679464785  0.7672370893168281  0.4808041652614683  1.0000
  Fe  Fe73      1.0  0.4235923258976887  0.2890998395711268  0.5551460930807203  1.0000
  S   S145      1.0  0.4427361307297886  0.30929318821745394  0.5219994841731209  1.0000
  S   S146      1.0  0.39728783778542204  0.26492867761527367  0.5561068800398913  1.0000
  Fe  Fe74      1.0  0.4426395013212786  0.3114027403539601  0.5886773165772333  1.0000
  S   S147      1.0  0.4640124753124003  0.33272096074510854  0.5587443594530358  1.0000
  S   S148      1.0  0.437532401802125  0.3147255099915873  0.6276099102745928  1.0000
  Fe  Fe75      1.0  0.4306743970794364  0.33975827351949045  0.5431101872976949  1.0000
  S   S149      1.0  0.42045744340087277  0.37773034025721114  0.5301605896698849  1.0000
  Fe  Fe76      1.0  0.47461392334817415  0.3007030485472368  0.5402329685475227  1.0000
  S   S150      1.0  0.5145987719854994  0.29157267899158795  0.5228158340317766  1.0000
  S   S151      1.0  0.40829879742663644  0.3206465469796684  0.5743614784060399  1.0000
  S   S152      1.0  0.4564190190268996  0.27826679937725446  0.5718933915749361  1.0000
  Fe  Fe77      1.0  0.5887468916277627  0.30390326244062155  0.3948377796681778  1.0000
  S   S153      1.0  0.6175382340375479  0.29085063496651326  0.4164598094463336  1.0000
  S   S154      1.0  0.5485166356418555  0.3022427611638818  0.41031991084662517  1.0000
  Fe  Fe78      1.0  0.626461390792493  0.315649958983188  0.3500633157115971  1.0000
  S   S155      1.0  0.6581297526058992  0.302981983886235  0.3682635504999856  1.0000
  S   S156      1.0  0.6387749154588714  0.3309823014554342  0.3121228567803549  1.0000
  Fe  Fe79      1.0  0.6388156998009947  0.27292829342169633  0.385005708724788  1.0000
  S   S157      1.0  0.6589616630811895  0.2366223465860752  0.3941415200183676  1.0000
  Fe  Fe80      1.0  0.6340812911240052  0.3220806592574506  0.3977500998981662  1.0000
  S   S158      1.0  0.6467375724319353  0.34457704514545284  0.41829145054203964  1.0000
  S   S159      1.0  0.6090071408163321  0.2837545339689754  0.3642755323247461  1.0000
  S   S160      1.0  0.6034819075631999  0.336883740155891  0.37855452301845516  1.0000
  Fe  Fe81      1.0  0.24914361427905285  0.4703808755180991  0.5791580057166542  1.0000
  S   S161      1.0  0.2545919994999333  0.46505864461529417  0.5410920773425169  1.0000
  S   S162      1.0  0.21486381042975586  0.4635309473479155  0.6061547006003449  1.0000
  Fe  Fe82      1.0  0.2997247562309685  0.4839790354957301  0.5714931260991529  1.0000
  S   S163      1.0  0.30914201975024264  0.47940241498234365  0.5326424992353972  1.0000
  S   S164      1.0  0.3279805496398652  0.49814745966824453  0.5836257048105741  1.0000
  Fe  Fe83      1.0  0.27055046418389855  0.49791114780508267  0.532750775432054  1.0000
  S   S165      1.0  0.25779469182954273  0.5276915173073918  0.5064881652163197  1.0000
  Fe  Fe84      1.0  0.2924716663636899  0.4470088635030322  0.5449857899764587  1.0000
  S   S166      1.0  0.30680037688705586  0.4112738447732775  0.5336617616128944  1.0000
  S   S167      1.0  0.2620475311541488  0.5047648509687237  0.5707792635447383  1.0000
  S   S168      1.0  0.2860951385514599  0.45001041974864764  0.5838682424480632  1.0000
  Fe  Fe85      1.0  0.26466293197393087  0.6314498234315705  0.4012566620923696  1.0000
  S   S169      1.0  0.29187092336878967  0.5988003661234812  0.39422772643730747  1.0000
  S   S170      1.0  0.22535361117204236  0.6266467356450155  0.4173904369244956  1.0000
  Fe  Fe86      1.0  0.3045567009575895  0.6615100900715405  0.3885692557394007  1.0000
  S   S171      1.0  0.33495916552577126  0.6313131873740746  0.3808920417420076  1.0000
  S   S172      1.0  0.3134456537380452  0.6979351127622607  0.3808727323116485  1.0000
  Fe  Fe87      1.0  0.3100866332732324  0.6203152576269195  0.36211254286782674  1.0000
  S   S173      1.0  0.328820885008975  0.6033598809960758  0.3292457593180889  1.0000
  Fe  Fe88      1.0  0.314613725976449  0.6120420580073443  0.41358032032414205  1.0000
  S   S174      1.0  0.3350316169551595  0.5844195844467224  0.43683444207011984  1.0000
  S   S175      1.0  0.2807903734310514  0.6520594392724455  0.36699440459217975  1.0000
  S   S176      1.0  0.2861582935744747  0.6433364670724758  0.4234466737567931  1.0000
  Fe  Fe89      1.0  0.592187552501569  0.4473335944418872  0.24931204117525965  1.0000
  S   S177      1.0  0.6289669369610624  0.4401178126350985  0.22448736754418613  1.0000
  S   S178      1.0  0.571779637014411  0.41833646461195484  0.26804272049937594  1.0000
  Fe  Fe90      1.0  0.5919363043111623  0.4991751308464034  0.24363252871227178  1.0000
  S   S179      1.0  0.6290234698998343  0.49583076252860175  0.21900515548843008  1.0000
  S   S180      1.0  0.5762177916314609  0.5356962603486399  0.2523826325816769  1.0000
  Fe  Fe91      1.0  0.614641524493913  0.47201527159835716  0.20173758049739143  1.0000
  S   S181      1.0  0.6228806211462682  0.4770370256456028  0.16165174401671809  1.0000
  Fe  Fe92      1.0  0.6395553989550701  0.4644975982635526  0.2443343045916703  1.0000
  S   S182      1.0  0.6764379069773637  0.4556954889385821  0.25462808618001775  1.0000
  S   S183      1.0  0.5767155367426173  0.4773367773344453  0.22467866240143575  1.0000
  S   S184      1.0  0.6036699130417367  0.4696867430360333  0.2706267770572904  1.0000
  Fe  Fe93      1.0  0.47106565501438563  0.6636087060082035  0.2405124608780894  1.0000
  S   S185      1.0  0.44527823847104137  0.6393741595781361  0.2604014554992093  1.0000
  S   S186      1.0  0.49264132403360134  0.6795688396885354  0.2593601863855331  1.0000
  Fe  Fe94      1.0  0.4605565213885  0.6607047512203864  0.192226924432264  1.0000
  S   S187      1.0  0.4334251735841564  0.6367093658991019  0.20809068794157679  1.0000
  S   S188      1.0  0.4705608883501513  0.6764432242827015  0.15385793625785396  1.0000
  Fe  Fe95      1.0  0.4201552860107519  0.6597502429657933  0.23701478285651692  1.0000
  S   S189      1.0  0.38091210099708056  0.6752454555320752  0.2507897056885424  1.0000
  Fe  Fe96      1.0  0.46125934342294334  0.6184137920542977  0.22971542729508584  1.0000
  S   S190      1.0  0.4704677003697569  0.5792769315134109  0.23259035948884968  1.0000
  S   S191      1.0  0.44473432379296035  0.6854858184613377  0.21935937734298086  1.0000
  S   S192      1.0  0.4894471364171537  0.6408126490170889  0.21174205973700402  1.0000
  C   C1        1.0  0.5468823468116037  0.5475995441991386  0.2466280734032059  1.0000
  C   C2        1.0  0.5377689267258774  0.571380477258674  0.24792421295931258  1.0000
  C   C3        1.0  0.5143627801423384  0.581269251228432  0.24352059681704388  1.0000
  C   C4        1.0  0.499945058074263  0.5673706649761113  0.23788341736939214  1.0000
  C   C5        1.0  0.5090407211021888  0.5435798443667523  0.23661729120305325  1.0000
  C   C6        1.0  0.5324708748135133  0.5337098920744988  0.24096975232741305  1.0000
  H   H1        1.0  0.5487464543034721  0.5821763386367946  0.2524728910458891  1.0000
  H   H2        1.0  0.5073348334260501  0.599552161216929  0.2448748496489262  1.0000
  H   H3        1.0  0.49780822987617623  0.5327354592220399  0.23253637750750367  1.0000
  H   H4        1.0  0.5390746170720145  0.5152886762787784  0.2404939595925729  1.0000
  C   C7        1.0  0.3431519437419297  0.6233484518645255  0.3073493110519629  1.0000
  C   C8        1.0  0.36418069205729325  0.615381778230519  0.2906438514351925  1.0000
  C   C9        1.0  0.37603946462875565  0.6313285846481614  0.273372224494382  1.0000
  C   C10       1.0  0.36638503787201554  0.6551702019828929  0.2723467357994586  1.0000
  C   C11       1.0  0.34516604694611674  0.6631021449804148  0.2888045824513041  1.0000
  C   C12       1.0  0.3338241261585465  0.6472436270416636  0.30659627816806245  1.0000
  H   H5        1.0  0.37145758873288226  0.5969170778731292  0.2911877404708238  1.0000
  H   H6        1.0  0.39243609744374564  0.6251090058486406  0.2606628142723831  1.0000
  H   H7        1.0  0.33757273037344865  0.6815204560909304  0.28794937998276054  1.0000
  H   H8        1.0  0.3175270048298848  0.6534709324447288  0.31939334367033273  1.0000
  C   C13       1.0  0.27987803508385695  0.542992855570709  0.4875437721111666  1.0000
  C   C14       1.0  0.271949741124534  0.5652646929337943  0.47651470647249466  1.0000
  C   C15       1.0  0.28885517063045296  0.5778430294778525  0.46072657723226  1.0000
  C   C16       1.0  0.313904218952616  0.5683654363130161  0.45623855415283726  1.0000
  C   C17       1.0  0.32198785315017125  0.5461494114936103  0.4674591394505057  1.0000
  C   C18       1.0  0.3049539303746899  0.5334307027267371  0.4831128463811153  1.0000
  H   H9        1.0  0.2526639914752862  0.5729332517695441  0.4803708834408669  1.0000
  H   H10       1.0  0.28248128141860285  0.5950598787597484  0.45230302620006674  1.0000
  H   H11       1.0  0.3413573181990093  0.5387158385109251  0.46392555122434426  1.0000
  H   H12       1.0  0.3111672158323095  0.5161388831359417  0.4913921047198699  1.0000
  C   C19       1.0  0.6196825656258248  0.35610858473165885  0.3020132345080706  1.0000
  C   C20       1.0  0.6304752612548565  0.3733120023771346  0.2857766776981358  1.0000
  C   C21       1.0  0.615771291764702  0.39319391932052006  0.2766141187075871  1.0000
  C   C22       1.0  0.5901535387121466  0.39531297509665353  0.28246855645683544  1.0000
  C   C23       1.0  0.5792897135126547  0.3781289732879511  0.29880135590152607  1.0000
  C   C24       1.0  0.594050299574072  0.35874708622652157  0.3089720271629566  1.0000
  H   H13       1.0  0.6502725408444916  0.37115623731070724  0.2801674476460952  1.0000
  H   H14       1.0  0.624367413137829  0.4064591872960282  0.2644370457068222  1.0000
  H   H15       1.0  0.5594690605510736  0.3797214969954242  0.3034932203390595  1.0000
  H   H16       1.0  0.5856273546496008  0.3454348722076194  0.3214662279831777  1.0000
  C   C25       1.0  0.38870034608213294  0.3867045879875046  0.532173423104044  1.0000
  C   C26       1.0  0.3736137836369914  0.37056322897205446  0.5328847542526525  1.0000
  C   C27       1.0  0.3484396675025928  0.37820810633007196  0.5333459251138782  1.0000
  C   C28       1.0  0.3382067272554662  0.4018930704119289  0.5337250206537495  1.0000
  C   C29       1.0  0.3531951273895171  0.417894791134602  0.5337828881747152  1.0000
  C   C30       1.0  0.37846882092534556  0.4103553036996919  0.5326643720175124  1.0000
  H   H17       1.0  0.38143480448729206  0.3522791835574787  0.5324732345475061  1.0000
  H   H18       1.0  0.3369142896235754  0.3657667488425638  0.5333516280700347  1.0000
  H   H19       1.0  0.34545685118134944  0.4361668181899478  0.5340799711532108  1.0000
  H   H20       1.0  0.3900964532421617  0.42288812851968755  0.5320577942584338  1.0000
  C   C31       1.0  0.5235613849882107  0.29366558453905967  0.4915964081564298  1.0000
  C   C32       1.0  0.5479561233913179  0.29572347761588874  0.4808395690989036  1.0000
  C   C33       1.0  0.555552310372082  0.29880678755933326  0.455967832959408  1.0000
  C   C34       1.0  0.5390366861139098  0.299141653448125  0.44161070215651055  1.0000
  C   C35       1.0  0.5146356775145271  0.2967792042451445  0.4523531876357809  1.0000
  C   C36       1.0  0.5068569505371545  0.2941421835009855  0.4773288463492761  1.0000
  H   H21       1.0  0.5609225600545957  0.29548985494632407  0.49179414809210187  1.0000
  H   H22       1.0  0.5741183852890042  0.3012528330449491  0.4480365675917772  1.0000
  H   H23       1.0  0.5017401783685729  0.2970086304545221  0.4413382027185372  1.0000
  H   H24       1.0  0.488046732189304  0.2923239693360856  0.4855072320598097  1.0000
  C   C37       1.0  0.4535610928586609  0.7438528037056192  0.29634477264114034  1.0000
  C   C38       1.0  0.44485807914195696  0.7381460946976441  0.27788302295205763  1.0000
  C   C39       1.0  0.4561357478439834  0.7179709931273932  0.2671021125097314  1.0000
  C   C40       1.0  0.476779173020066  0.703788945989134  0.27412296829953897  1.0000
  C   C41       1.0  0.48555050805874506  0.7095266910544239  0.2925322084496354  1.0000
  C   C42       1.0  0.4737359982132813  0.7293108727219391  0.30389284568966446  1.0000
  H   H25       1.0  0.42928331533918335  0.7493827752051616  0.27195688220120834  1.0000
  H   H26       1.0  0.44912801100445415  0.7137784721018928  0.25302865617825054  1.0000
  H   H27       1.0  0.5015400275159971  0.6986640192515842  0.29803084824468085  1.0000
  H   H28       1.0  0.480681421578548  0.7336834123113056  0.31799435837598417  1.0000
  C   C43       1.0  0.3767196595094835  0.7143236895854295  0.40753484888251584  1.0000
  C   C44       1.0  0.36426504846888424  0.7309818085836212  0.39253702119021744  1.0000
  C   C45       1.0  0.3444713114921327  0.7259136709152434  0.38502588733523835  1.0000
  C   C46       1.0  0.33729591029493705  0.7040044523873853  0.39204455295849333  1.0000
  C   C47       1.0  0.34982123780698454  0.687236121576069  0.4069510110851847  1.0000
  C   C48       1.0  0.3693713371541742  0.6924775877151955  0.4148375034993278  1.0000
  H   H29       1.0  0.3695466592398332  0.7479584094079295  0.38707879402751566  1.0000
  H   H30       1.0  0.33469839036933147  0.7390245386898557  0.3736799398240716  1.0000
  H   H31       1.0  0.3443427063636727  0.670323047756795  0.4124903513397985  1.0000
  H   H32       1.0  0.3788580676561685  0.679548222720307  0.42653330404909523  1.0000
  C   C49       1.0  0.5086159495984196  0.7545778887548759  0.4266886826266491  1.0000
  C   C50       1.0  0.5316574081950184  0.748790737192354  0.4328741788636804  1.0000
  C   C51       1.0  0.5337703521172699  0.749766348214371  0.45622272046012285  1.0000
  C   C52       1.0  0.5127965685166725  0.7564811593973935  0.4735250660187084  1.0000
  C   C53       1.0  0.48977065132253944  0.7620888994484591  0.46739714153834955  1.0000
  C   C54       1.0  0.4877196306394052  0.7612434700698725  0.4440673880970993  1.0000
  H   H33       1.0  0.5479507519320354  0.7435341126285785  0.4195802325136626  1.0000
  H   H34       1.0  0.5515879544904431  0.7450584512948563  0.4608615801770046  1.0000
  H   H35       1.0  0.4734788795513355  0.7672716695101429  0.48072667543137065  1.0000
  H   H36       1.0  0.4699297486455444  0.7657844059002001  0.43971609125905764  1.0000
  C   C55       1.0  0.6998368475240668  0.6718014653463593  0.5075453902433447  1.0000
  C   C56       1.0  0.6951770316335869  0.6652913266726366  0.48732617163247294  1.0000
  C   C57       1.0  0.6757448700710709  0.678248026812179  0.4771500943257746  1.0000
  C   C58       1.0  0.6603708352348007  0.6971902073682668  0.4876608658264807  1.0000
  C   C59       1.0  0.6645593360447788  0.7031415030238947  0.5083742966229238  1.0000
  C   C60       1.0  0.6846134956661211  0.6908460272564562  0.5179539750562403  1.0000
  H   H37       1.0  0.7068933614199097  0.6505985223907839  0.4791765861737559  1.0000
  H   H38       1.0  0.6725589445475361  0.6734960653232608  0.46116054711272497  1.0000
  H   H39       1.0  0.6525959572601209  0.7173678046699842  0.5169124129456443  1.0000
  H   H40       1.0  0.6880473057839039  0.6957971922071988  0.5337317491064764  1.0000
  C   C61       1.0  0.6869705279641749  0.4812506037994846  0.3206420419095485  1.0000
  C   C62       1.0  0.6633459372011601  0.48428206845050437  0.31608313999778204  1.0000
  C   C63       1.0  0.659794384882623  0.47606758035541724  0.2961291283412047  1.0000
  C   C64       1.0  0.6799486302092763  0.4652023590030086  0.2804143545050928  1.0000
  C   C65       1.0  0.7034899261089386  0.4617851544723782  0.28524021465337107  1.0000
  C   C66       1.0  0.7069844950073926  0.46963710262312286  0.30539023928219705  1.0000
  H   H41       1.0  0.6477886763643189  0.49292496178914647  0.328115579420322  1.0000
  H   H42       1.0  0.6415345248503582  0.47826847721085514  0.2928505322842473  1.0000
  H   H43       1.0  0.7191645537175015  0.45328915364265293  0.2731953602444254  1.0000
  H   H44       1.0  0.7252963064428435  0.4673623735898965  0.3086801148773189  1.0000
  C   C67       1.0  0.7171834167122736  0.3745452887150065  0.38533256503899355  1.0000
  C   C68       1.0  0.7003586176915707  0.38364492827575397  0.4047174706964851  1.0000
  C   C69       1.0  0.6788655898200483  0.37422968781104904  0.41477580100566014  1.0000
  C   C70       1.0  0.673883914825327  0.355924885993888  0.40528488267079144  1.0000
  C   C71       1.0  0.6907444125882264  0.3467690605101071  0.38592757318102017  1.0000
  C   C72       1.0  0.7124723192995918  0.3558783675373699  0.37615724606905815  1.0000
  H   H45       1.0  0.7040916528144551  0.39766420719862705  0.41226699474465306  1.0000
  H   H46       1.0  0.6660152427315147  0.3812554655485314  0.4298998781808138  1.0000
  H   H47       1.0  0.6870855521315655  0.3327371010587388  0.37844491873388697  1.0000
  H   H48       1.0  0.725493404539254  0.3487667638922701  0.3611792202019679  1.0000
  C   C73       1.0  0.7242662434105178  0.49722141410320697  0.4496392824216862  1.0000
  C   C74       1.0  0.7376501664052295  0.503202788779839  0.46423462774013763  1.0000
  C   C75       1.0  0.7387172497049933  0.5266477631749679  0.46439149676042424  1.0000
  C   C76       1.0  0.726016532970513  0.5441988688726622  0.4503512070253207  1.0000
  C   C77       1.0  0.7128074646688664  0.5382094761422453  0.4355680462632924  1.0000
  C   C78       1.0  0.7119216894127072  0.5147167315418989  0.4352155151762511  1.0000
  H   H49       1.0  0.7473254621650971  0.4896407551353003  0.4752708738811582  1.0000
  H   H50       1.0  0.7495513502942805  0.5310988875528772  0.4752026850060868  1.0000
  H   H51       1.0  0.7029214275339045  0.5517305434728678  0.4246676860169708  1.0000
  H   H52       1.0  0.7013376386332268  0.5101339600183041  0.4240852244421627  1.0000
  C   C79       1.0  0.5437639025934247  0.6733915646130234  0.6209600663332802  1.0000
  C   C80       1.0  0.5351373301132806  0.6903506502160274  0.6035519186293214  1.0000
  C   C81       1.0  0.5490034634191857  0.7076438509373426  0.5916124079823197  1.0000
  C   C82       1.0  0.571127144278229  0.7084549292548572  0.5976679894145398  1.0000
  C   C83       1.0  0.5797586045780412  0.6914756009716388  0.6150156763301301  1.0000
  C   C84       1.0  0.5664392220099349  0.6736605513785838  0.6261688066501122  1.0000
  H   H53       1.0  0.517673311679636  0.690172499278702  0.5993217742341239  1.0000
  H   H54       1.0  0.5422584120336053  0.720687681323067  0.578178772441901  1.0000
  H   H55       1.0  0.5968942667267648  0.6920179979297753  0.6197000916531407  1.0000
  H   H56       1.0  0.5735975986122686  0.6604181868091479  0.6390513122450757  1.0000
  C   C85       1.0  0.6460841656229218  0.5908173979648249  0.6350596765371513  1.0000
  C   C86       1.0  0.6677679994825099  0.596945499791228  0.6202682089433222  1.0000
  C   C87       1.0  0.677816377921338  0.58727320145367  0.5988628543507333  1.0000
  C   C88       1.0  0.6661796427173886  0.5714841054668421  0.5922491422259807  1.0000
  C   C89       1.0  0.6448242516872634  0.5650183357361783  0.6073160653010248  1.0000
  C   C90       1.0  0.6348583644811255  0.5745944282477067  0.6287075357536348  1.0000
  H   H57       1.0  0.6766826804242619  0.6093012876530427  0.6252334258061852  1.0000
  H   H58       1.0  0.6945067197750558  0.5920770684963418  0.587523862994959  1.0000
  H   H59       1.0  0.6359168144020688  0.5525803334001019  0.6024641519214721  1.0000
  H   H60       1.0  0.618693484852281  0.5690736699626338  0.6404437465919063  1.0000
  C   C91       1.0  0.461502684603746  0.38075786478378093  0.6390349596283758  1.0000
  C   C92       1.0  0.4739133281572315  0.3688393381911976  0.6195460720715478  1.0000
  C   C93       1.0  0.4667123025834153  0.3485459121620961  0.6160990671544411  1.0000
  C   C94       1.0  0.44710518539969174  0.33987781019218843  0.6322041735353969  1.0000
  C   C95       1.0  0.4348549426425649  0.35157927912303566  0.6519295496541127  1.0000
  C   C96       1.0  0.44190153398358395  0.3720929248197243  0.6552367625695323  1.0000
  H   H61       1.0  0.48925207523597986  0.3752957217765663  0.6071033641143091  1.0000
  H   H62       1.0  0.4768043695381877  0.33929870772140325  0.6012947676154079  1.0000
  H   H63       1.0  0.41978568490903145  0.34490159671640186  0.6645805170426208  1.0000
  H   H64       1.0  0.4323627658136406  0.3810180130890172  0.670446476010661  1.0000
  C   C97       1.0  0.3491112910336091  0.464793945377269  0.6543713819843788  1.0000
  C   C98       1.0  0.362367347775066  0.48089464007626226  0.6390274055476052  1.0000
  C   C99       1.0  0.35561041144390376  0.4911261712782901  0.6174472225332509  1.0000
  C   C100      1.0  0.3355726525175162  0.485325249109889  0.611056018044397  1.0000
  C   C101      1.0  0.3222094050004772  0.4693086996290775  0.6264219331183486  1.0000
  C   C102      1.0  0.3289358329145261  0.45913374222839304  0.6480570807629281  1.0000
  H   H65       1.0  0.3775707025318404  0.4857906072836199  0.6439547960654219  1.0000
  H   H66       1.0  0.36593839682716206  0.5036067419510804  0.6057209230713623  1.0000
  H   H67       1.0  0.3065859608130264  0.46488805972596375  0.6217716204152837  1.0000
  H   H68       1.0  0.31848579211130146  0.4468251410448536  0.6599460048126705  1.0000
  C   C103      1.0  0.47362867141144677  0.522727092964009  0.6720677576656949  1.0000
  C   C104      1.0  0.49223264025762387  0.5043008727423478  0.6770774328397999  1.0000
  C   C105      1.0  0.5142275984217383  0.5088413925810643  0.6807253250429033  1.0000
  C   C106      1.0  0.5178774648350281  0.5318361318670181  0.6791854182512593  1.0000
  C   C107      1.0  0.4994321269008273  0.550332568649167  0.6739217452550819  1.0000
  C   C108      1.0  0.477352616527081  0.5457621294570923  0.6703678178331468  1.0000
  H   H69       1.0  0.4898196887690847  0.4865299786724242  0.677946535681183  1.0000
  H   H70       1.0  0.5285261538165741  0.49444701366083826  0.6845345484404008  1.0000
  H   H71       1.0  0.5021578223201967  0.568128181288837  0.6725257507502039  1.0000
  H   H72       1.0  0.46308093946340567  0.5601047123685444  0.6663604615456923  1.0000
  C   C109      1.0  0.4445677141014199  0.9034195845528551  0.3759060872490637  1.0000
  C   C110      1.0  0.4475992628397908  0.8867821464508379  0.36036659413443833  1.0000
  C   C111      1.0  0.4380811957954639  0.8659254128748639  0.36838151845701667  1.0000
  C   C112      1.0  0.4246841584282721  0.8620025855231609  0.3917784085192817  1.0000
  C   C113      1.0  0.42142655298882437  0.8787682969897702  0.4071958870756948  1.0000
  C   C114      1.0  0.4317635834607839  0.8991178570287996  0.39948051786521344  1.0000
  H   H73       1.0  0.4574195191347405  0.8899748209407384  0.342083077459141  1.0000
  H   H74       1.0  0.4405606475681823  0.8531801043632188  0.35630174199927817  1.0000
  H   H75       1.0  0.41110665112404315  0.8758443274928345  0.425327836720484  1.0000
  H   H76       1.0  0.429523724897165  0.9115147987140033  0.411791136242599  1.0000
  C   C115      1.0  0.41697475429017233  0.1857929319127967  0.5742504718955774  1.0000
  C   C116      1.0  0.43587617411437474  0.19894759794357514  0.5651100772811452  1.0000
  C   C117      1.0  0.4302293565784918  0.22346745512789  0.5604623736073295  1.0000
  C   C118      1.0  0.40563881824652476  0.23475751909611314  0.5645227063479434  1.0000
  C   C119      1.0  0.3869055974486851  0.22158940995222146  0.5740109509821012  1.0000
  C   C120      1.0  0.3925543938844713  0.19727595776488452  0.5791252389270244  1.0000
  H   H77       1.0  0.45482875571252873  0.19015715494125976  0.5615536120468716  1.0000
  H   H78       1.0  0.44482931763660727  0.23348361404521903  0.5529875728268785  1.0000
  H   H79       1.0  0.36787671007109235  0.2301868383566965  0.577232108896038  1.0000
  H   H80       1.0  0.37791951676130014  0.18725929388098844  0.5864586279050282  1.0000
  C   C121      1.0  0.4235918736559992  0.04868019821841028  0.5004667214857343  1.0000
  C   C122      1.0  0.4197052529988751  0.06381628406189294  0.479987425865918  1.0000
  C   C123      1.0  0.4211469753117284  0.05484274434185092  0.45874015836560855  1.0000
  C   C124      1.0  0.4273862768833291  0.030753503246754986  0.45755321750283034  1.0000
  C   C125      1.0  0.43230724576428997  0.01565565948759735  0.4777740043167818  1.0000
  C   C126      1.0  0.4299909553832618  0.02457585732747247  0.4992812096762837  1.0000
  H   H81       1.0  0.4146564365493079  0.08241165120918174  0.4807447287771532  1.0000
  H   H82       1.0  0.4173658917024113  0.0666276392726187  0.4431802134410569  1.0000
  H   H83       1.0  0.43698837552431596  0.9970400757764916  0.4770933990769798  1.0000
  H   H84       1.0  0.43293977419306706  0.012734301119983294  0.5150563430177966  1.0000
  C   C127      1.0  0.5967893314924254  0.8707074499394348  0.547014121160661  1.0000
  C   C128      1.0  0.5969856219853583  0.879586409013782  0.5231456401888206  1.0000
  C   C129      1.0  0.5983624960836968  0.8645021206334822  0.5065078714974981  1.0000
  C   C130      1.0  0.5993247771856157  0.8405154190176888  0.5136957281671177  1.0000
  C   C131      1.0  0.5999838119985409  0.8314776935343936  0.5373664957793097  1.0000
  C   C132      1.0  0.5990270294916374  0.8465555666190919  0.5539388747826439  1.0000
  H   H85       1.0  0.5960852257659319  0.8980915571094866  0.5175529448992463  1.0000
  H   H86       1.0  0.5982126350663234  0.8714889796037785  0.48815332333718364  1.0000
  H   H87       1.0  0.600929880643467  0.8129444594594427  0.5429932600797367  1.0000
  H   H88       1.0  0.5990960891333796  0.8396073629283364  0.5723511645672547  1.0000
  C   C133      1.0  0.5405742329150204  0.03183345652384465  0.5660750086789278  1.0000
  C   C134      1.0  0.5227984653242713  0.051052643836696734  0.5730815204876668  1.0000
  C   C135      1.0  0.5158198910425275  0.06933129050383544  0.5558831876351379  1.0000
  C   C136      1.0  0.5269477531006097  0.06853764937618353  0.5317631945854956  1.0000
  C   C137      1.0  0.5452839023856029  0.049694870930342944  0.5249201341975928  1.0000
  C   C138      1.0  0.5519042225419184  0.031306758494848895  0.5420162254988733  1.0000
  H   H89       1.0  0.5141496710829103  0.05159128428806076  0.5917239564094944  1.0000
  H   H90       1.0  0.5022419655003776  0.08423242991397126  0.561352250433838  1.0000
  H   H91       1.0  0.5543596632930545  0.0491686346659046  0.5063824219051225  1.0000
  H   H92       1.0  0.5658846153780216  0.01664614231639982  0.5365935947633049  1.0000
  C   C139      1.0  0.4762451234884658  0.9364027111521426  0.5378230876870572  1.0000
  C   C140      1.0  0.4591550985300563  0.922169471337664  0.5387116508588886  1.0000
  C   C141      1.0  0.4585265346915169  0.9133335705423216  0.5180646301767245  1.0000
  C   C142      1.0  0.4747239094997998  0.9190934883213843  0.49662431707480964  1.0000
  C   C143      1.0  0.49113795598235155  0.9340074013972232  0.4956168071987329  1.0000
  C   C144      1.0  0.4919508848031408  0.9426158923268267  0.5162336517566626  1.0000
  H   H93       1.0  0.4469222452794162  0.9174714236429735  0.5554225161210757  1.0000
  H   H94       1.0  0.44557799799288567  0.9020405417869634  0.5186942226566001  1.0000
  H   H95       1.0  0.5036027509377545  0.938479531071248  0.4790565757348562  1.0000
  H   H96       1.0  0.5048136303075197  0.9540202399761496  0.5154124283783001  1.0000
  C   C145      1.0  0.638007147298143  0.1761636743660676  0.36785657110181624  1.0000
  C   C146      1.0  0.6347802574380359  0.1986515207895064  0.3552423214904878  1.0000
  C   C147      1.0  0.6408378963316007  0.21742233609590578  0.36331117745696756  1.0000
  C   C148      1.0  0.6508316696165877  0.21363007428730102  0.3836441742799134  1.0000
  C   C149      1.0  0.6544238010061876  0.1910923536429881  0.39599141438801755  1.0000
  C   C150      1.0  0.6477644730339016  0.17248596575697475  0.38830597826141106  1.0000
  H   H97       1.0  0.627393742701351  0.20159961697506795  0.33932926992329576  1.0000
  H   H98       1.0  0.6383090657395409  0.23468461085922096  0.35347765369676604  1.0000
  H   H99       1.0  0.6622636954967197  0.18799576535408963  0.4116415768497814  1.0000
  H   H100      1.0  0.6507355423009218  0.15515919948642623  0.3979080642200683  1.0000
  C   C151      1.0  0.5435742842814737  0.055687846069310154  0.38875163041811484  1.0000
  C   C152      1.0  0.5230204526917093  0.0473705900657807  0.38644230943619456  1.0000
  C   C153      1.0  0.5232038308513615  0.023321059583205125  0.38849562557360723  1.0000
  C   C154      1.0  0.5442991857018075  0.007377196946608523  0.392003958831664  1.0000
  C   C155      1.0  0.5651200924288838  0.015685313555891787  0.39378710551727303  1.0000
  C   C156      1.0  0.5646487158464383  0.03979836214864932  0.3925297566477139  1.0000
  H   H101      1.0  0.5066869165278186  0.05956856651527063  0.3834231862624524  1.0000
  H   H102      1.0  0.5070637099619715  0.017172722731613802  0.387082279406238  1.0000
  H   H103      1.0  0.581487773166188  0.003446537565640013  0.39658678149003174  1.0000
  H   H104      1.0  0.5806330857323238  0.046038073589703445  0.3942801670458282  1.0000
  C   C157      1.0  0.5171563604740687  0.1687590160330076  0.45171541244982977  1.0000
  C   C158      1.0  0.5001912945734921  0.1881960668334693  0.45930948005248756  1.0000
  C   C159      1.0  0.475109811697424  0.18921525398103622  0.4605150221006768  1.0000
  C   C160      1.0  0.4669766587244144  0.17057658984197507  0.45463866582716433  1.0000
  C   C161      1.0  0.48407438467466246  0.15151538705505121  0.4463486242949824  1.0000
  C   C162      1.0  0.5091909727587209  0.15079450906891453  0.4444842574497409  1.0000
  H   H105      1.0  0.506294648164148  0.20201231734174316  0.46510300852162595  1.0000
  H   H106      1.0  0.4620559328887033  0.20371125744573704  0.4674524828051663  1.0000
  H   H107      1.0  0.4778412080933937  0.13678709762077335  0.4423975438248165  1.0000
  H   H108      1.0  0.5221743165171557  0.1357522395516071  0.4385914858927326  1.0000
  C   C163      1.0  0.6090150931734273  0.04192886728252258  0.4640418211313766  1.0000
  C   C164      1.0  0.6099662488619606  0.02690491307707674  0.48526703690718637  1.0000
  C   C165      1.0  0.5984451527925686  0.007234544002331865  0.4903565562629138  1.0000
  C   C166      1.0  0.586385080710405  0.002290817841386776  0.47402389444612286  1.0000
  C   C167      1.0  0.5856888315848928  0.017188467587808533  0.45268534123961507  1.0000
  C   C168      1.0  0.5966351166382825  0.0371724638806418  0.4478641025315018  1.0000
  H   H109      1.0  0.6195468430136326  0.030474048018729813  0.49782226512395433  1.0000
  H   H110      1.0  0.599338121671176  0.9957099390878239  0.5067196141671174  1.0000
  H   H111      1.0  0.5765876790739163  0.013342279509269013  0.4399114543090758  1.0000
  H   H112      1.0  0.5959485525317832  0.048633820146972914  0.43139426520525104  1.0000
  C   C169      1.0  0.8681998477950131  0.46311324394221165  0.40357593756142457  1.0000
  C   C170      1.0  0.8700410702102133  0.47915121780086606  0.38286991215037586  1.0000
  C   C171      1.0  0.8521601150724226  0.48297691283470745  0.36896546769983224  1.0000
  C   C172      1.0  0.8319344974052508  0.4712743576934192  0.37590538244782884  1.0000
  C   C173      1.0  0.8297163967390448  0.45573787124346304  0.3969817083900991  1.0000
  C   C174      1.0  0.8479356573125185  0.45146521214708335  0.41056994500961413  1.0000
  H   H113      1.0  0.8856989234171676  0.48800097545790727  0.3770961806426143  1.0000
  H   H114      1.0  0.8542867489939083  0.4947675953589391  0.3525234653980394  1.0000
  H   H115      1.0  0.8143461810058239  0.44650118999938043  0.40249215519094633  1.0000
  H   H116      1.0  0.84645114501299  0.4388704338645347  0.4264410811345527  1.0000
  C   C175      1.0  0.15112086103113442  0.44491488837201754  0.5821617088460519  1.0000
  C   C176      1.0  0.1675625465384289  0.45762788542258  0.5657477043402239  1.0000
  C   C177      1.0  0.18746091069028847  0.4633352360507831  0.5727417062146029  1.0000
  C   C178      1.0  0.19069318234688987  0.4565565127687392  0.5961965140692886  1.0000
  C   C179      1.0  0.17434345445144553  0.44371948102584513  0.612375674432859  1.0000
  C   C180      1.0  0.1548677472299441  0.43767181347553474  0.6053175277381042  1.0000
  H   H117      1.0  0.16487118700361755  0.4631861990489818  0.5477539380186951  1.0000
  H   H118      1.0  0.19988439025518487  0.4734601269246758  0.5601865910687367  1.0000
  H   H119      1.0  0.1768287556930777  0.43833494517775884  0.6304652359699504  1.0000
  H   H120      1.0  0.14236005424793757  0.4277169466541615  0.6180318067048601  1.0000
  C   C181      1.0  0.035043262050842634  0.45787135306549476  0.4846896853428511  1.0000
  C   C182      1.0  0.023982297487599266  0.4755818707699212  0.49893552009277875  1.0000
  C   C183      1.0  0.9996333866304876  0.48661001980402907  0.49895226914045976  1.0000
  C   C184      1.0  0.9862707041952474  0.48024206854422535  0.48449662336811716  1.0000
  C   C185      1.0  0.9971986629665939  0.46230923964080656  0.47045191744008696  1.0000
  C   C186      1.0  0.021435222269947353  0.4509482460946388  0.47079723559238496  1.0000
  H   H121      1.0  0.03426474023376786  0.4808978736850834  0.5098188109950993  1.0000
  H   H122      1.0  0.991439461823519  0.5005374560998405  0.5097125057044232  1.0000
  H   H123      1.0  0.986897019736281  0.45700679776003367  0.4595424455743479  1.0000
  H   H124      1.0  0.029803287440302993  0.4370533672705799  0.4599335685922595  1.0000
  C   C187      1.0  0.8483503544531888  0.589980137848252  0.5519319994005311  1.0000
  C   C188      1.0  0.8227649531929541  0.5935653396593118  0.5601846177306743  1.0000
  C   C189      1.0  0.8082491407053752  0.5817500620275337  0.5516038898558091  1.0000
  C   C190      1.0  0.8193934069156988  0.5658269409872327  0.5352842398182884  1.0000
  C   C191      1.0  0.8450325131181831  0.5615300951961315  0.527819181624852  1.0000
  C   C192      1.0  0.8594161723143189  0.5738136767014176  0.5358765994071685  1.0000
  H   H125      1.0  0.8141230034903962  0.6058765644936444  0.57280392495003  1.0000
  H   H126      1.0  0.7884829060152673  0.5848762014893226  0.5577027939833594  1.0000
  H   H127      1.0  0.8537406008638408  0.5492237911282791  0.515206009131277  1.0000
  H   H128      1.0  0.8790871068461186  0.5706374987004152  0.5297120959696402  1.0000
  C   C193      1.0  0.9956782442881111  0.5637934877102374  0.49634155641574124  1.0000
  C   C194      1.0  0.997522379723968  0.5759014699911233  0.5142908623637109  1.0000
  C   C195      1.0  0.01604943646487606  0.5676231296959826  0.527313836527658  1.0000
  C   C196      1.0  0.03310844362160091  0.5473975523058366  0.5221597309531398  1.0000
  C   C197      1.0  0.031335505263484054  0.535405398763479  0.5040942569650976  1.0000
  C   C198      1.0  0.012731496287770261  0.5436074739016902  0.49117562234747003  1.0000
  H   H129      1.0  0.9847803253929528  0.5916865274927141  0.5180894841859199  1.0000
  H   H130      1.0  0.01721199682549278  0.5769116098488588  0.5413476961924658  1.0000
  H   H131      1.0  0.04409490334202326  0.5196510141914489  0.5002185585102646  1.0000
  H   H132      1.0  0.011285706035484289  0.5340441904001327  0.47745135273757744  1.0000
  C   C199      1.0  0.8817847046369479  0.630777070080816  0.4381059928625355  1.0000
  C   C200      1.0  0.8617314732669217  0.629297081367413  0.42883797339811736  1.0000
  C   C201      1.0  0.8594137002432631  0.6078172049270798  0.4231964398519392  1.0000
  C   C202      1.0  0.8773957174170026  0.5881060606810132  0.4264044249079129  1.0000
  C   C203      1.0  0.8980505542187094  0.590029751272326  0.4343503731424323  1.0000
  C   C204      1.0  0.9002639532920715  0.6113668200777239  0.440095717186352  1.0000
  H   H133      1.0  0.847466204201012  0.6443428239472279  0.42712884538763995  1.0000
  H   H134      1.0  0.8434980759985358  0.6063392898181246  0.41684674205556604  1.0000
  H   H135      1.0  0.9118345592752074  0.5748797624331065  0.43705851965249615  1.0000
  H   H136      1.0  0.915942617573979  0.6125382175873241  0.44689026687292227  1.0000
  C   C205      1.0  0.16613368503399326  0.6422252057252219  0.37302340743669415  1.0000
  C   C206      1.0  0.16032404245226436  0.6354074119716847  0.3975917867521011  1.0000
  C   C207      1.0  0.17858501128007467  0.6312560094416052  0.41095358332553844  1.0000
  C   C208      1.0  0.20295710510295512  0.6332852395938634  0.3998337308719265  1.0000
  C   C209      1.0  0.20892041294453104  0.6398786564291199  0.37518551416802537  1.0000
  C   C210      1.0  0.19047728852137907  0.6444690046790597  0.3618181379604504  1.0000
  H   H137      1.0  0.14165314345008848  0.6336793639664138  0.4064388290183228  1.0000
  H   H138      1.0  0.17370158123306118  0.6266283250508136  0.4300418263597382  1.0000
  H   H139      1.0  0.22765408153692088  0.6415881418189195  0.36647028087179306  1.0000
  H   H140      1.0  0.1950766372144583  0.6498450590765347  0.3428265765574895  1.0000
  C   C211      1.0  0.046056433235409776  0.5639609380429684  0.3585016603176533  1.0000
  C   C212      1.0  0.026320760877520406  0.5645284866082917  0.3783788111109843  1.0000
  C   C213      1.0  0.008275900167205011  0.5504547307981401  0.3809792856061505  1.0000
  C   C214      1.0  0.01017778190978461  0.5357824031792776  0.36374537004780194  1.0000
  C   C215      1.0  0.02967244393382646  0.5357411073019178  0.34385813522737807  1.0000
  C   C216      1.0  0.047429993120458126  0.5497076223594171  0.34124484478068223  1.0000
  H   H141      1.0  0.025538476448845295  0.5750602874493048  0.3920574014277294  1.0000
  H   H142      1.0  0.993294635391997  0.550525600540756  0.39645061523895025  1.0000
  H   H143      1.0  0.031236154921952808  0.5245450040413592  0.3304658617138843  1.0000
  H   H144      1.0  0.0625609006538635  0.5491202361508174  0.3258694307958893  1.0000
  C   C217      1.0  0.1152197001046386  0.5706085191114593  0.461224054846921  1.0000
  C   C218      1.0  0.12302939508085894  0.5580991642712901  0.44161346742177177  1.0000
  C   C219      1.0  0.1393229599513955  0.5368496062906085  0.4429049905454181  1.0000
  C   C220      1.0  0.14744970635982727  0.528023943393033  0.46397165180160127  1.0000
  C   C221      1.0  0.13994905515802408  0.5406806090945859  0.4834484004469226  1.0000
  C   C222      1.0  0.12397241466000967  0.5620522255685323  0.4820201734704509  1.0000
  H   H145      1.0  0.11555950245962752  0.5640877074277374  0.42595057041211937  1.0000
  H   H146      1.0  0.14430186771183195  0.5265770035706511  0.42821484927611236  1.0000
  H   H147      1.0  0.14578780848167994  0.5335871285076111  0.4999402295324148  1.0000
  H   H148      1.0  0.11773912748256775  0.5715307502877056  0.4973164662246045  1.0000
  C   C223      1.0  0.006224347551213881  0.6772905266240471  0.43763286619247155  1.0000
  C   C224      1.0  0.9936965912632395  0.6978149621308086  0.4470833733692666  1.0000
  C   C225      1.0  0.9803685339503506  0.6968278328410097  0.47080615077782106  1.0000
  C   C226      1.0  0.9789671788203426  0.6752506830145303  0.4848306210765959  1.0000
  C   C227      1.0  0.9917455345655364  0.6548115674226763  0.4754036164541563  1.0000
  C   C228      1.0  0.00556600262775695  0.6558472324080095  0.4519846828551339  1.0000
  H   H149      1.0  0.9941045475918943  0.7144594106463071  0.4359954451744188  1.0000
  H   H150      1.0  0.9702708156170055  0.7126687548139339  0.4778951238594072  1.0000
  H   H151      1.0  0.9902798862815405  0.6380476713339952  0.48591240657601137  1.0000
  H   H152      1.0  0.014925887297316892  0.6399581402488864  0.44483275769943004  1.0000
  C   C229      1.0  0.4150884705730968  0.46939424898820836  0.82263759745435  1.0000
  C   C230      1.0  0.43991973067286677  0.4599103284469357  0.8152502447793547  1.0000
  C   C231      1.0  0.4478909508622627  0.4486638316780064  0.794650115857449  1.0000
  C   C232      1.0  0.4313299842060825  0.4474595095079472  0.7807310453461015  1.0000
  C   C233      1.0  0.40658953844534007  0.4575428022959571  0.7876511839901228  1.0000
  C   C234      1.0  0.3984314893351762  0.46811908821284715  0.8087890954038643  1.0000
  H   H153      1.0  0.45298919428203666  0.46073614672534685  0.8256057925588658  1.0000
  H   H154      1.0  0.467015357645544  0.4407628713594732  0.7894758406587566  1.0000
  H   H155      1.0  0.39361260478023574  0.456435584740334  0.7771932878139307  1.0000
  H   H156      1.0  0.3791538925932471  0.4753095700612037  0.81440885098358  1.0000
  C   C235      1.0  0.4333846600400153  0.6561909006684241  0.10057652496036626  1.0000
  C   C236      1.0  0.4496796570849037  0.6720890703825688  0.09307645147019387  1.0000
  C   C237      1.0  0.461459238577987  0.6778272028081095  0.10939519131370685  1.0000
  C   C238      1.0  0.4573761507651695  0.6673847208885919  0.13316562501593598  1.0000
  C   C239      1.0  0.44197844200595393  0.6506783220156843  0.14032039998694176  1.0000
  C   C240      1.0  0.4297398742733427  0.6453575635374909  0.12419345663717705  1.0000
  H   H157      1.0  0.45254127478023454  0.6805886311781117  0.07490817455832106  1.0000
  H   H158      1.0  0.4734749140401534  0.690639882829536  0.10362687482633454  1.0000
  H   H159      1.0  0.4393660538570542  0.6419352108000004  0.1582885684807207  1.0000
  H   H160      1.0  0.4174110050115988  0.6328206015074372  0.1299982609509153  1.0000
  C   C241      1.0  0.4340307107873599  0.5730632971973884  0.925073150794405  1.0000
  C   C242      1.0  0.43450412916765435  0.5536301873047607  0.9425001922540356  1.0000
  C   C243      1.0  0.435504570274908  0.5560953935434421  0.9657822353710378  1.0000
  C   C244      1.0  0.4367751676895676  0.5777946037678228  0.9716101890376978  1.0000
  C   C245      1.0  0.436280639888536  0.5972366058993706  0.9542056984216184  1.0000
  C   C246      1.0  0.43481101292420415  0.5949047832003657  0.9310038435069838  1.0000
  H   H161      1.0  0.43342302728838117  0.5368292435260321  0.9382011729705374  1.0000
  H   H162      1.0  0.43493912966834913  0.541221191963247  0.9793935535790625  1.0000
  H   H163      1.0  0.4366736479530999  0.6141020068127353  0.9587510397271639  1.0000
  H   H164      1.0  0.43417081396646706  0.6100823508264848  0.9176883085910649  1.0000
  C   C247      1.0  0.5823979613155048  0.4476578430226599  0.11766508506661376  1.0000
  C   C248      1.0  0.575275956893874  0.44460022821294076  0.1426552241715351  1.0000
  C   C249      1.0  0.5874380327616159  0.4536796120173604  0.15649206055275855  1.0000
  C   C250      1.0  0.6070829692470959  0.4652920984037197  0.14533666214120297  1.0000
  C   C251      1.0  0.6142058894964335  0.46817062330151615  0.12044999949234607  1.0000
  C   C252      1.0  0.6018634596928512  0.4594860691931857  0.1066725999823774  1.0000
  H   H165      1.0  0.56004578510889  0.4356496152647428  0.15118313103381253  1.0000
  H   H166      1.0  0.5815667574354106  0.45193703676423863  0.17566530738168523  1.0000
  H   H167      1.0  0.6294161516167095  0.47711892186959637  0.11172861721531718  1.0000
  H   H168      1.0  0.6078264362618471  0.4614897678424379  0.08747521491930492  1.0000
  C   C253      1.0  0.5255818193027565  0.5677912204686497  0.0754426569821906  1.0000
  C   C254      1.0  0.5455659072578881  0.5669589340076381  0.056005083035966484  1.0000
  C   C255      1.0  0.548216527417521  0.5866498104591141  0.03916479935172748  1.0000
  C   C256      1.0  0.5304309234466589  0.6067665096469247  0.04136249684084089  1.0000
  C   C257      1.0  0.511464884884662  0.6081320459719477  0.061722127706500846  1.0000
  C   C258      1.0  0.5091231891730713  0.588623958830144  0.07894513949796401  1.0000
  H   H169      1.0  0.5585527157326274  0.550929608326082  0.05347342663971224  1.0000
  H   H170      1.0  0.5631807516475625  0.5858301369090517  0.023783333109265725  1.0000
  H   H171      1.0  0.4979563874868768  0.6239359660080201  0.06369055574187651  1.0000
  H   H172      1.0  0.493717049817291  0.5893378735181518  0.09406180112778936  1.0000
  C   C259      1.0  0.48689638823255377  0.47918875595348864  0.9967005798502057  1.0000
  C   C260      1.0  0.49768086580819093  0.4568061354976324  0.9908832510285178  1.0000
  C   C261      1.0  0.4967725009104675  0.4505087235697938  0.9689196616807009  1.0000
  C   C262      1.0  0.48527378567154317  0.466578052209956  0.9525699976137879  1.0000
  C   C263      1.0  0.47479699697702205  0.48903893130827963  0.958274290789244  1.0000
  C   C264      1.0  0.47531754763855105  0.4951406878004107  0.9804195941092523  1.0000
  H   H173      1.0  0.506053178680009  0.44414371443493167  0.00361273246776402  1.0000
  H   H174      1.0  0.5046659178184673  0.43300915959613295  0.9647431410218593  1.0000
  H   H175      1.0  0.465749404674695  0.5015143433968211  0.9458922608320225  1.0000
  H   H176      1.0  0.4664708648604912  0.5121914285154338  0.9851468913270265  1.0000
  C   C265      1.0  0.5950203873014625  0.617892755036661  0.78932438387115  1.0000
  C   C266      1.0  0.5726812746902179  0.6330827150439046  0.7952017808163313  1.0000
  C   C267      1.0  0.5540126778019433  0.6345717268210274  0.7827990056758167  1.0000
  C   C268      1.0  0.557713319075864  0.6210690871935359  0.7642971311153072  1.0000
  C   C269      1.0  0.5800178580203842  0.6058547774542897  0.7584453500409335  1.0000
  C   C270      1.0  0.5985806005800015  0.6041567026807669  0.7710379663544237  1.0000
  H   H177      1.0  0.5696919674715113  0.6435410365875683  0.8095400648717807  1.0000
  H   H178      1.0  0.5367494104830851  0.6462618127584291  0.7875571592200843  1.0000
  H   H179      1.0  0.5828107398225777  0.5950050206360465  0.7446037511918739  1.0000
  H   H180      1.0  0.6153691622639771  0.5916865720926499  0.7671385907838829  1.0000
  C   C271      1.0  0.4945895003061863  0.6595207025243038  0.8920851788459152  1.0000
  C   C272      1.0  0.492590234862077  0.6833910297568123  0.8929379203934833  1.0000
  C   C273      1.0  0.4784907916816384  0.693470706192292  0.9131442557865618  1.0000
  C   C274      1.0  0.46603742825317324  0.6797659581848838  0.9323471759329859  1.0000
  C   C275      1.0  0.4670440445703599  0.6561847252298256  0.9308679395862457  1.0000
  C   C276      1.0  0.48163898340775296  0.645914925533624  0.9109787407804482  1.0000
  H   H181      1.0  0.5020955526034766  0.6940596320065326  0.8780528750019362  1.0000
  H   H182      1.0  0.4774167209964208  0.7118191017263148  0.9140031634262019  1.0000
  H   H183      1.0  0.45605160568899483  0.6460295355965979  0.9448604343457351  1.0000
  H   H184      1.0  0.4822719173972986  0.6276728737978393  0.9099887028572008  1.0000
  C   C277      1.0  0.559942646468563  0.5249269029036707  0.861595197440856  1.0000
  C   C278      1.0  0.54877884929044  0.5052077649399048  0.8668621140748703  1.0000
  C   C279      1.0  0.5362138487869026  0.5004627724358617  0.8508964992902666  1.0000
  C   C280      1.0  0.5347452961660545  0.5155196875948597  0.8298429773289432  1.0000
  C   C281      1.0  0.5480737022306041  0.5338285785743045  0.8233680294948584  1.0000
  C   C282      1.0  0.5608893751168599  0.5384174286187161  0.8392940318734275  1.0000
  H   H185      1.0  0.5481813061164332  0.49463036827890394  0.884003528813032  1.0000
  H   H186      1.0  0.5259793162364507  0.4861997831339394  0.8558301503808439  1.0000
  H   H187      1.0  0.5469500013348744  0.5455109052666504  0.8070816073477745  1.0000
  H   H188      1.0  0.5706775480637677  0.5528897939772557  0.8347149097943171  1.0000
  C   C283      1.0  0.5974827331997308  0.578366629701659  0.9502098932730082  1.0000
  C   C284      1.0  0.6085619561275186  0.558816011974483  0.9385309718526414  1.0000
  C   C285      1.0  0.6091826315798687  0.5363175982982582  0.9511515279571452  1.0000
  C   C286      1.0  0.597963555061895  0.5330616260677437  0.9753918353923174  1.0000
  C   C287      1.0  0.5865627052090113  0.5525678534912616  0.9871091845900216  1.0000
  C   C288      1.0  0.5866523447838796  0.5752100621843504  0.9745777366501805  1.0000
  H   H189      1.0  0.6172300285180042  0.5610167683360964  0.9198375918864692  1.0000
  H   H190      1.0  0.6183440645695333  0.5213880397553554  0.9419921548726259  1.0000
  H   H191      1.0  0.5780292488629181  0.5501651834005422  0.005843036586453125  1.0000
  H   H192      1.0  0.5780059290490512  0.590350619047716  0.9835473874978683  1.0000
  N   N1        1.0  0.4018356481644788  0.22556256309560926  0.49636045830980685  1.0000
  C   C289      1.0  0.3766967128372762  0.23443014563494796  0.5091854397117422  1.0000
  C   C290      1.0  0.4181528160283805  0.24229276380231277  0.4956133028399709  1.0000
  C   C291      1.0  0.4013076390190753  0.22279317987813024  0.471766052504365  1.0000
  C   C292      1.0  0.41111369290746425  0.2027567547860281  0.5089259004785696  1.0000
  H   H193      1.0  0.36889637498430955  0.25146316536489194  0.5000912198662262  1.0000
  H   H194      1.0  0.37656286819153845  0.23724897134752648  0.5276274734143909  1.0000
  H   H195      1.0  0.3640729082940693  0.22192742487314188  0.5105736490876784  1.0000
  H   H196      1.0  0.43714267541456125  0.23645640602632786  0.48560499409493196  1.0000
  H   H197      1.0  0.41122546275083177  0.25992184583756567  0.4870455342183801  1.0000
  H   H198      1.0  0.41961876258594455  0.24422174614916592  0.5138105921645104  1.0000
  H   H199      1.0  0.39013418589502336  0.20942861135290589  0.471590783569178  1.0000
  H   H200      1.0  0.42009603677783625  0.21686097554067832  0.46134204534906204  1.0000
  H   H201      1.0  0.393566379969136  0.23945368417756815  0.4620262371858556  1.0000
  H   H202      1.0  0.4306501628569374  0.19621761435525234  0.5009756039407842  1.0000
  H   H203      1.0  0.40038218934983233  0.18917625180715927  0.5083442824159703  1.0000
  H   H204      1.0  0.41011663994961545  0.20386863534028857  0.5279184182633206  1.0000
  N   N2        1.0  0.6361725292784458  0.6482646166475118  0.5637775981042065  1.0000
  C   C293      1.0  0.6287742187716526  0.6728495790461089  0.5684162291017122  1.0000
  C   C294      1.0  0.662241290098921  0.640049235520763  0.5650875761230959  1.0000
  C   C295      1.0  0.6330828538715293  0.6464754209075232  0.5397165161024441  1.0000
  C   C296      1.0  0.6206345150360384  0.633678887682952  0.581844237133016  1.0000
  H   H205      1.0  0.6092471949372383  0.6796822808742264  0.5673089387467208  1.0000
  H   H206      1.0  0.6401346089425901  0.6843815174139073  0.5552425855054777  1.0000
  H   H207      1.0  0.6307191471554331  0.6749461698641762  0.5864370837327566  1.0000
  H   H208      1.0  0.6652164576111967  0.6405017505124301  0.5831700071896488  1.0000
  H   H209      1.0  0.6686034803958575  0.6218155574200261  0.5608255666843747  1.0000
  H   H210      1.0  0.6744841779163199  0.6509941523723223  0.5522058575320878  1.0000
  H   H211      1.0  0.6447745346477921  0.6571309687776358  0.5256950398779415  1.0000
  H   H212      1.0  0.6136734331048956  0.6527930336089836  0.5379461761856872  1.0000
  H   H213      1.0  0.6383817746985857  0.6281369750964683  0.53561795569942  1.0000
  H   H214      1.0  0.6257486770683941  0.6149720930343928  0.5789204945443546  1.0000
  H   H215      1.0  0.6007783000004953  0.6394352736636272  0.5814950212164387  1.0000
  H   H216      1.0  0.622637603275592  0.6345652698111167  0.6002112232715332  1.0000
  N   N3        1.0  0.5647041765679799  0.5116046249986558  0.7490593583231944  1.0000
  C   C297      1.0  0.5864115916066074  0.5151089913001933  0.7297912312326021  1.0000
  C   C298      1.0  0.572872925463655  0.5015924679630539  0.7714533312889275  1.0000
  C   C299      1.0  0.5513132655019507  0.49542845350139225  0.7427268909998974  1.0000
  C   C300      1.0  0.5482013805756845  0.5342538029727537  0.7522912799501813  1.0000
  H   H217      1.0  0.5809679932948576  0.5226085901246963  0.7125973095390491  1.0000
  H   H218      1.0  0.5991893115672137  0.49836970580308243  0.7267298698905263  1.0000
  H   H219      1.0  0.596863196566544  0.527295137359525  0.7339762122270512  1.0000
  H   H220      1.0  0.5570955433526159  0.4976143935034783  0.7860692074366614  1.0000
  H   H221      1.0  0.5861526201791659  0.4849814334128885  0.7693667684461317  1.0000
  H   H222      1.0  0.5818847613408445  0.5138365807334605  0.7775299688106967  1.0000
  H   H223      1.0  0.5631571504390179  0.47814628915624635  0.7401156444252824  1.0000
  H   H224      1.0  0.544921462860909  0.5023970220619046  0.7258606445218474  1.0000
  H   H225      1.0  0.5347898380311638  0.4924889362433267  0.7569254922608672  1.0000
  H   H226      1.0  0.5415909145496229  0.54216404226848  0.735717681448468  1.0000
  H   H227      1.0  0.5576411205557807  0.5469980964982277  0.756995150604302  1.0000
  H   H228      1.0  0.5317072565552275  0.5322538706383223  0.7668110109980691  1.0000
  N   N4        1.0  0.5163172661019311  0.5635338333690334  0.9676114451272286  1.0000
  C   C301      1.0  0.5026769997140812  0.543914027931487  0.9762157568430219  1.0000
  C   C302      1.0  0.5409503019462597  0.554841236190626  0.9536943427135507  1.0000
  C   C303      1.0  0.5188619238329172  0.5739041379746879  0.9880912775003747  1.0000
  C   C304      1.0  0.5027569289073014  0.5814808151720635  0.9523405146206805  1.0000
  H   H229      1.0  0.5124999521663158  0.5297310514896066  0.9873848698838382  1.0000
  H   H230      1.0  0.49977051006573053  0.5363131766653488  0.9611121716434874  1.0000
  H   H231      1.0  0.4842109126185794  0.5495851154738555  0.9872946594106334  1.0000
  H   H232      1.0  0.5523238207214732  0.5688025326478338  0.948233398291325  1.0000
  H   H233      1.0  0.5511355080979176  0.540382074460786  0.9643055966393517  1.0000
  H   H234      1.0  0.5398846274113235  0.54837147652894  0.9371763479487002  1.0000
  H   H235      1.0  0.5283267109504834  0.5892882238179582  0.9821598739663087  1.0000
  H   H236      1.0  0.530036572033587  0.561348687897501  0.9994153132726588  1.0000
  H   H237      1.0  0.5006272042276808  0.5798291220944823  0.9995494254370777  1.0000
  H   H238      1.0  0.500445426948971  0.5744492258044129  0.9366230021185006  1.0000
  H   H239      1.0  0.5122739938067663  0.5967246415495451  0.9457538429481295  1.0000
  H   H240      1.0  0.48406569959475515  0.5881546334854675  0.9623509985625501  1.0000
  N   N5        1.0  0.5038292638841265  0.6883909002500334  0.698264351068116  1.0000
  C   C305      1.0  0.4824308380975605  0.7071183883997505  0.7037682115163539  1.0000
  C   C306      1.0  0.5212466613374412  0.6966250838788547  0.6767077468644682  1.0000
  C   C307      1.0  0.4953912474808459  0.667787668699503  0.6939191092255862  1.0000
  C   C308      1.0  0.5162415429803716  0.6819373509755663  0.7186047084667125  1.0000
  H   H241      1.0  0.4727102199682476  0.7123307530448724  0.6887222067395757  1.0000
  H   H242      1.0  0.4881160980126986  0.7229642546031854  0.7071598677438631  1.0000
  H   H243      1.0  0.4688883771316853  0.701410820790961  0.719890373758609  1.0000
  H   H244      1.0  0.512717453830889  0.700974262073658  0.6608197788578261  1.0000
  H   H245      1.0  0.5277980979265852  0.7123980350768804  0.6790357218942582  1.0000
  H   H246      1.0  0.5377086501294751  0.682960994382356  0.6722250163362519  1.0000
  H   H247      1.0  0.5111600927699766  0.6535384257938636  0.6894361585592588  1.0000
  H   H248      1.0  0.48605080181023147  0.6718734393470729  0.6785825670963694  1.0000
  H   H249      1.0  0.48246679631773215  0.6607736742066311  0.7098274369197978  1.0000
  H   H250      1.0  0.5227026071267166  0.6970668334147917  0.7226126195185072  1.0000
  H   H251      1.0  0.5325598301473441  0.6679130172075457  0.7149694850162163  1.0000
  H   H252      1.0  0.5038252484377127  0.6751261969383338  0.7350818488656656  1.0000
  N   N6        1.0  0.054075461748137404  0.5041829981390517  0.4217191002821063  1.0000
  C   C309      1.0  0.06177900075505369  0.479392084848821  0.4179087946333002  1.0000
  C   C310      1.0  0.06490027296542558  0.5188842275610436  0.40023644922403767  1.0000
  C   C311      1.0  0.06279549925258783  0.5081676531219402  0.44235479420551765  1.0000
  C   C312      1.0  0.026938112030180348  0.5102680852361583  0.4263531184956766  1.0000
  H   H253      1.0  0.0821450182025534  0.4741897418266136  0.41430014638316276  1.0000
  H   H254      1.0  0.05510283824394661  0.47569111904108613  0.4027046522789818  1.0000
  H   H255      1.0  0.05439932165351352  0.4677419576269277  0.4339093506327827  1.0000
  H   H256      1.0  0.08530772721307321  0.5142398397859039  0.39583070685403476  1.0000
  H   H257      1.0  0.05804739102184926  0.5168980928581268  0.38445678866493727  1.0000
  H   H258      1.0  0.06030513438282941  0.5376509693170122  0.40279988262853256  1.0000
  H   H259      1.0  0.08320206360697359  0.5038066239823813  0.43944487418400224  1.0000
  H   H260      1.0  0.055198738756897875  0.4971468549995206  0.4588393174007919  1.0000
  H   H261      1.0  0.057136630566495004  0.5266566613950779  0.44594883065917584  1.0000
  H   H262      1.0  0.018286648248298176  0.49984245211118594  0.44278479023478984  1.0000
  H   H263      1.0  0.0195668373224362  0.5068960335893188  0.4114224690963757  1.0000
  H   H264      1.0  0.020465965243441898  0.5289721312983492  0.42885896939604184  1.0000
  N   N7        1.0  0.41903435816236484  0.4267850166422743  0.9019792962272757  1.0000
  C   C313      1.0  0.397755031496489  0.4460270161538984  0.9052902932963189  1.0000
  C   C314      1.0  0.41086992346840684  0.40438527919465395  0.9124750672144114  1.0000
  C   C315      1.0  0.4378770711568562  0.43051732298504997  0.9138809342029127  1.0000
  C   C316      1.0  0.4296117665152078  0.42623818644706746  0.8762401314668153  1.0000
  H   H265      1.0  0.4033641778209129  0.4632236649287793  0.8980153723415345  1.0000
  H   H266      1.0  0.3889451764893136  0.4467455857808145  0.9244537637225188  1.0000
  H   H267      1.0  0.3835245718381278  0.4443281522299398  0.8957883845025096  1.0000
  H   H268      1.0  0.40275287469374743  0.40419628811184966  0.9318934844988981  1.0000
  H   H269      1.0  0.39666470913038526  0.40109452787194866  0.9038130498902642  1.0000
  H   H270      1.0  0.42649642517684483  0.3894937529096549  0.9102935942511378  1.0000
  H   H271      1.0  0.4544356819458129  0.4165783306800075  0.9115399889458395  1.0000
  H   H272      1.0  0.4306653068565524  0.4310263454802147  0.9333550929426312  1.0000
  H   H273      1.0  0.4442716881104037  0.4473663954679802  0.9065071392508391  1.0000
  H   H274      1.0  0.41569150514820313  0.4243458888827102  0.8664468976812397  1.0000
  H   H275      1.0  0.4454166066071437  0.4116815750589116  0.8729303218117807  1.0000
  H   H276      1.0  0.4363957354087334  0.44267426936810805  0.8679067413451237  1.0000
  N   N8        1.0  0.31570777018522406  0.5631974318050529  0.5413465519499038  1.0000
  C   C317      1.0  0.3362635759106334  0.5545218837759589  0.5537578869495311  1.0000
  C   C318      1.0  0.3255341946891949  0.570254149943201  0.5158190637951579  1.0000
  C   C319      1.0  0.2996114527953177  0.5834328087040608  0.5520862662530338  1.0000
  C   C320      1.0  0.30131916198866093  0.5444672470724107  0.5438016898101646  1.0000
  H   H277      1.0  0.32940944494928714  0.5491867046647093  0.5731339955438258  1.0000
  H   H278      1.0  0.34786312897721716  0.5679787910910022  0.5520547914671785  1.0000
  H   H279      1.0  0.34832783426713587  0.5387779316295785  0.5465432024649854  1.0000
  H   H280      1.0  0.31045507355009316  0.5765689969269945  0.5059062935288086  1.0000
  H   H281      1.0  0.336310557935545  0.5845482962791781  0.5131806310387969  1.0000
  H   H282      1.0  0.3378519352637438  0.5553821126480245  0.507229610108164  1.0000
  H   H283      1.0  0.2838904653074012  0.5903044434948256  0.5431060133966714  1.0000
  H   H284      1.0  0.30986010031545247  0.5979244357928003  0.5506399615557631  1.0000
  H   H285      1.0  0.29177886830647876  0.5785986188901544  0.571338965211516  1.0000
  H   H286      1.0  0.28543353649085834  0.5502532313824348  0.5348935667356455  1.0000
  H   H287      1.0  0.29400038633424147  0.5385610966023028  0.562902799801302  1.0000
  H   H288      1.0  0.31283446823425404  0.5289161259893783  0.5358314410423981  1.0000
  N   N9        1.0  0.4984010209057581  0.3669807035163888  0.48894932065835245  1.0000
  C   C321      1.0  0.4938362281177448  0.3757213583738538  0.5122179628065615  1.0000
  C   C322      1.0  0.4822221647012801  0.3499169511628155  0.4906319120426618  1.0000
  C   C323      1.0  0.524384195295771  0.3555495354360871  0.48249746002527477  1.0000
  C   C324      1.0  0.4930663428928827  0.3866334655141952  0.47050060889076184  1.0000
  H   H289      1.0  0.498408572329453  0.3613654126145975  0.5263581297037421  1.0000
  H   H290      1.0  0.47413195585344314  0.3836168614743077  0.5181096969777084  1.0000
  H   H291      1.0  0.5051892806670675  0.3891643177824048  0.5114843908623479  1.0000
  H   H292      1.0  0.48520628819541767  0.3428296401405763  0.4734477397574649  1.0000
  H   H293      1.0  0.48576884251209734  0.33491125194619836  0.5044261053735494  1.0000
  H   H294      1.0  0.4624383180727423  0.3578601409981678  0.49552663648180034  1.0000
  H   H295      1.0  0.5290168022834739  0.3408918015782132  0.49636849826096946  1.0000
  H   H296      1.0  0.537213564613557  0.36795989682145436  0.48059880245647457  1.0000
  H   H297      1.0  0.5283361629212114  0.34810579400694586  0.46535340613154696  1.0000
  H   H298      1.0  0.4963052635700355  0.38054708648191193  0.45274682707760955  1.0000
  H   H299      1.0  0.5049282859662703  0.39990732149307995  0.4687079640622198  1.0000
  H   H300      1.0  0.47352362450351543  0.39550156427040273  0.4749275139125144  1.0000
  N   N10       1.0  0.6735387027569433  0.5137876621877839  0.5203765337002929  1.0000
  C   C325      1.0  0.6714971767080061  0.4973768748879289  0.5047056268772606  1.0000
  C   C326      1.0  0.6735280837984788  0.5373759289443856  0.506895606789116  1.0000
  C   C327      1.0  0.6967001901516731  0.5059664523033405  0.5289419022389876  1.0000
  C   C328      1.0  0.6524441544371593  0.5144406884309295  0.5409963383054704  1.0000
  H   H301      1.0  0.6714832870225493  0.47937118675639284  0.5142332844149481  1.0000
  H   H302      1.0  0.6871908102921425  0.49631201708280875  0.4890619010199896  1.0000
  H   H303      1.0  0.6543773614325373  0.5028199636668835  0.4976731618272715  1.0000
  H   H304      1.0  0.689129103411861  0.5375103154379223  0.49116979138225847  1.0000
  H   H305      1.0  0.6563073906565234  0.5439398037132754  0.5002187383385759  1.0000
  H   H306      1.0  0.6752818396464432  0.5501570605614158  0.5181334280545387  1.0000
  H   H307      1.0  0.6975191817801665  0.48811414031891504  0.5389431510702472  1.0000
  H   H308      1.0  0.698657142429747  0.5178182317482423  0.5410801523969987  1.0000
  H   H309      1.0  0.7130119893205795  0.5056125836427641  0.513865001409552  1.0000
  H   H310      1.0  0.6346469605993651  0.5203234077145088  0.5352199788888504  1.0000
  H   H311      1.0  0.6534257169372991  0.5266756290961785  0.5531907143592669  1.0000
  H   H312      1.0  0.6519582310779177  0.49695659505744944  0.5516541399800556  1.0000
  N   N11       1.0  0.6434634373019249  0.542641833372237  0.26359714393707556  1.0000
  C   C329      1.0  0.6659551500973718  0.5255021547784683  0.2563531584826996  1.0000
  C   C330      1.0  0.6337071463723102  0.5539727543762721  0.2423497626431055  1.0000
  C   C331      1.0  0.6494381996369288  0.5604715336285427  0.2751993078274773  1.0000
  C   C332      1.0  0.624684824214338  0.5306527458352235  0.28054763944385375  1.0000
  H   H313      1.0  0.6619557598120216  0.5110485205210583  0.24864804365300616  1.0000
  H   H314      1.0  0.6744868726861599  0.5174323704912208  0.27177611576956995  1.0000
  H   H315      1.0  0.6801056987020326  0.5337096627292224  0.24270909365316143  1.0000
  H   H316      1.0  0.6471975809705166  0.5634149992294369  0.22918173814715948  1.0000
  H   H317      1.0  0.6290908090554062  0.5409504028540233  0.2331894156706964  1.0000
  H   H318      1.0  0.6163984101671942  0.56663073117974  0.24723207546619583  1.0000
  H   H319      1.0  0.6328370309342015  0.5736287752884791  0.2809464478640743  1.0000
  H   H320      1.0  0.6635826847650517  0.5698694190413507  0.2629422639139033  1.0000
  H   H321      1.0  0.656818375956859  0.5524181308215182  0.29134553430045496  1.0000
  H   H322      1.0  0.630882394439422  0.5227691808413777  0.29726211548539316  1.0000
  H   H323      1.0  0.620382089663962  0.5164815192036438  0.27270557242999094  1.0000
  H   H324      1.0  0.6070435583157808  0.5428521049835645  0.28549580322806967  1.0000
  N   N12       1.0  0.5964073254740663  0.3895393921872452  0.2021980008093252  1.0000
  C   C333      1.0  0.614232337726405  0.3989356007327925  0.18166692710434193  1.0000
  C   C334      1.0  0.6086441175930118  0.38017975282288713  0.22235674370927397  1.0000
  C   C335      1.0  0.5870481615102782  0.3706793225993393  0.19535044795990622  1.0000
  C   C336      1.0  0.575635618425275  0.4083452983138657  0.20947821698537356  1.0000
  H   H325      1.0  0.6059094452496401  0.4052559194379594  0.16579624403563112  1.0000
  H   H326      1.0  0.6306601167708473  0.38548184565137733  0.17632442898492975  1.0000
  H   H327      1.0  0.6208682279048676  0.4139402936433033  0.18581475823691854  1.0000
  H   H328      1.0  0.5955716435957469  0.3735100230238148  0.2384026014340701  1.0000
  H   H329      1.0  0.6241872436627338  0.36566484851840064  0.21780979549134963  1.0000
  H   H330      1.0  0.6161660223707679  0.3938972454456245  0.22774231461857536  1.0000
  H   H331      1.0  0.5776172629554226  0.3771763959372945  0.1802098548294481  1.0000
  H   H332      1.0  0.5735810110621413  0.3632163274775227  0.21049066084200072  1.0000
  H   H333      1.0  0.6022473357210046  0.3561954772112801  0.1897262358807278  1.0000
  H   H334      1.0  0.562141321819692  0.40201837157128884  0.2253418565969132  1.0000
  H   H335      1.0  0.5656170287440893  0.4155562391081726  0.19491427342007211  1.0000
  H   H336      1.0  0.5820621908830413  0.4229947947912174  0.214539895154979  1.0000
  N   N13       1.0  0.3703746482165498  0.5551319563642209  0.3706326638033389  1.0000
  C   C337      1.0  0.3748273445134006  0.5789488838206207  0.3703556821188646  1.0000
  C   C338      1.0  0.38403644572876927  0.5387204809174417  0.38698880557140136  1.0000
  C   C339      1.0  0.3787429253450608  0.5484622720061453  0.3462563550486257  1.0000
  C   C340      1.0  0.34380554329983176  0.5545121021909453  0.3789844347042591  1.0000
  H   H337      1.0  0.3651702110728208  0.5917024533807259  0.35781789880774956  1.0000
  H   H338      1.0  0.39472351762764735  0.5800063717953982  0.3645425184659799  1.0000
  H   H339      1.0  0.36815386040683873  0.5848291277481439  0.3883504996085326  1.0000
  H   H340      1.0  0.40417262567756607  0.5387300037186158  0.38128852570400135  1.0000
  H   H341      1.0  0.37796933742233474  0.543532220132548  0.40548380787787186  1.0000
  H   H342      1.0  0.381031977592503  0.5205582737132959  0.38775943468594787  1.0000
  H   H343      1.0  0.37565441472817995  0.5305977821288178  0.3456924566598713  1.0000
  H   H344      1.0  0.39868001555734844  0.5489326046712498  0.3392517568343909  1.0000
  H   H345      1.0  0.3685845776619013  0.5606544785787928  0.3336278353796739  1.0000
  H   H346      1.0  0.339750882040199  0.5367811142163272  0.37957274623256293  1.0000
  H   H347      1.0  0.3329221193132295  0.56662076322703  0.3670087200995373  1.0000
  H   H348      1.0  0.33676647947121263  0.5597697586227508  0.3972074486199503  1.0000
  N   N14       1.0  0.540873170065878  0.6664431410301442  0.9495445441618874  1.0000
  C   C341      1.0  0.5632828251801415  0.6615267099450306  0.9594373408372413  1.0000
  C   C342      1.0  0.545267528934201  0.6812023961852466  0.9262953365592053  1.0000
  C   C343      1.0  0.5201708777602833  0.678695808223375  0.9661852952861648  1.0000
  C   C344      1.0  0.5347599334769106  0.6442792358613898  0.9462107447284567  1.0000
  H   H349      1.0  0.5608723415203174  0.6497775579795166  0.9766355080905711  1.0000
  H   H350      1.0  0.5681208975804396  0.677769648481341  0.9628099586153397  1.0000
  H   H351      1.0  0.5793686738634778  0.6526736455092598  0.9471120269135777  1.0000
  H   H352      1.0  0.5287045703533774  0.6851532687824395  0.9183788110255591  1.0000
  H   H353      1.0  0.5499205673698652  0.6981059528039453  0.9280902069422792  1.0000
  H   H354      1.0  0.5606965244425908  0.6723557484898486  0.9132893001496474  1.0000
  H   H355      1.0  0.5163924536915757  0.6680218162874173  0.9839006544293106  1.0000
  H   H356      1.0  0.5029110208308007  0.6825405196850964  0.9593610223024235  1.0000
  H   H357      1.0  0.5240199595452255  0.6955526960535702  0.9691221854463945  1.0000
  H   H358      1.0  0.5174503957277697  0.6472923886671135  0.9395916639006863  1.0000
  H   H359      1.0  0.5324775771237719  0.6322952504932646  0.9632261531053692  1.0000
  H   H360      1.0  0.5495629866214992  0.6350673968889774  0.9330480360884681  1.0000
  N   N15       1.0  0.5511389035887739  0.5286743422849015  0.15186721892570665  1.0000
  C   C345      1.0  0.5620489019973225  0.5235770907752201  0.17318066035510776  1.0000
  C   C346      1.0  0.5376984293101876  0.5098841530183186  0.15150163557586843  1.0000
  C   C347      1.0  0.5708825537816714  0.5300021999439114  0.1301370543219655  1.0000
  C   C348      1.0  0.5339203397137673  0.5511680251499108  0.15263991780508923  1.0000
  H   H361      1.0  0.5725545150637926  0.5372632920633298  0.17395376698867515  1.0000
  H   H362      1.0  0.5750284208428649  0.5066557113346066  0.17321141745174345  1.0000
  H   H363      1.0  0.5476702798779582  0.5225873420018696  0.18993112191446318  1.0000
  H   H364      1.0  0.5291210797758814  0.5132423074240186  0.13570879266791597  1.0000
  H   H365      1.0  0.5502301751244177  0.4927575701276168  0.15051561477234163  1.0000
  H   H366      1.0  0.5227905032137506  0.5081933515074005  0.16770892040543336  1.0000
  H   H367      1.0  0.5842908391330283  0.513349644437943  0.12910990918442453  1.0000
  H   H368      1.0  0.5813563039127916  0.5440817236396891  0.12965100612009872  1.0000
  H   H369      1.0  0.5632997873412803  0.5335549736679657  0.11369482616430003  1.0000
  H   H370      1.0  0.525327740654289  0.5555415515534737  0.13680457117071956  1.0000
  H   H371      1.0  0.5434523979033749  0.5657595355494547  0.15285639605355253  1.0000
  H   H372      1.0  0.5187757325442349  0.5507865127726959  0.16883844670702897  1.0000
  N   N16       1.0  0.56663331559299  0.4735398645766077  0.9477581267190692  1.0000
  C   C349      1.0  0.5495670006841815  0.47965766123498027  0.9701519950832136  1.0000
  C   C350      1.0  0.5548975553449437  0.4607321710479001  0.9352063301004889  1.0000
  C   C351      1.0  0.5895011851408657  0.458829028876132  0.9531945921768007  1.0000
  C   C352      1.0  0.5725072913745562  0.49511555366526555  0.9324813845332136  1.0000
  H   H373      1.0  0.557491018278821  0.490007791344168  0.9796757523442906  1.0000
  H   H374      1.0  0.5454321097939047  0.46377684012903225  0.9825403538535452  1.0000
  H   H375      1.0  0.5318428213671295  0.4901532820487215  0.9667393327123676  1.0000
  H   H376      1.0  0.5375561086114893  0.47139958164970597  0.9308480567924807  1.0000
  H   H377      1.0  0.5672054044233197  0.45600836234078784  0.9181025082214405  1.0000
  H   H378      1.0  0.5500712407687698  0.4443668212789283  0.9462743477144359  1.0000
  H   H379      1.0  0.5857413295513545  0.4424435221667186  0.9648943663735796  1.0000
  H   H380      1.0  0.5987657586481685  0.46809749290877656  0.9626354173614194  1.0000
  H   H381      1.0  0.6028809239250223  0.45402317254421537  0.936661759136302  1.0000
  H   H382      1.0  0.5853709531503227  0.4913552887564406  0.9153179092247652  1.0000
  H   H383      1.0  0.5813564524286361  0.5052816418643603  0.9413434838647605  1.0000
  H   H384      1.0  0.555638332975806  0.5065601232188348  0.9280517571681315  1.0000
  N   N17       1.0  0.7085830240955109  0.2731751051806056  0.41264868505252217  1.0000
  C   C353      1.0  0.714463870021327  0.248888395374373  0.42385179021403785  1.0000
  C   C354      1.0  0.7131641472399911  0.27353614558414896  0.3865261372972316  1.0000
  C   C355      1.0  0.7241403238125929  0.28775407516837703  0.41831126081129205  1.0000
  C   C356      1.0  0.6824267763729002  0.28250157648027396  0.421885264713064  1.0000
  H   H385      1.0  0.7109374847456034  0.24787261074477634  0.44359991629222933  1.0000
  H   H386      1.0  0.7340936629703676  0.24123613710590636  0.4174112432116769  1.0000
  H   H387      1.0  0.7029962933721583  0.23755627826837464  0.4196566454751874  1.0000
  H   H388      1.0  0.709400803776229  0.29162745209215307  0.3774005411749455  1.0000
  H   H389      1.0  0.7326004326541031  0.26609039279655256  0.37901995739361105  1.0000
  H   H390      1.0  0.7012243112014853  0.2631733595619216  0.3816010659247627  1.0000
  H   H391      1.0  0.7198105851534621  0.3062686529123617  0.4103121379364287  1.0000
  H   H392      1.0  0.7440366269428965  0.28144629520026343  0.41138148339108815  1.0000
  H   H393      1.0  0.7212312517153922  0.2878121584822632  0.4378878112706897  1.0000
  H   H394      1.0  0.6701571756972966  0.2717519683837102  0.41822384058153395  1.0000
  H   H395      1.0  0.6771956199372181  0.30063992514815946  0.4135516208552026  1.0000
  H   H396      1.0  0.6783059469735052  0.2829290921559254  0.441480024228156  1.0000
  N   N18       1.0  0.9723549976715653  0.6252106165147703  0.40354910138931455  1.0000
  C   C357      1.0  0.977730594244106  0.6088494996126482  0.42458680067015564  1.0000
  C   C358      1.0  0.9599410512787953  0.6141209930870107  0.3900194160886125  1.0000
  C   C359      1.0  0.9955699372737086  0.6311399403986224  0.3881467008045981  1.0000
  C   C360      1.0  0.9562442925647943  0.6467907212681688  0.4114318520178888  1.0000
  H   H397      1.0  0.9868604016392302  0.6166335131104075  0.43544738852172127  1.0000
  H   H398      1.0  0.9899767001591894  0.5924343552119133  0.4194259564069969  1.0000
  H   H399      1.0  0.9606603560201181  0.6037906010558514  0.4364841207268467  1.0000
  H   H400      1.0  0.9555159314972019  0.6259677940427932  0.37405221625980956  1.0000
  H   H401      1.0  0.9716658795331801  0.5977982831763016  0.383798207018827  1.0000
  H   H402      1.0  0.9423694510862287  0.6093625303504187  0.4011383769480846  1.0000
  H   H403      1.0  0.9921895859919624  0.6438054264932028  0.3723276633886824  1.0000
  H   H404      1.0  0.008215339316079984  0.6154549384282644  0.38153339106377404  1.0000
  H   H405      1.0  0.005430226713933672  0.6393356996943989  0.397943110046985  1.0000
  H   H406      1.0  0.9520070991013586  0.6596456957201411  0.3960301842998608  1.0000
  H   H407      1.0  0.9650935691045568  0.6554985586233308  0.4218198454250145  1.0000
  H   H408      1.0  0.9383760203919032  0.643208498069782  0.42292746393710895  1.0000
  N   N19       1.0  0.6699484552413413  0.7766056039914745  0.46068575092781167  1.0000
  C   C361      1.0  0.6881189705402422  0.7832026861118823  0.43903024545144126  1.0000
  C   C362      1.0  0.6483936485774254  0.7716436864139173  0.45374214225354564  1.0000
  C   C363      1.0  0.6620217240912893  0.7959735775894182  0.4754637375257512  1.0000
  C   C364      1.0  0.6811708576955524  0.7555310552385271  0.4745225655952902  1.0000
  H   H409      1.0  0.6944972386490796  0.7688623514881329  0.4275999841290398  1.0000
  H   H410      1.0  0.7046141924058611  0.7871694782989209  0.4436021290574587  1.0000
  H   H411      1.0  0.6801228612055862  0.7989452962816966  0.4281141430976979  1.0000
  H   H412      1.0  0.6347580594096393  0.7659856567477872  0.46966138303926686  1.0000
  H   H413      1.0  0.6388463859079418  0.7872834948187655  0.44392171025247806  1.0000
  H   H414      1.0  0.6535945415246156  0.7572446206604708  0.4423877020407136  1.0000
  H   H415      1.0  0.6482539681383105  0.7915685836457769  0.49195884469116136  1.0000
  H   H416      1.0  0.653076403520344  0.8120956426645872  0.46575885391197475  1.0000
  H   H417      1.0  0.6777612701541018  0.8002858833732859  0.4810699091386577  1.0000
  H   H418      1.0  0.668137012617411  0.7506029165351054  0.4913266038095791  1.0000
  H   H419      1.0  0.6979894136945425  0.7582483629177209  0.47947707920922067  1.0000
  H   H420      1.0  0.6862667174036213  0.7402162438452555  0.46437438727163877  1.0000
  N   N20       1.0  0.388510942711705  0.7006038967975355  0.3229100949953468  1.0000
  C   C365      1.0  0.4028969695017645  0.6913793006113956  0.30069122039977636  1.0000
  C   C366      1.0  0.392859701845569  0.68325413465288  0.343596251733167  1.0000
  C   C367      1.0  0.36203941178963567  0.7052341158982485  0.32252989884598376  1.0000
  C   C368      1.0  0.3962371288786068  0.7224787052357069  0.3249035058533792  1.0000
  H   H421      1.0  0.40000572785626876  0.7039819804856178  0.28467456917820605  1.0000
  H   H422      1.0  0.3974493099030279  0.6748979398644699  0.2986242767316431  1.0000
  H   H423      1.0  0.4229878647633477  0.6876929894945372  0.30032322061179056  1.0000
  H   H424      1.0  0.4126937282125827  0.6790911864739273  0.3442698925225259  1.0000
  H   H425      1.0  0.3826188443794288  0.6898694696483544  0.3606310848031911  1.0000
  H   H426      1.0  0.38666476473426376  0.6667109164903067  0.34303369846480203  1.0000
  H   H427      1.0  0.35064998062388286  0.7128999159782671  0.3386574610737828  1.0000
  H   H428      1.0  0.3553203117081864  0.6889198672080858  0.32216869591486896  1.0000
  H   H429      1.0  0.3581430584260423  0.7175927737090096  0.3066869717071417  1.0000
  H   H430      1.0  0.41600710018124165  0.7195478148047322  0.3257218519067075  1.0000
  H   H431      1.0  0.3855310186937107  0.730081603054041  0.34131851287294657  1.0000
  H   H432      1.0  0.39362702601356614  0.735953175563812  0.30945115982275273  1.0000
  N   N21       1.0  0.516662088918859  0.7126996320402313  0.18992310572770849  1.0000
  C   C369      1.0  0.5298556471900214  0.7195172319241705  0.20592885481953566  1.0000
  C   C370      1.0  0.5249237000636239  0.7234891894727605  0.16522613566631505  1.0000
  C   C371      1.0  0.48996109886593386  0.7206347443617346  0.1979174009628968  1.0000
  C   C372      1.0  0.5217659282330648  0.6870546579995204  0.19068947714629178  1.0000
  H   H433      1.0  0.5238205777921231  0.7115919525147221  0.2247242099602771  1.0000
  H   H434      1.0  0.5263302403485075  0.7387627355231329  0.205935270661353  1.0000
  H   H435      1.0  0.5500678830160205  0.7136553845787518  0.20060653630202682  1.0000
  H   H436      1.0  0.5450147169175686  0.7178821264118774  0.1585873062526962  1.0000
  H   H437      1.0  0.5152476212654328  0.718449859866639  0.15284179161247508  1.0000
  H   H438      1.0  0.5211949891220742  0.7428667639639536  0.16391090984758408  1.0000
  H   H439      1.0  0.47936259530200576  0.7154687023439644  0.1864536614674291  1.0000
  H   H440      1.0  0.4853297802511314  0.7399220285579895  0.19750004359353726  1.0000
  H   H441      1.0  0.48327116781366114  0.7129368529276632  0.21658002123311462  1.0000
  H   H442      1.0  0.5416642936949654  0.6804065078541602  0.18427676437554502  1.0000
  H   H443      1.0  0.5114848034656881  0.6811994587794773  0.1793697615040984  1.0000
  H   H444      1.0  0.5163208231243314  0.6783750307254877  0.20920461026006162  1.0000
  N   N22       1.0  0.3760503329026023  0.6849635106732376  0.1782672521482051  1.0000
  C   C373      1.0  0.3778498291605916  0.6597229375800292  0.18664851238265856  1.0000
  C   C374      1.0  0.39776538209509354  0.6931380962616328  0.18148813783716033  1.0000
  C   C375      1.0  0.35351315390545335  0.6977332903171015  0.19231826303556387  1.0000
  C   C376      1.0  0.3750812659310636  0.689254542603936  0.15273207634545408  1.0000
  H   H445      1.0  0.36166199128917714  0.652985976689581  0.1846877607323834  1.0000
  H   H446      1.0  0.3788024497198064  0.6558911608696736  0.2058479916158222  1.0000
  H   H447      1.0  0.3945541350418505  0.649480148835851  0.17637603592479664  1.0000
  H   H448      1.0  0.39726959559799424  0.7120211171897396  0.1750029509040868  1.0000
  H   H449      1.0  0.39879941964830284  0.6905076386804838  0.20059521395999377  1.0000
  H   H450      1.0  0.41517875249583824  0.6835819042908058  0.17156324929635627  1.0000
  H   H451      1.0  0.3367208320216564  0.6920627259446477  0.19030594019133984  1.0000
  H   H452      1.0  0.351631265770502  0.7168760363998277  0.18671370146477156  1.0000
  H   H453      1.0  0.35371088753270985  0.6946710242158896  0.21170737853436192  1.0000
  H   H454      1.0  0.37336044406367763  0.7081606609198278  0.14588635662508398  1.0000
  H   H455      1.0  0.35925737828760695  0.6828304254296566  0.14947880215101317  1.0000
  H   H456      1.0  0.39207748065517467  0.6802513975494057  0.1415953065892986  1.0000
  N   N23       1.0  0.5872030334180325  0.10795693031196521  0.32285050227481854  1.0000
  C   C377      1.0  0.606533604357694  0.11932251531125733  0.32668899993494094  1.0000
  C   C378      1.0  0.5897122230476269  0.10781287055321638  0.2970459897512232  1.0000
  C   C379      1.0  0.5627432783984005  0.12101457997172217  0.3328207661402765  1.0000
  C   C380      1.0  0.5898061155854228  0.08369483946961526  0.33486887849805935  1.0000
  H   H457      1.0  0.6050197205139044  0.11984100993638452  0.34597341503283774  1.0000
  H   H458      1.0  0.6051935549854757  0.13772439276255646  0.31802891407838063  1.0000
  H   H459      1.0  0.6253247581367304  0.10993817962661194  0.31966201336798533  1.0000
  H   H460      1.0  0.5753517347126633  0.09934472452153602  0.29360160385143863  1.0000
  H   H461      1.0  0.587861863122128  0.12585665827088052  0.28743528012787334  1.0000
  H   H462      1.0  0.6079912812233519  0.09812014736276842  0.2889580360526382  1.0000
  H   H463      1.0  0.5476254855197671  0.11246149686283019  0.33117256704887105  1.0000
  H   H464      1.0  0.5598799616551807  0.13926003689085897  0.3238738181591474  1.0000
  H   H465      1.0  0.5604938500731997  0.1219608704715675  0.35213229464930834  1.0000
  H   H466      1.0  0.5749346209578213  0.07480744715321727  0.3332125469650455  1.0000
  H   H467      1.0  0.5885890042442671  0.08314470599853033  0.35426244037403326  1.0000
  H   H468      1.0  0.607819326506669  0.0731351327680771  0.3275060557202208  1.0000
  N   N24       1.0  0.14536893982036048  0.5949773350730193  0.3173622509318391  1.0000
  C   C381      1.0  0.1256688493217104  0.61563826182051  0.319791885189865  1.0000
  C   C382      1.0  0.1347120796679456  0.573679757729443  0.32738907259007416  1.0000
  C   C383      1.0  0.16411526182373276  0.5966732430755968  0.3304175621247566  1.0000
  C   C384      1.0  0.1568813220959455  0.5940131673868893  0.29187510773943176  1.0000
  H   H469      1.0  0.13292950167251255  0.6321446760145776  0.3125601660737804  1.0000
  H   H470      1.0  0.1169351325091569  0.6169561507643498  0.33879849344350305  1.0000
  H   H471      1.0  0.11086223670394012  0.6148722398929837  0.3106205492488031  1.0000
  H   H472      1.0  0.14892352372449266  0.5576542650500035  0.32572898548920626  1.0000
  H   H473      1.0  0.12593094281279157  0.5738810506178567  0.34664126372521303  1.0000
  H   H474      1.0  0.12006254470569641  0.5721228233878609  0.31832885163496677  1.0000
  H   H475      1.0  0.15600986885186097  0.5974577735002486  0.3497421747405046  1.0000
  H   H476      1.0  0.17214358405814192  0.6128517816417026  0.32366884390308137  1.0000
  H   H477      1.0  0.17943042478895  0.581511436337143  0.32888140703306246  1.0000
  H   H478      1.0  0.17185458573550305  0.5786219892408954  0.2893327025560155  1.0000
  H   H479      1.0  0.1650218938026136  0.6099119163183915  0.28385764918199685  1.0000
  H   H480      1.0  0.14315726035614104  0.5928262173387547  0.28154924858030256  1.0000
  N   N25       1.0  0.9330370008755128  0.5320773372329161  0.5436097543228697  1.0000
  C   C385      1.0  0.9111864002402847  0.5421453186540589  0.5606774660276096  1.0000
  C   C386      1.0  0.9354321101047786  0.5063957156192921  0.5469684245881666  1.0000
  C   C387      1.0  0.9553066146816261  0.5386069019940466  0.547635415672423  1.0000
  C   C388      1.0  0.9302664670276344  0.5412210328245196  0.5190269028372251  1.0000
  H   H481      1.0  0.8940933306826672  0.537364402699504  0.5582340130964792  1.0000
  H   H482      1.0  0.908593065474343  0.5615742209110465  0.5583814314127042  1.0000
  H   H483      1.0  0.9127704262823088  0.5358908813352629  0.5794362834032526  1.0000
  H   H484      1.0  0.9518390234932226  0.49828101060261315  0.5344538744032058  1.0000
  H   H485      1.0  0.937322645238965  0.49880549823748066  0.5653733091269382  1.0000
  H   H486      1.0  0.9192383987533992  0.5008802562078774  0.5433665589536075  1.0000
  H   H487      1.0  0.972099162680222  0.5313790204233722  0.5349170047617389  1.0000
  H   H488      1.0  0.9581456092619248  0.5320215900450255  0.5659705260853489  1.0000
  H   H489      1.0  0.9541443060075154  0.557884790175562  0.5449546064493012  1.0000
  H   H490      1.0  0.9144372369523773  0.5357483988571856  0.5146819922117144  1.0000
  H   H491      1.0  0.9469806880900689  0.5349250333756734  0.5057397489842247  1.0000
  H   H492      1.0  0.9276585293497293  0.5605332293701346  0.5160615281231054  1.0000
  N   N26       1.0  0.5073824250834185  0.04415259664998132  0.4639958161069759  1.0000
  C   C389      1.0  0.49668399110381584  0.04163648721774119  0.489846809824387  1.0000
  C   C390      1.0  0.48787419130178417  0.05472948746885444  0.4507220232790891  1.0000
  C   C391      1.0  0.5187915665095756  0.020912127303201817  0.45676078728597796  1.0000
  C   C392      1.0  0.526223328652735  0.05924993040834898  0.458665676581353  1.0000
  H   H493      1.0  0.5109488400382088  0.03317969146270262  0.5002327177841343  1.0000
  H   H494      1.0  0.48179934776140704  0.03099406959085242  0.4943349612671637  1.0000
  H   H495      1.0  0.4886746128861278  0.058891137245552914  0.4961416281103661  1.0000
  H   H496      1.0  0.49550915942614954  0.05752051704790045  0.4312146754377084  1.0000
  H   H497      1.0  0.4737636372831949  0.0434334586148268  0.45368470065284  1.0000
  H   H498      1.0  0.47830182364569723  0.07198694578815819  0.45621843868220613  1.0000
  H   H499      1.0  0.5049770461905358  0.009235859340230515  0.460031677917055  1.0000
  H   H500      1.0  0.5332293144184431  0.012254350956737065  0.4667915081349963  1.0000
  H   H501      1.0  0.5276403013906447  0.02216635439157222  0.4375129619169678  1.0000
  H   H502      1.0  0.5411092664686838  0.05199467824654961  0.4685974480782091  1.0000
  H   H503      1.0  0.5181144455451565  0.07703940453035919  0.4636894420073048  1.0000
  H   H504      1.0  0.5349541458432016  0.06127914183391838  0.43934107027740105  1.0000
  N   N27       1.0  0.4156477892145155  0.24822774243152654  0.635636484833573  1.0000
  C   C393      1.0  0.4427491739768266  0.2456393148193426  0.6286624923572558  1.0000
  C   C394      1.0  0.4045267316783985  0.26580692755861574  0.6182842394039338  1.0000
  C   C395      1.0  0.407136876210956  0.25599960619302936  0.6595312431484426  1.0000
  C   C396      1.0  0.40822071144866984  0.2255960559258861  0.6359566503459828  1.0000
  H   H505      1.0  0.4517519240191225  0.2329894180135544  0.6417346634338443  1.0000
  H   H506      1.0  0.44895433426909087  0.26259457220201243  0.6275378730773709  1.0000
  H   H507      1.0  0.44989581482300367  0.23925545960139727  0.6109464619232687  1.0000
  H   H508      1.0  0.3841143850958766  0.26783633370367493  0.6225251536131068  1.0000
  H   H509      1.0  0.40928687011564213  0.2832350208974911  0.6178927196137508  1.0000
  H   H510      1.0  0.4110839410450427  0.2608495372952397  0.5999939222441047  1.0000
  H   H511      1.0  0.41272376402800354  0.2730169875622125  0.6596644951104789  1.0000
  H   H512      1.0  0.4150655512831998  0.24316380676396843  0.6731852613659942  1.0000
  H   H513      1.0  0.3867406254863246  0.2584583587985098  0.6652686429109764  1.0000
  H   H514      1.0  0.4164305316110731  0.21179001069586662  0.6486975882061223  1.0000
  H   H515      1.0  0.4142567539672986  0.21946934186274364  0.6180207109643885  1.0000
  H   H516      1.0  0.3878783151314254  0.22687116913644695  0.6411520735152514  1.0000
  N   N28       1.0  0.23552077232687424  0.3973622911607242  0.5600549709589996  1.0000
  C   C397      1.0  0.23582046610532448  0.41293736820840443  0.5373048784731416  1.0000
  C   C398      1.0  0.21012940940494382  0.393326422878916  0.5706549643691399  1.0000
  C   C399      1.0  0.24423145121523326  0.40833324633175  0.5766812675668304  1.0000
  C   C400      1.0  0.2519446752553324  0.37493394024936777  0.5555698881687053  1.0000
  H   H517      1.0  0.22344236534631035  0.4299806350975737  0.5400010546860986  1.0000
  H   H518      1.0  0.22959117966596748  0.40512015977305965  0.5242331626820204  1.0000
  H   H519      1.0  0.2546822278899943  0.41659859371807084  0.5289461987613291  1.0000
  H   H520      1.0  0.202785811059562  0.3852867054542233  0.558528594544202  1.0000
  H   H521      1.0  0.2091194751874304  0.38167380803772233  0.5878741284907523  1.0000
  H   H522      1.0  0.19742712004079815  0.40999398267739284  0.5743327031571963  1.0000
  H   H523      1.0  0.24336088578064136  0.39758343950555586  0.594392220762481  1.0000
  H   H524      1.0  0.23297230940275  0.4257116561362592  0.5796500798332862  1.0000
  H   H525      1.0  0.2635815265937431  0.4109893415882509  0.5696741317199642  1.0000
  H   H526      1.0  0.252398603624087  0.3628489028030312  0.5723907386671906  1.0000
  H   H527      1.0  0.2712152663456124  0.3775963194696143  0.5474369264109754  1.0000
  H   H528      1.0  0.24594611655304902  0.3660921022778195  0.5431264650077806  1.0000
  N   N29       1.0  0.4612680836149216  0.0182537343393141  0.5748273770079075  1.0000
  C   C401      1.0  0.47526540865606715  0.023394473538652205  0.5502364903334608  1.0000
  C   C402      1.0  0.4405427935896242  0.006930528940296554  0.5743532282686526  1.0000
  C   C403      1.0  0.45163756380018766  0.040251328729275615  0.5853996479975037  1.0000
  C   C404      1.0  0.4776195007328521  0.002500607148365308  0.5892084452661756  1.0000
  H   H529      1.0  0.4921163863118126  0.030320211447750323  0.5499706424263054  1.0000
  H   H530      1.0  0.46405294889226933  0.03667386510435966  0.539488185667217  1.0000
  H   H531      1.0  0.4809189880893932  0.007499477308456459  0.5410268258925796  1.0000
  H   H532      1.0  0.42937686119774815  0.002995092261663501  0.5925691978722822  1.0000
  H   H533      1.0  0.428055329533018  0.01827524612843834  0.5633339889775756  1.0000
  H   H534      1.0  0.44718695476431447  0.9901628856715109  0.5666210910616116  1.0000
  H   H535      1.0  0.4415729468810269  0.037040426753456535  0.6042078000289232  1.0000
  H   H536      1.0  0.4385834285935568  0.05217796840656286  0.5753563412874114  1.0000
  H   H537      1.0  0.46676554498824896  0.04967908263808973  0.5851604033139933  1.0000
  H   H538      1.0  0.46770186568021543  0.998190527806198  0.6078787679687032  1.0000
  H   H539      1.0  0.493548935193736  0.010451626906512912  0.5898505025661335  1.0000
  H   H540      1.0  0.4852187196264441  0.985745167522272  0.581700223309082  1.0000
  N   N30       1.0  0.5706436144236037  0.9249852524336997  0.44446588678370536  1.0000
  C   C405      1.0  0.5811595486658852  0.9462086116034389  0.43363560708078985  1.0000
  C   C406      1.0  0.5491899217960061  0.9247150633649749  0.434499617086371  1.0000
  C   C407      1.0  0.5627221189963307  0.924982486769183  0.47053484262707596  1.0000
  C   C408      1.0  0.5894298932378209  0.9041012804861142  0.4392152524684382  1.0000
  H   H541      1.0  0.5970460662723224  0.9474370385513124  0.44110438303217187  1.0000
  H   H542      1.0  0.5673067421464795  0.9623092023418771  0.4369776479567738  1.0000
  H   H543      1.0  0.5873905084810082  0.9468284927112387  0.413944916945843  1.0000
  H   H544      1.0  0.5404087695039381  0.909182370796923  0.4424335209174413  1.0000
  H   H545      1.0  0.5349279895251751  0.940476977802831  0.43797559567089467  1.0000
  H   H546      1.0  0.5544330231015026  0.9248276267486825  0.4147975995839541  1.0000
  H   H547      1.0  0.5548353406016279  0.9091724705900999  0.4793714803103207  1.0000
  H   H548      1.0  0.548423546515225  0.9404859631745537  0.4750752774493853  1.0000
  H   H549      1.0  0.5783752749180644  0.9256837557899324  0.47862364897738974  1.0000
  H   H550      1.0  0.5820860767546866  0.8877735377738042  0.44714241998103965  1.0000
  H   H551      1.0  0.6058173672589471  0.9038826994006586  0.44659491857726114  1.0000
  H   H552      1.0  0.5958134109444131  0.9036051133457895  0.4196589426047892  1.0000
  N   N31       1.0  0.4645480496562919  0.6953104533965431  0.449557356841734  1.0000
  C   C409      1.0  0.43804913901365383  0.6943690319434773  0.4581535221094134  1.0000
  C   C410      1.0  0.4726813749454449  0.7073888894566176  0.46571210127765666  1.0000
  C   C411      1.0  0.4686789677021165  0.708169214667289  0.42528139148066973  1.0000
  C   C412      1.0  0.478763882599232  0.671384937743715  0.4489892021612665  1.0000
  H   H553      1.0  0.43125713663069215  0.6853180182041226  0.44640603202467594  1.0000
  H   H554      1.0  0.42675580977331956  0.7122155482135442  0.4582364642792832  1.0000
  H   H555      1.0  0.43404998241202286  0.6851077639538619  0.4765616030780095  1.0000
  H   H556      1.0  0.4923154798034345  0.7094682833713871  0.4591486902820673  1.0000
  H   H557      1.0  0.4615674333444399  0.7251511360191301  0.46725727339871054  1.0000
  H   H558      1.0  0.4707700247565476  0.6977322265360337  0.48401327881885725  1.0000
  H   H559      1.0  0.45873144946443933  0.7264218111000348  0.42519580793583583  1.0000
  H   H560      1.0  0.4619363765850304  0.7000665781258009  0.41274538860689747  1.0000
  H   H561      1.0  0.48851763946516114  0.7089449846794752  0.4178820742947617  1.0000
  H   H562      1.0  0.49884372623409806  0.6715902475325369  0.4426752212023255  1.0000
  H   H563      1.0  0.4731931364155374  0.6619344052510745  0.4367359744917181  1.0000
  H   H564      1.0  0.4759467642010273  0.6610731308323307  0.4669846608005606  1.0000
  N   N32       1.0  0.4892769479947144  0.5942732654676902  0.8448060968394326  1.0000
  C   C413      1.0  0.5084806673162188  0.6032011594772434  0.8254304577701997  1.0000
  C   C414      1.0  0.4807350126464337  0.5754608264506136  0.8370095315562937  1.0000
  C   C415      1.0  0.4683479962808076  0.6134115756598049  0.8505591997871847  1.0000
  C   C416      1.0  0.49945716791586126  0.5849299431230275  0.8662673532741032  1.0000
  H   H565      1.0  0.5246994329421689  0.5892981290403104  0.8208570866705877  1.0000
  H   H566      1.0  0.5150992389207228  0.6176998211927912  0.8305534138415837  1.0000
  H   H567      1.0  0.5015154730947987  0.610106417862412  0.8088731514900539  1.0000
  H   H568      1.0  0.4959664598175292  0.560547793665728  0.8330138843114763  1.0000
  H   H569      1.0  0.46602223861590697  0.5686048931908592  0.8511082342657266  1.0000
  H   H570      1.0  0.4731327202040378  0.5816783298954867  0.8207351542684831  1.0000
  H   H571      1.0  0.460067462430609  0.620800380416902  0.8348764843972877  1.0000
  H   H572      1.0  0.47414135087516746  0.6279062503140443  0.8565585891330487  1.0000
  H   H573      1.0  0.45356837575705294  0.607321516007441  0.865214824570946  1.0000
  H   H574      1.0  0.4853063999265381  0.5780652407853619  0.8811414670505483  1.0000
  H   H575      1.0  0.5059918226984556  0.5986803685022565  0.8727300971321873  1.0000
  H   H576      1.0  0.515273721498103  0.5704002990847726  0.862649964645845  1.0000
  N   N33       1.0  0.6725856199100352  0.3991460492879979  0.32629414906859405  1.0000
  C   C417      1.0  0.685950623600022  0.4081854160802911  0.3406435060149325  1.0000
  C   C418      1.0  0.6483743167501959  0.41425473171492644  0.32630053061488407  1.0000
  C   C419      1.0  0.6689162399401829  0.37515845064558817  0.3366034361232828  1.0000
  C   C420      1.0  0.6870814707831924  0.39896650668659495  0.30156666366184864  1.0000
  H   H577      1.0  0.6761153207761024  0.40773676955090693  0.3596751109663287  1.0000
  H   H578      1.0  0.6882934073324388  0.426559088739205  0.33383197689092137  1.0000
  H   H579      1.0  0.7047059651468816  0.3977290053166043  0.3402854053584902  1.0000
  H   H580      1.0  0.6377687408866479  0.40787062858463313  0.3156983568662071  1.0000
  H   H581      1.0  0.6370442107757148  0.4148859851461119  0.34472162144874174  1.0000
  H   H582      1.0  0.6504330123746997  0.4324285792911142  0.3184244534693665  1.0000
  H   H583      1.0  0.6582416317801633  0.37455992272348826  0.35537006613085076  1.0000
  H   H584      1.0  0.6867915398572018  0.36317612804035565  0.33655978625741634  1.0000
  H   H585      1.0  0.6586552724531537  0.3679197232589461  0.3263398468257222  1.0000
  H   H586      1.0  0.6774103651578584  0.3926782025876044  0.29008197980057804  1.0000
  H   H587      1.0  0.7053736173498824  0.38753080523088296  0.3008693060020712  1.0000
  H   H588      1.0  0.6904222498631096  0.4167210633126831  0.2933044906886936  1.0000
  N   N34       1.0  0.04686303834412241  0.6309105989481305  0.5123561113292447  1.0000
  C   C421      1.0  0.06061882571773911  0.6068571247887424  0.5157092213505317  1.0000
  C   C422      1.0  0.020448845358422067  0.6310160113353429  0.5227415349246641  1.0000
  C   C423      1.0  0.0502549760714582  0.639508163409959  0.48662050100405013  1.0000
  C   C424      1.0  0.05610024255237045  0.6463181083314453  0.5243200757128095  1.0000
  H   H589      1.0  0.05758755957357304  0.5992423703235703  0.5347688764372381  1.0000
  H   H590      1.0  0.08074988904688855  0.6062453439069703  0.5089107014026196  1.0000
  H   H591      1.0  0.055019803744478034  0.5950150755343208  0.5057887612224616  1.0000
  H   H592      1.0  0.013038598610355986  0.6194787949675252  0.514118435760159  1.0000
  H   H593      1.0  0.017099671022422325  0.624758362897353  0.5421527604355104  1.0000
  H   H594      1.0  0.009390801198715461  0.6488477780408121  0.5203638942121646  1.0000
  H   H595      1.0  0.0699458287063206  0.6400791628112998  0.47825281982916573  1.0000
  H   H596      1.0  0.039688514940527754  0.6574116693720491  0.4833215655620001  1.0000
  H   H597      1.0  0.0441202062671243  0.627926743536179  0.47686202638058833  1.0000
  H   H598      1.0  0.045958950308860116  0.6645622440194077  0.5221358705343094  1.0000
  H   H599      1.0  0.07596717777123589  0.6467677867340001  0.5167108862941231  1.0000
  H   H600      1.0  0.053951414759917875  0.6403157782993215  0.5437482485494014  1.0000
  N   N35       1.0  0.48608849978015145  0.8319958374173085  0.4217193449992352  1.0000
  C   C425      1.0  0.4857129032115687  0.8201089220339745  0.40147556087953845  1.0000
  C   C426      1.0  0.46332528242935284  0.8302441050614828  0.44014058346277374  1.0000
  C   C427      1.0  0.4875922802381957  0.8568182206864263  0.41329348578150576  1.0000
  C   C428      1.0  0.5076867550556226  0.8208334112858465  0.43195924938624947  1.0000
  H   H601      1.0  0.48436433884372515  0.8014064984307847  0.40720063611609103  1.0000
  H   H602      1.0  0.5026090705525137  0.8208587256308622  0.3871960767460638  1.0000
  H   H603      1.0  0.46961625141646973  0.828126523351701  0.3933553006701702  1.0000
  H   H604      1.0  0.46168968954025225  0.8117346594564542  0.4469716989276351  1.0000
  H   H605      1.0  0.4627061237045196  0.8393033602420604  0.455583000927346  1.0000
  H   H606      1.0  0.44665483991363314  0.8382193380693236  0.43290202853746634  1.0000
  H   H607      1.0  0.4867725849260238  0.8666673079255804  0.4282505976575127  1.0000
  H   H608      1.0  0.47214713407978953  0.8654855232413647  0.4046043723179897  1.0000
  H   H609      1.0  0.504862938295994  0.8588342421505971  0.39986570702625474  1.0000
  H   H610      1.0  0.5071859182004156  0.8021150239430247  0.43854428891262476  1.0000
  H   H611      1.0  0.5084753934966504  0.8293758518333754  0.447303677618885  1.0000
  H   H612      1.0  0.5251699872020862  0.8216103621605476  0.4184800058872841  1.0000
  N   N36       1.0  0.5127278318267189  0.862933785027762  0.5554415149734518  1.0000
  C   C429      1.0  0.5037941208516548  0.8684996654891914  0.5329918011034914  1.0000
  C   C430      1.0  0.5037904964205855  0.8418715214646071  0.5693595636442872  1.0000
  C   C431      1.0  0.5036666971594819  0.8827886605056732  0.5694894674767188  1.0000
  C   C432      1.0  0.5398558475413247  0.8585933703989373  0.549865951092967  1.0000
  H   H613      1.0  0.48337055287329794  0.8710968929674888  0.5364930815519496  1.0000
  H   H614      1.0  0.5110996491257065  0.8542684554362571  0.5215128964741097  1.0000
  H   H615      1.0  0.5094787688624128  0.8848099397977278  0.5224684189365153  1.0000
  H   H616      1.0  0.5103030848562918  0.8265979309007313  0.559158343154143  1.0000
  H   H617      1.0  0.510498792789612  0.8370598644311743  0.5862795715270922  1.0000
  H   H618      1.0  0.4833266240878466  0.8446175001572284  0.5740493560244285  1.0000
  H   H619      1.0  0.5098416687664147  0.8791337847216745  0.5866837374475645  1.0000
  H   H620      1.0  0.48322215295182885  0.8871757997225388  0.5735504709595042  1.0000
  H   H621      1.0  0.5106793239183702  0.8987524046403181  0.5596647726415196  1.0000
  H   H622      1.0  0.5471981904349446  0.8740670694150352  0.5391603866665237  1.0000
  H   H623      1.0  0.547516238019083  0.843548108120578  0.5394968431256026  1.0000
  H   H624      1.0  0.547308022367768  0.8547752873526124  0.5663823130259086  1.0000
  N   N37       1.0  0.7816171324256583  0.5405473462457905  0.38314937765219  1.0000
  C   C433      1.0  0.7693110143896191  0.5381649472252651  0.36427174110495375  1.0000
  C   C434      1.0  0.7790302478088351  0.5206184456793457  0.40214642494427993  1.0000
  C   C435      1.0  0.7700910182413327  0.5625083888651053  0.3933211041516792  1.0000
  C   C436      1.0  0.8080013657966851  0.5408271686229661  0.3728438854921126  1.0000
  H   H625      1.0  0.7711423483226855  0.5527275080669748  0.3494716699929298  1.0000
  H   H626      1.0  0.7493265454270148  0.5379666422887862  0.3713644393277391  1.0000
  H   H627      1.0  0.7773873980966208  0.5216026070869538  0.35640682644299754  1.0000
  H   H628      1.0  0.7873630991453143  0.5221820985740651  0.4170214951596139  1.0000
  H   H629      1.0  0.7594125678827199  0.5193365073168379  0.4096473714343443  1.0000
  H   H630      1.0  0.7879904110244494  0.5037650810319366  0.39532313264448965  1.0000
  H   H631      1.0  0.7785030517962641  0.5647019790603739  0.4080063216395745  1.0000
  H   H632      1.0  0.7500801250112354  0.5629318641305087  0.400928726718728  1.0000
  H   H633      1.0  0.7719439690752846  0.5779820222729692  0.3795940282406207  1.0000
  H   H634      1.0  0.8180980717086626  0.5420855826572649  0.3865875738449091  1.0000
  H   H635      1.0  0.8107231819854012  0.555782049058834  0.35861525773968017  1.0000
  H   H636      1.0  0.8169629387330569  0.5246317641511511  0.36462103732503826  1.0000
  N   N38       1.0  0.2124501852852714  0.5562911805785755  0.4448005865707146  1.0000
  C   C437      1.0  0.23526376087062956  0.5662351691905328  0.4358764997418544  1.0000
  C   C438      1.0  0.19102546386091246  0.5748627351209974  0.4424439975205266  1.0000
  C   C439      1.0  0.21064834625416443  0.5464971993961151  0.4701286929675121  1.0000
  C   C440      1.0  0.21287741028556517  0.537594953089407  0.4307079574170586  1.0000
  H   H637      1.0  0.25187607002160134  0.5529734434705293  0.4379692309480491  1.0000
  H   H638      1.0  0.23514567059938762  0.5809161204868988  0.4456329776348914  1.0000
  H   H639      1.0  0.2373665219005194  0.5735387697080468  0.41671642174022294  1.0000
  H   H640      1.0  0.19036499226311818  0.5893888198668974  0.4526398314948028  1.0000
  H   H641      1.0  0.19179161879274742  0.5825364469508839  0.4235210007057095  1.0000
  H   H642      1.0  0.17339561650648097  0.5681832755846333  0.4491122261981759  1.0000
  H   H643      1.0  0.22651852383135831  0.5323788695530254  0.4725338649190313  1.0000
  H   H644      1.0  0.19364103477328568  0.5388075664978277  0.4774121090486657  1.0000
  H   H645      1.0  0.2104564708914715  0.560032103144282  0.4813528477952909  1.0000
  H   H646      1.0  0.22883095675519718  0.5233064297680622  0.43214207104172303  1.0000
  H   H647      1.0  0.2140389426855873  0.5443767267163894  0.4115302174957512  1.0000
  H   H648      1.0  0.19597231954327704  0.5296322249927025  0.43708603123200457  1.0000
  N   N39       1.0  0.3920341669484469  0.9808147307838535  0.380524979633468  1.0000
  C   C441      1.0  0.4147018367253395  0.9901036928917808  0.3787120089409467  1.0000
  C   C442      1.0  0.3902660693549503  0.9611590751731613  0.399920932088845  1.0000
  C   C443      1.0  0.3928766098868047  0.9724759623963322  0.35776366815547844  1.0000
  C   C444      1.0  0.3704490657891171  0.999430384289231  0.38574881549514917  1.0000
  H   H649      1.0  0.4164999415270821  0.005276689641329315  0.36459483448726226  1.0000
  H   H650      1.0  0.43131703564522356  0.9766161060791505  0.37420803805017844  1.0000
  H   H651      1.0  0.41510775859168175  0.9959897465352663  0.39577925576681267  1.0000
  H   H652      1.0  0.38977707313214977  0.9667028359059977  0.4173909221959707  1.0000
  H   H653      1.0  0.3734631755738622  0.9535580940580534  0.4017805106580598  1.0000
  H   H654      1.0  0.40634199995938003  0.9468936607030891  0.39642440582022853  1.0000
  H   H655      1.0  0.37608724511185526  0.9652785236159218  0.35844639373693005  1.0000
  H   H656      1.0  0.4090064908807764  0.9582991412320254  0.35351432249258075  1.0000
  H   H657      1.0  0.39451909597575896  0.9867448159832545  0.34262097892648846  1.0000
  H   H658      1.0  0.3696210776340504  0.006165774929061177  0.4027317469417934  1.0000
  H   H659      1.0  0.35296181994890236  0.9929904076937728  0.38751139490709924  1.0000
  H   H660      1.0  0.3711529331861419  0.014502831465164663  0.3713972985777774  1.0000
  N   N40       1.0  0.5712040094293154  0.22773697509992372  0.41510234910445704  1.0000
  C   C445      1.0  0.5872354353580658  0.2397441894224745  0.4235655623456827  1.0000
  C   C446      1.0  0.5470995923023849  0.22891994618406028  0.43197038498097823  1.0000
  C   C447      1.0  0.582824058026582  0.20309366676700466  0.41357259987806727  1.0000
  C   C448      1.0  0.5677130020297784  0.2391786800160395  0.3912686102079738  1.0000
  H   H661      1.0  0.6054877608829268  0.23939648640699954  0.4111180128936738  1.0000
  H   H662      1.0  0.5904865878621813  0.2314218233490062  0.4413972442592075  1.0000
  H   H663      1.0  0.5788972558242801  0.25833721626807743  0.4251209350669618  1.0000
  H   H664      1.0  0.5345720401756837  0.2199306547696011  0.42615129409622554  1.0000
  H   H665      1.0  0.5490976660429947  0.22021324908964354  0.45008256035247013  1.0000
  H   H666      1.0  0.5378805544404088  0.247331911968994  0.43361348562389984  1.0000
  H   H667      1.0  0.5710664770872613  0.1933231887620743  0.40764138932169186  1.0000
  H   H668      1.0  0.5862312925034928  0.19397387841685784  0.4311134283621885  1.0000
  H   H669      1.0  0.6007903684903039  0.20159529864834308  0.400743659422127  1.0000
  H   H670      1.0  0.5591477170317883  0.257892204319129  0.39170111299238125  1.0000
  H   H671      1.0  0.5556036132442876  0.23060143893075208  0.3844127629474768  1.0000
  H   H672      1.0  0.5855822168396396  0.238464329091484  0.37810597605787927  1.0000
  N   N41       1.0  0.0930670720578072  0.500965073095796  0.6064073246032645  1.0000
  C   C449      1.0  0.09786745708084323  0.4812406509356338  0.624977179091639  1.0000
  C   C450      1.0  0.07973048080792675  0.5218753495418877  0.6177071623793038  1.0000
  C   C451      1.0  0.07800728296415424  0.494771523192345  0.5917771115030902  1.0000
  C   C452      1.0  0.11667805133494998  0.5059542850796357  0.5910632050076365  1.0000
  H   H673      1.0  0.10719725245360812  0.46505714346475197  0.6168958837155467  1.0000
  H   H674      1.0  0.08050369604948797  0.4772948292247266  0.6372186214106085  1.0000
  H   H675      1.0  0.10998613273618134  0.4848540352976988  0.6358371253303865  1.0000
  H   H676      1.0  0.07571380037037441  0.5369502651815676  0.6040321403555211  1.0000
  H   H677      1.0  0.06182488211140491  0.5187244114244812  0.6294513861996117  1.0000
  H   H678      1.0  0.0906650020952146  0.5271250419281803  0.6287592299629258  1.0000
  H   H679      1.0  0.0744235591353433  0.5090220014835221  0.5772404553530217  1.0000
  H   H680      1.0  0.059902574604803936  0.4911450976999061  0.6026115133951055  1.0000
  H   H681      1.0  0.08741649196126408  0.4788831584671388  0.5832441727498429  1.0000
  H   H682      1.0  0.11379224671614022  0.5207897217940902  0.5768467998906869  1.0000
  H   H683      1.0  0.12698365640498419  0.4906411549334489  0.58202454479266  1.0000
  H   H684      1.0  0.12882395607436312  0.5102513932662345  0.6014878551629478  1.0000
  N   N42       1.0  0.44383353153303695  0.5151443002081223  0.7460207021531836  1.0000
  C   C453      1.0  0.43423251349096725  0.5125959500917406  0.7720840937175626  1.0000
  C   C454      1.0  0.42520404735541945  0.5306950973700052  0.7340877928183701  1.0000
  C   C455      1.0  0.4492442961838576  0.49203791058796714  0.7375720446863103  1.0000
  C   C456      1.0  0.46660827734685684  0.5251767563089659  0.740311738966233  1.0000
  H   H685      1.0  0.4476212352963639  0.5005869546035052  0.7816225655245663  1.0000
  H   H686      1.0  0.4168758809906267  0.5053276392067771  0.7769373606931743  1.0000
  H   H687      1.0  0.43019250771078854  0.5296147173303504  0.7792162365104599  1.0000
  H   H688      1.0  0.4321170288464288  0.5334948869516297  0.714433460338307  1.0000
  H   H689      1.0  0.40814136894991837  0.5231224539777741  0.7372570285322546  1.0000
  H   H690      1.0  0.42005725793732773  0.5481172931054036  0.7404571885964575  1.0000
  H   H691      1.0  0.4557656325902861  0.49333860108781513  0.7178834996099333  1.0000
  H   H692      1.0  0.4325805912064181  0.4837632823078233  0.7421034904652503  1.0000
  H   H693      1.0  0.4635425277593008  0.47977668750063207  0.7457449031970816  1.0000
  H   H694      1.0  0.47435094139075706  0.527173163706302  0.7207892289174915  1.0000
  H   H695      1.0  0.4810111236269897  0.5138103078877956  0.749039467624533  1.0000
  H   H696      1.0  0.46318056889903475  0.5427261144917331  0.7462184473960783  1.0000
  N   N43       1.0  0.8300925203445513  0.5079465731874783  0.4593396868723164  1.0000
  C   C457      1.0  0.8410090993652239  0.48369948197634205  0.4670620251751137  1.0000
  C   C458      1.0  0.8393427081171195  0.5136820740370793  0.43344132927421974  1.0000
  C   C459      1.0  0.8368021945249502  0.5242204870062123  0.4723745570128656  1.0000
  C   C460      1.0  0.8030369479963854  0.5101997939723945  0.46455042323959356  1.0000
  H   H697      1.0  0.8343386785036592  0.47860405134202316  0.48645586254288853  1.0000
  H   H698      1.0  0.8614091919167517  0.48128870683482367  0.46356420010151317  1.0000
  H   H699      1.0  0.8366487985424723  0.47105652469339165  0.4572118752923081  1.0000
  H   H700      1.0  0.8598250951776605  0.5109587296867699  0.4287609031240658  1.0000
  H   H701      1.0  0.8336888484492647  0.5024209804452514  0.4229964241626201  1.0000
  H   H702      1.0  0.8327774142249181  0.5322675000436393  0.4272184517918046  1.0000
  H   H703      1.0  0.8276329323727195  0.5425134677170995  0.46807768279944284  1.0000
  H   H704      1.0  0.8568347613240298  0.5244163879897891  0.46774125149684437  1.0000
  H   H705      1.0  0.8315533762809509  0.5194654260244189  0.49200654572252084  1.0000
  H   H706      1.0  0.7942649558235548  0.5281667985701287  0.4584810670255294  1.0000
  H   H707      1.0  0.7954938411562303  0.5066768687655451  0.4840650286950457  1.0000
  H   H708      1.0  0.7971884760507  0.4976956182404981  0.45565471251672357  1.0000
  N   N44       1.0  0.8150442347254032  0.6428261567272024  0.4987600909269343  1.0000
  C   C461      1.0  0.8262765960985409  0.6199794564974289  0.49040076844969877  1.0000
  C   C462      1.0  0.7911000766577239  0.6410473881419833  0.5152801958563267  1.0000
  C   C463      1.0  0.8112692052861196  0.6604224586322632  0.47809773555505  1.0000
  C   C464      1.0  0.8316235569677589  0.6498516984273384  0.5112115060676607  1.0000
  H   H709      1.0  0.8446719342738035  0.620552832028063  0.4784399099566761  1.0000
  H   H710      1.0  0.8146098984930474  0.6141329022388858  0.48053091330259035  1.0000
  H   H711      1.0  0.8291037717306216  0.6063137183404272  0.5055271550984675  1.0000
  H   H712      1.0  0.7820145004218785  0.6579964066841268  0.5218880036473814  1.0000
  H   H713      1.0  0.7781575122469442  0.6357764873290883  0.5064595863530255  1.0000
  H   H714      1.0  0.793214539485519  0.6279479506921067  0.5310972292746245  1.0000
  H   H715      1.0  0.7991062133726132  0.6554775797487158  0.46811246504783366  1.0000
  H   H716      1.0  0.8290422938779739  0.6623820826506429  0.4654213091374308  1.0000
  H   H717      1.0  0.8027029358783382  0.6778535306539898  0.48376677298679305  1.0000
  H   H718      1.0  0.8352119459483758  0.6367916522674448  0.5267216964807139  1.0000
  H   H719      1.0  0.8238020771692885  0.66694553034612  0.5179444534601786  1.0000
  H   H720      1.0  0.8497402719572205  0.6515184925108313  0.49908156670954307  1.0000
  N   N45       1.0  0.6502706375956271  0.6306762504874611  0.7156495875779513  1.0000
  C   C465      1.0  0.6249510652773732  0.6292750136492499  0.714458660782711  1.0000
  C   C466      1.0  0.6679227355970523  0.6192806941081358  0.6961131249861957  1.0000
  C   C467      1.0  0.6553761304304929  0.6187648664779868  0.7388361413625681  1.0000
  C   C468      1.0  0.6527991768716866  0.655423215366448  0.7131708505824212  1.0000
  H   H721      1.0  0.6205632749767841  0.6379473681573734  0.6971065692269316  1.0000
  H   H722      1.0  0.6110732847092452  0.6377133155966048  0.7289115369319141  1.0000
  H   H723      1.0  0.6223995411156349  0.6108284212858346  0.7161583735122582  1.0000
  H   H724      1.0  0.687279697794185  0.6195954018920646  0.6966032913813565  1.0000
  H   H725      1.0  0.6660155471797992  0.600718284192799  0.6970981762428907  1.0000
  H   H726      1.0  0.6647503830939423  0.6280012049814692  0.6783362060760416  1.0000
  H   H727      1.0  0.6537869543778975  0.6000070437341362  0.741293946770551  1.0000
  H   H728      1.0  0.6422679473073066  0.6267862089940534  0.7540450627978156  1.0000
  H   H729      1.0  0.6742413676699855  0.6196501525455641  0.7404788551588536  1.0000
  H   H730      1.0  0.6717346723668578  0.6571555321972496  0.7138437586262704  1.0000
  H   H731      1.0  0.639802304579613  0.6644363954305116  0.727775977121526  1.0000
  H   H732      1.0  0.6488954990791577  0.6649845789413368  0.6959338918489898  1.0000
  N   N46       1.0  0.45219369287622513  0.5433185087395513  0.06819344887617212  1.0000
  C   C469      1.0  0.47276258433858637  0.5489277965624632  0.04848940625879097  1.0000
  C   C470      1.0  0.46040222087116617  0.5212330453668388  0.0825086648763225  1.0000
  C   C471      1.0  0.43145291985015305  0.5407496667203083  0.058244452222187736  1.0000
  C   C472      1.0  0.44430848377154336  0.5622964784223058  0.08344015429595812  1.0000
  H   H733      1.0  0.46711798589395126  0.5652766284013295  0.03716533537288144  1.0000
  H   H734      1.0  0.47915750379792815  0.5349170863441061  0.036715709993887624  1.0000
  H   H735      1.0  0.488667063320855  0.5512802617878724  0.05530153911514436  1.0000
  H   H736      1.0  0.4453863123773616  0.5163477035392185  0.09755048249860726  1.0000
  H   H737      1.0  0.46656732467406176  0.5065829316928151  0.07145725157967094  1.0000
  H   H738      1.0  0.47609193307729186  0.5226116087600825  0.09020600179388781  1.0000
  H   H739      1.0  0.4157656771311809  0.5359558094895882  0.07253453336831976  1.0000
  H   H740      1.0  0.4371272856945592  0.527020722200828  0.04604606982552228  1.0000
  H   H741      1.0  0.4244975884798112  0.5572762254271425  0.0476979191763261  1.0000
  H   H742      1.0  0.4292823063133156  0.5583692710241618  0.09891070349234042  1.0000
  H   H743      1.0  0.43732112680635915  0.5790995890158809  0.07335677117765335  1.0000
  H   H744      1.0  0.4598668766737474  0.5651655401556767  0.09051140393152884  1.0000
  N   N47       1.0  0.3949990869719687  0.4121634219545026  0.609137276272992  1.0000
  C   C473      1.0  0.3770449115609943  0.42536617470050253  0.5950215408553833  1.0000
  C   C474      1.0  0.3817607740879791  0.4029791536092834  0.6328756438160434  1.0000
  C   C475      1.0  0.4109815584501356  0.42776991934267383  0.6121286693052732  1.0000
  C   C476      1.0  0.4101941144511826  0.3925875709139673  0.5966004012479744  1.0000
  H   H745      1.0  0.3646937521471617  0.41413113326459833  0.5923454203575802  1.0000
  H   H746      1.0  0.3863945589531173  0.43270658446642807  0.577068759583177  1.0000
  H   H747      1.0  0.3652439739862097  0.44021292417827734  0.6040066958268921  1.0000
  H   H748      1.0  0.3947887344041665  0.39298229195642975  0.6440013191442041  1.0000
  H   H749      1.0  0.3702798967768406  0.4173388741914451  0.6428993473858924  1.0000
  H   H750      1.0  0.3694098844313603  0.39118813751099807  0.631452262287255  1.0000
  H   H751      1.0  0.4245877710758726  0.41844338286929345  0.622952767773588  1.0000
  H   H752      1.0  0.4000294012574687  0.44275216573961385  0.6214758387077347  1.0000
  H   H753      1.0  0.42149794815835473  0.4349537226581841  0.5946887637041691  1.0000
  H   H754      1.0  0.3987795302330494  0.38028046697635315  0.5942875020651747  1.0000
  H   H755      1.0  0.4241364179726862  0.3824461051427786  0.6066168534341431  1.0000
  H   H756      1.0  0.42023685392356547  0.39885726436260305  0.5785026241875876  1.0000
  N   N48       1.0  0.5869350438462723  0.10813389257076902  0.5121425450261207  1.0000
  C   C477      1.0  0.6112078685699934  0.0929337289351592  0.5114476449343429  1.0000
  C   C478      1.0  0.5895265613971016  0.13280861020074722  0.5101777842177517  1.0000
  C   C479      1.0  0.5698958852400374  0.10178552244610507  0.5347644768043441  1.0000
  C   C480      1.0  0.5770602422921477  0.10499061842374016  0.49193857367797306  1.0000
  H   H757      1.0  0.6245322225193345  0.09729251166424295  0.494581693312239  1.0000
  H   H758      1.0  0.609819052961287  0.07425818871670949  0.512151804951995  1.0000
  H   H759      1.0  0.6191852036610063  0.09444469097902694  0.5266362307042032  1.0000
  H   H760      1.0  0.5714217971999367  0.14459764346698653  0.5105171019421305  1.0000
  H   H761      1.0  0.5970728090127887  0.13596218599762339  0.5250360441200267  1.0000
  H   H762      1.0  0.6020342163147064  0.13813860981536902  0.4930918679086655  1.0000
  H   H763      1.0  0.5759909021415518  0.10517942527686618  0.5504053048356943  1.0000
  H   H764      1.0  0.5686786536019781  0.08293465350274147  0.5372948207440299  1.0000
  H   H765      1.0  0.550908001784281  0.11173123931939521  0.5350944892717404  1.0000
  H   H766      1.0  0.5742467653870704  0.08670873422383622  0.49297129590704675  1.0000
  H   H767      1.0  0.5898770981124971  0.10896085872575487  0.4747357298788071  1.0000
  H   H768      1.0  0.5590775495720315  0.11668556345102368  0.4912639336263478  1.0000
